REMARK  Name = ZINC20206742
REMARK  5 active torsions:
REMARK  status: ('A' for Active; 'I' for Inactive)
REMARK    1  A    between atoms: C_1  and  C_2
REMARK    2  A    between atoms: C_2  and  S_3
REMARK    3  A    between atoms: S_3  and  C_6
REMARK    4  A    between atoms: C_14  and  C_15
REMARK    5  A    between atoms: C_16  and  C_25
REMARK                            x       y       z     vdW  Elec       q    Type
REMARK                         _______ _______ _______ _____ _____    ______ ____
ROOT
ATOM      1  C   UNL     1       0.480  -2.148  -1.062  0.00  0.00    +0.257 C 
ATOM      2  N   UNL     1      -0.579  -2.642  -1.626  0.00  0.00    -0.174 NA
ATOM      3  S   UNL     1      -0.377  -4.301  -1.503  0.00  0.00    +0.049 S 
ATOM      4  C   UNL     1       1.066  -4.337  -0.668  0.00  0.00    +0.183 C 
ATOM      5  N   UNL     1       1.754  -5.356  -0.206  0.00  0.00    -0.152 NA
ATOM      6  C   UNL     1       2.875  -5.131   0.504  0.00  0.00    +0.273 C 
ATOM      7  O   UNL     1       3.604  -6.054   0.832  0.00  0.00    -0.268 OA
ATOM      8  C   UNL     1       3.203  -3.736   0.880  0.00  0.00    +0.078 C 
ATOM      9  C   UNL     1       3.980  -3.441   1.985  0.00  0.00    +0.026 C 
ATOM     10  C   UNL     1       2.651  -2.669   0.000  0.00  0.00    +0.117 C 
ATOM     11  N   UNL     1       3.261  -1.536  -0.226  0.00  0.00    -0.386 N 
ATOM     12  N   UNL     1       1.406  -3.004  -0.569  0.00  0.00    -0.203 N 
ATOM     13  H   UNL     1       4.069  -1.314   0.263  0.00  0.00    +0.157 HD
ATOM     14  H   UNL     1       2.906  -0.916  -0.882  0.00  0.00    +0.157 HD
ENDROOT
BRANCH   9  15
ATOM     15  C   UNL     1       4.485  -4.485   2.793  0.00  0.00    +0.004 A 
ATOM     16  C   UNL     1       3.773  -5.545   3.321  0.00  0.00    +0.021 A 
ATOM     17  N   UNL     1       4.600  -6.332   4.037  0.00  0.00    -0.358 N 
ATOM     18  H   UNL     1       4.328  -7.138   4.502  0.00  0.00    +0.166 HD
ATOM     19  C   UNL     1       5.888  -5.835   4.015  0.00  0.00    +0.047 A 
ATOM     20  C   UNL     1       5.882  -4.667   3.237  0.00  0.00    +0.007 A 
ATOM     21  C   UNL     1       7.059  -3.953   3.038  0.00  0.00    +0.010 A 
ATOM     22  C   UNL     1       8.233  -4.401   3.606  0.00  0.00    +0.001 A 
ATOM     23  C   UNL     1       8.242  -5.556   4.372  0.00  0.00    +0.002 A 
ATOM     24  C   UNL     1       7.081  -6.268   4.585  0.00  0.00    +0.026 A 
ATOM     25  C   UNL     1       2.298  -5.783   3.127  0.00  0.00    +0.064 C 
ENDBRANCH   9  15
BRANCH   1  26
ATOM     26  S   UNL     1       0.711  -0.405  -0.948  0.00  0.00    +0.029 S 
ATOM     27  O   UNL     1       1.490  -0.219   0.226  0.00  0.00    -0.167 OA
ATOM     28  O   UNL     1      -0.597   0.141  -1.044  0.00  0.00    -0.167 OA
BRANCH  26  30
ATOM     29  C   UNL     1       2.079   1.509  -2.343  0.00  0.00    +0.028 C 
ATOM     30  C   UNL     1       1.680   0.034  -2.417  0.00  0.00    +0.172 C 
ENDBRANCH  26  30
ENDBRANCH   1  26
TORSDOF 3
