REMARK  Name = ZINC13133743
REMARK  8 active torsions:
REMARK  status: ('A' for Active; 'I' for Inactive)
REMARK    1  A    between atoms: C_4  and  C_7
REMARK    2  A    between atoms: C_7  and  N_8
REMARK    3  A    between atoms: N_8  and  C_9
REMARK    4  A    between atoms: N_8  and  N_15
REMARK    5  A    between atoms: C_16  and  C_18
REMARK    6  A    between atoms: C_21  and  N_24
REMARK    7  A    between atoms: N_24  and  S_25
REMARK    8  A    between atoms: S_25  and  C_28
REMARK                            x       y       z     vdW  Elec       q    Type
REMARK                         _______ _______ _______ _____ _____    ______ ____
ROOT
ATOM      1  N   UNL     1       4.070  -3.848   4.266  0.00  0.00    -0.230 N 
ATOM      2  C   UNL     1       4.939  -2.839   4.472  0.00  0.00    +0.260 C 
ATOM      3  O   UNL     1       5.838  -2.965   5.282  0.00  0.00    -0.269 OA
ATOM      4  H   UNL     1       3.354  -3.747   3.620  0.00  0.00    +0.173 HD
ENDROOT
BRANCH   2   5
ATOM      5  C   UNL     1       4.801  -1.580   3.714  0.00  0.00    +0.038 A 
ATOM      6  C   UNL     1       5.701  -0.532   3.927  0.00  0.00    +0.015 A 
ATOM      7  C   UNL     1       5.569   0.640   3.219  0.00  0.00    +0.025 A 
ATOM      8  C   UNL     1       4.540   0.784   2.292  0.00  0.00    +0.048 A 
ATOM      9  C   UNL     1       3.638  -0.256   2.083  0.00  0.00    +0.025 A 
ATOM     10  C   UNL     1       3.768  -1.433   2.783  0.00  0.00    +0.015 A 
BRANCH   8  11
ATOM     11  N   UNL     1       4.409   1.970   1.579  0.00  0.00    -0.216 N 
ATOM     12  H   UNL     1       4.052   2.761   2.014  0.00  0.00    +0.174 HD
BRANCH  11  13
ATOM     13  S   UNL     1       4.861   2.034  -0.013  0.00  0.00    +0.079 S 
ATOM     14  O   UNL     1       4.652   3.372  -0.441  0.00  0.00    -0.149 OA
ATOM     15  O   UNL     1       4.248   0.924  -0.654  0.00  0.00    -0.149 OA
BRANCH  13  16
ATOM     16  C   UNL     1       6.600   1.753  -0.072  0.00  0.00    +0.147 A 
ATOM     17  C   UNL     1       7.273   0.577  -0.116  0.00  0.00    +0.038 A 
ATOM     18  C   UNL     1       8.655   0.597  -0.158  0.00  0.00    +0.030 A 
ATOM     19  C   UNL     1       9.295   1.793  -0.153  0.00  0.00    +0.080 A 
ATOM     20  S   UNL     1       7.931   2.942  -0.088  0.00  0.00    -0.057 S 
ATOM     21 CL   UNL     1      10.999   2.120  -0.199  0.00  0.00    -0.076 Cl
ENDBRANCH  13  16
ENDBRANCH  11  13
ENDBRANCH   8  11
ENDBRANCH   2   5
BRANCH   1  22
ATOM     22  N   UNL     1       4.202  -5.043   4.985  0.00  0.00    -0.246 N 
BRANCH  22  23
ATOM     23  C   UNL     1       5.212  -5.949   4.655  0.00  0.00    +0.048 A 
ATOM     24  C   UNL     1       5.348  -7.132   5.371  0.00  0.00    +0.025 A 
ATOM     25  C   UNL     1       6.343  -8.029   5.037  0.00  0.00    +0.002 A 
ATOM     26  C   UNL     1       7.213  -7.745   4.000  0.00  0.00    +0.000 A 
ATOM     27  C   UNL     1       7.085  -6.566   3.289  0.00  0.00    +0.002 A 
ATOM     28  C   UNL     1       6.087  -5.668   3.613  0.00  0.00    +0.025 A 
ENDBRANCH  22  23
BRANCH  22  29
ATOM     29  C   UNL     1       3.280  -5.342   6.084  0.00  0.00    +0.162 C 
BRANCH  29  33
ATOM     30  C   UNL     1       0.071  -7.760   4.633  0.00  0.00    +0.000 A 
ATOM     31  C   UNL     1       1.218  -8.356   5.125  0.00  0.00    +0.000 A 
ATOM     32  C   UNL     1       2.256  -7.573   5.595  0.00  0.00    +0.005 A 
ATOM     33  C   UNL     1       2.148  -6.195   5.572  0.00  0.00    -0.028 A 
ATOM     34  C   UNL     1       1.000  -5.600   5.085  0.00  0.00    +0.005 A 
ATOM     35  C   UNL     1      -0.036  -6.382   4.610  0.00  0.00    +0.000 A 
ENDBRANCH  29  33
ENDBRANCH  22  29
ENDBRANCH   1  22
TORSDOF 8
