REMARK  Name = ZINC01754852
REMARK  8 active torsions:
REMARK  status: ('A' for Active; 'I' for Inactive)
REMARK    1  A    between atoms: C_1  and  N_2
REMARK    2  A    between atoms: N_2  and  C_3
REMARK    3  A    between atoms: N_2  and  C_4
REMARK    4  A    between atoms: C_4  and  C_5
REMARK    5  A    between atoms: C_6  and  C_16
REMARK    6  A    between atoms: N_18  and  N_19
REMARK    7  A    between atoms: C_20  and  C_21
REMARK    8  A    between atoms: C_24  and  O_28
REMARK                            x       y       z     vdW  Elec       q    Type
REMARK                         _______ _______ _______ _____ _____    ______ ____
ROOT
ATOM      1  C   UNL     1      -1.359  -2.014  -0.120  0.00  0.00    +0.063 A 
ATOM      2  C   UNL     1      -1.387  -2.729  -1.283  0.00  0.00    +0.170 A 
ATOM      3  N   UNL     1      -1.357  -4.039  -0.978  0.00  0.00    -0.124 NA
ATOM      4  N   UNL     1      -1.312  -4.183   0.300  0.00  0.00    -0.058 NA
ATOM      5  N   UNL     1      -1.306  -2.911   0.890  0.00  0.00    -0.194 N 
ATOM      6  C   UNL     1      -1.258  -2.626   2.259  0.00  0.00    +0.240 A 
ATOM      7  C   UNL     1      -1.196  -3.614   3.340  0.00  0.00    +0.206 A 
ATOM      8  N   UNL     1      -1.164  -2.976   4.477  0.00  0.00    -0.032 NA
ATOM      9  O   UNL     1      -1.202  -1.588   4.197  0.00  0.00    -0.239 OA
ATOM     10  N   UNL     1      -1.255  -1.436   2.790  0.00  0.00    -0.027 NA
ATOM     11  N   UNL     1      -1.175  -4.995   3.180  0.00  0.00    -0.337 N 
ATOM     12  H   UNL     1      -1.202  -5.380   2.290  0.00  0.00    +0.144 HD
ATOM     13  H   UNL     1      -1.132  -5.572   3.958  0.00  0.00    +0.144 HD
ENDROOT
BRANCH   2  14
ATOM     14  C   UNL     1      -1.441  -2.162  -2.643  0.00  0.00    +0.285 C 
ATOM     15  O   UNL     1      -1.465  -0.956  -2.798  0.00  0.00    -0.267 OA
ATOM     16  N   UNL     1      -1.465  -2.980  -3.714  0.00  0.00    -0.202 N 
ATOM     17  H   UNL     1      -1.446  -3.942  -3.590  0.00  0.00    +0.178 HD
BRANCH  16  18
ATOM     18  N   UNL     1      -1.516  -2.441  -5.006  0.00  0.00    -0.187 NA
ATOM     19  C   UNL     1      -1.539  -3.229  -6.037  0.00  0.00    +0.138 C 
BRANCH  19  20
ATOM     20  C   UNL     1      -1.593  -2.662  -7.397  0.00  0.00    -0.003 A 
ATOM     21  C   UNL     1      -1.615  -1.276  -7.578  0.00  0.00    +0.028 A 
ATOM     22  C   UNL     1      -1.665  -0.750  -8.852  0.00  0.00    +0.061 A 
ATOM     23  C   UNL     1      -1.695  -1.595  -9.954  0.00  0.00    +0.145 A 
ATOM     24  C   UNL     1      -1.674  -2.973  -9.779  0.00  0.00    +0.061 A 
ATOM     25  C   UNL     1      -1.618  -3.508  -8.509  0.00  0.00    +0.028 A 
ATOM     26 BR   UNL     1      -1.715  -4.117 -11.284  0.00  0.00    -0.046 Br
ATOM     27 BR   UNL     1      -1.694   1.125  -9.098  0.00  0.00    -0.046 Br
BRANCH  23  28
ATOM     28  O   UNL     1      -1.746  -1.072 -11.207  0.00  0.00    -0.505 OA
ATOM     29  H   UNL     1      -0.878  -0.911 -11.601  0.00  0.00    +0.292 HD
ENDBRANCH  23  28
ENDBRANCH  19  20
ENDBRANCH  16  18
ENDBRANCH   2  14
BRANCH   1  30
ATOM     30  C   UNL     1      -1.376  -0.512   0.012  0.00  0.00    -0.021 C 
BRANCH  30  32
ATOM     31  C   UNL     1      -0.018   1.465   0.010  0.00  0.00    -0.096 C 
ATOM     32  N   UNL     1       0.002  -0.004   0.002  0.00  0.00    +0.380 N 
ATOM     33  C   UNL     1       0.713  -0.491   1.192  0.00  0.00    -0.096 C 
ATOM     34  H   UNL     1       0.474  -0.330  -0.828  0.00  0.00    -0.082 HD
ENDBRANCH  30  32
ENDBRANCH   1  30
TORSDOF 6
