REMARK  Name = ZINC60429591
REMARK  8 active torsions:
REMARK  status: ('A' for Active; 'I' for Inactive)
REMARK    1  A    between atoms: C_1  and  C_2
REMARK    2  A    between atoms: C_2  and  C_3
REMARK    3  A    between atoms: C_3  and  C_4
REMARK    4  A    between atoms: C_4  and  C_26
REMARK    5  A    between atoms: N_7  and  C_11
REMARK    6  A    between atoms: C_11  and  C_12
REMARK    7  A    between atoms: N_14  and  C_15
REMARK    8  A    between atoms: C_16  and  C_24
REMARK                            x       y       z     vdW  Elec       q    Type
REMARK                         _______ _______ _______ _____ _____    ______ ____
ROOT
ATOM      1  C   UNL     1       4.867  -2.974  -2.610  0.00  0.00    +0.236 C 
ATOM      2  O   UNL     1       4.790  -1.844  -2.175  0.00  0.00    -0.274 OA
ATOM      3  N   UNL     1       5.993  -3.383  -3.228  0.00  0.00    -0.278 N 
ATOM      4  H   UNL     1       6.054  -4.287  -3.575  0.00  0.00    +0.155 HD
ENDROOT
BRANCH   3   5
ATOM      5  C   UNL     1       7.064  -2.512  -3.367  0.00  0.00    +0.090 A 
ATOM      6  C   UNL     1       8.286  -2.755  -3.972  0.00  0.00    +0.084 A 
ATOM      7  C   UNL     1       9.248  -1.667  -3.988  0.00  0.00    -0.018 A 
ATOM      8  C   UNL     1       8.812  -0.535  -3.394  0.00  0.00    -0.004 A 
ATOM      9  S   UNL     1       7.174  -0.919  -2.846  0.00  0.00    -0.077 S 
ATOM     10  C   UNL     1       9.564   0.751  -3.247  0.00  0.00    +0.043 C 
ATOM     11  C   UNL     1      11.047   0.478  -3.537  0.00  0.00    +0.005 C 
ATOM     12  C   UNL     1      11.158  -0.330  -4.833  0.00  0.00    +0.005 C 
ATOM     13  C   UNL     1      10.636  -1.751  -4.607  0.00  0.00    +0.037 C 
BRANCH   6  14
ATOM     14  C   UNL     1       8.588  -4.026  -4.558  0.00  0.00    +0.102 C 
ATOM     15  N   UNL     1       8.828  -5.034  -5.023  0.00  0.00    -0.191 NA
ENDBRANCH   6  14
ENDBRANCH   3   5
BRANCH   1  16
ATOM     16  C   UNL     1       3.704  -3.919  -2.459  0.00  0.00    +0.214 C 
BRANCH  16  20
ATOM     17  C   UNL     1       0.739  -2.027  -1.265  0.00  0.00    +0.110 C 
ATOM     18  C   UNL     1       1.636  -2.542  -2.373  0.00  0.00    +0.247 C 
ATOM     19  O   UNL     1       1.504  -2.363  -3.565  0.00  0.00    -0.273 OA
ATOM     20  N   UNL     1       2.611  -3.241  -1.758  0.00  0.00    -0.215 N 
ATOM     21  C   UNL     1       2.456  -3.239  -0.429  0.00  0.00    +0.310 C 
ATOM     22  O   UNL     1       3.210  -3.802   0.339  0.00  0.00    -0.252 OA
ATOM     23  N   UNL     1       1.372  -2.544  -0.039  0.00  0.00    -0.285 N 
ATOM     24  C   UNL     1      -0.679  -2.583  -1.414  0.00  0.00    +0.041 C 
ATOM     25  H   UNL     1       1.067  -2.409   0.872  0.00  0.00    +0.151 HD
BRANCH  17  26
ATOM     26  C   UNL     1       0.718  -0.497  -1.257  0.00  0.00    +0.035 C 
BRANCH  26  28
ATOM     27  C   UNL     1      -0.019   1.526   0.010  0.00  0.00    +0.004 C 
ATOM     28  C   UNL     1       0.002  -0.004   0.002  0.00  0.00    -0.001 C 
ENDBRANCH  26  28
ENDBRANCH  17  26
ENDBRANCH  16  20
ENDBRANCH   1  16
TORSDOF 6
