REMARK  Name = ZINC36064500
REMARK  13 active torsions:
REMARK  status: ('A' for Active; 'I' for Inactive)
REMARK    1  A    between atoms: C_1  and  C_2
REMARK    2  A    between atoms: C_2  and  C_3
REMARK    3  A    between atoms: C_4  and  C_35
REMARK    4  A    between atoms: C_5  and  C_25
REMARK    5  A    between atoms: C_8  and  C_13
REMARK    6  A    between atoms: C_14  and  N_16
REMARK    7  A    between atoms: C_22  and  C_24
REMARK    8  A    between atoms: C_27  and  O_33
REMARK    9  A    between atoms: C_29  and  O_31
REMARK   10  A    between atoms: O_31  and  C_32
REMARK   11  A    between atoms: O_33  and  C_34
REMARK   12  A    between atoms: C_35  and  O_37
REMARK   13  A    between atoms: O_37  and  C_38
REMARK                            x       y       z     vdW  Elec       q    Type
REMARK                         _______ _______ _______ _____ _____    ______ ____
ROOT
ATOM      1  C   UNL     1       1.276  -1.546  -1.347  0.00  0.00    +0.056 C 
ATOM      2  C   UNL     1       2.652  -1.535  -1.475  0.00  0.00    +0.083 C 
ATOM      3  C   UNL     1       3.231  -1.555  -2.872  0.00  0.00    +0.150 C 
ATOM      4  N   UNL     1       2.266  -1.585  -4.004  0.00  0.00    -0.267 N 
ATOM      5  C   UNL     1       2.567  -1.607  -5.351  0.00  0.00    +0.048 C 
ATOM      6  C   UNL     1       1.535  -1.634  -6.223  0.00  0.00    +0.072 C 
ATOM      7  S   UNL     1       0.128  -1.627  -5.130  0.00  0.00    -0.060 S 
ATOM      8  C   UNL     1       0.943  -1.592  -3.663  0.00  0.00    +0.166 C 
ATOM      9  N   UNL     1       0.503  -1.578  -2.421  0.00  0.00    -0.229 NA
ENDROOT
BRANCH   3  10
ATOM     10  C   UNL     1       4.096  -0.332  -3.033  0.00  0.00    -0.015 A 
ATOM     11  C   UNL     1       3.513   0.917  -3.138  0.00  0.00    +0.051 A 
ATOM     12  C   UNL     1       4.308   2.045  -3.287  0.00  0.00    +0.124 A 
ATOM     13  C   UNL     1       5.687   1.918  -3.330  0.00  0.00    +0.091 A 
ATOM     14  C   UNL     1       6.270   0.665  -3.224  0.00  0.00    +0.124 A 
ATOM     15  C   UNL     1       5.471  -0.460  -3.070  0.00  0.00    +0.051 A 
BRANCH  14  16
ATOM     16  O   UNL     1       7.622   0.538  -3.267  0.00  0.00    -0.495 OA
ATOM     17  C   UNL     1       8.387   1.745  -3.300  0.00  0.00    +0.277 C 
ENDBRANCH  14  16
BRANCH  12  18
ATOM     18  O   UNL     1       3.733   3.272  -3.390  0.00  0.00    -0.495 OA
ATOM     19  C   UNL     1       4.612   4.389  -3.541  0.00  0.00    +0.277 C 
ENDBRANCH  12  18
ENDBRANCH   3  10
BRANCH   5  20
ATOM     20  C   UNL     1       3.960  -1.602  -5.820  0.00  0.00    +0.091 C 
ATOM     21  C   UNL     1       4.232  -1.797  -7.125  0.00  0.00    +0.241 C 
ATOM     22  O   UNL     1       3.221  -1.861  -8.026  0.00  0.00    -0.271 OA
BRANCH  21  23
ATOM     23  N   UNL     1       5.544  -1.931  -7.546  0.00  0.00    -0.295 N 
ATOM     24  C   UNL     1       6.564  -2.493  -6.650  0.00  0.00    +0.127 C 
ATOM     25  C   UNL     1       7.232  -3.681  -7.352  0.00  0.00    +0.126 C 
ATOM     26  N   UNL     1       7.630  -3.265  -8.704  0.00  0.00    -0.299 N 
ATOM     27  C   UNL     1       6.610  -2.703  -9.601  0.00  0.00    +0.126 C 
ATOM     28  C   UNL     1       5.940  -1.520  -8.901  0.00  0.00    +0.127 C 
ATOM     29  C   UNL     1       8.907  -3.396  -9.114  0.00  0.00    +0.213 C 
ATOM     30  O   UNL     1       9.740  -3.860  -8.365  0.00  0.00    -0.276 OA
ATOM     31  C   UNL     1       9.300  -2.964 -10.503  0.00  0.00    +0.109 C 
ENDBRANCH  21  23
ENDBRANCH   5  20
BRANCH   1  33
ATOM     32  C   UNL     1       0.536  -0.082   0.512  0.00  0.00    +0.010 C 
ATOM     33  C   UNL     1       0.651  -1.527   0.024  0.00  0.00    +0.053 C 
ENDBRANCH   1  33
BRANCH   2  34
ATOM     34  C   UNL     1       3.482  -1.505  -0.348  0.00  0.00    +0.339 C 
ATOM     35  O   UNL     1       2.998  -1.377   0.763  0.00  0.00    -0.245 OA
BRANCH  34  36
ATOM     36  O   UNL     1       4.821  -1.620  -0.492  0.00  0.00    -0.465 OA
ATOM     37  C   UNL     1       5.608  -1.582   0.700  0.00  0.00    +0.280 C 
ENDBRANCH  34  36
ENDBRANCH   2  34
TORSDOF 8
