REMARK  Name = ZINC36207665
REMARK  11 active torsions:
REMARK  status: ('A' for Active; 'I' for Inactive)
REMARK    1  A    between atoms: C_1  and  C_2
REMARK    2  A    between atoms: C_7  and  C_8
REMARK    3  A    between atoms: C_17  and  C_19
REMARK    4  A    between atoms: C_19  and  N_20
REMARK    5  A    between atoms: N_20  and  C_21
REMARK    6  A    between atoms: N_20  and  C_28
REMARK    7  A    between atoms: C_21  and  C_22
REMARK    8  A    between atoms: C_28  and  C_29
REMARK    9  A    between atoms: C_29  and  C_31
REMARK   10  A    between atoms: C_29  and  O_38
REMARK   11  A    between atoms: C_31  and  N_32
REMARK                            x       y       z     vdW  Elec       q    Type
REMARK                         _______ _______ _______ _____ _____    ______ ____
ROOT
ATOM      1  N   UNL     1      -3.886   4.099   5.842  0.00  0.00    +0.389 N 
ATOM      2  H   UNL     1      -3.044   4.647   5.936  0.00  0.00    -0.081 HD
ENDROOT
BRANCH   1   3
ATOM      3  C   UNL     1      -4.225   3.962   4.419  0.00  0.00    -0.003 C 
BRANCH   3  13
ATOM      4  C   UNL     1       0.406   1.968   1.759  0.00  0.00    +0.004 A 
ATOM      5  C   UNL     1       1.484   1.898   2.577  0.00  0.00    +0.056 A 
ATOM      6  S   UNL     1       0.858   2.491   4.137  0.00  0.00    -0.076 S 
ATOM      7  C   UNL     1      -0.820   2.815   3.660  0.00  0.00    +0.116 A 
ATOM      8  C   UNL     1      -0.854   2.462   2.301  0.00  0.00    +0.080 A 
ATOM      9  C   UNL     1      -2.117   2.632   1.648  0.00  0.00    +0.260 A 
ATOM     10  O   UNL     1      -2.247   2.348   0.469  0.00  0.00    -0.267 OA
ATOM     11  N   UNL     1      -3.158   3.109   2.354  0.00  0.00    -0.312 N 
ATOM     12  H   UNL     1      -4.016   3.227   1.917  0.00  0.00    +0.170 HD
ATOM     13  C   UNL     1      -3.031   3.430   3.668  0.00  0.00    +0.094 A 
ATOM     14  N   UNL     1      -1.895   3.277   4.293  0.00  0.00    -0.229 NA
BRANCH   4  21
ATOM     15  C   UNL     1       0.065   3.938  -0.332  0.00  0.00    +0.044 C 
ATOM     16  C   UNL     1       0.345   2.497  -0.676  0.00  0.00    -0.043 A 
ATOM     17  C   UNL     1       0.446   2.109  -1.997  0.00  0.00    +0.004 A 
ATOM     18  C   UNL     1       0.702   0.787  -2.314  0.00  0.00    +0.000 A 
ATOM     19  C   UNL     1       0.859  -0.153  -1.311  0.00  0.00    +0.001 A 
ATOM     20  C   UNL     1       0.759   0.224   0.013  0.00  0.00    +0.009 A 
ATOM     21  C   UNL     1       0.507   1.556   0.339  0.00  0.00    -0.014 A 
ENDBRANCH   4  21
ENDBRANCH   3  13
ENDBRANCH   1   3
BRANCH   1  22
ATOM     22  C   UNL     1      -3.672   2.768   6.425  0.00  0.00    -0.042 C 
BRANCH  22  23
ATOM     23  C   UNL     1      -4.860   1.891   6.125  0.00  0.00    -0.064 A 
ATOM     24  C   UNL     1      -5.970   1.925   6.948  0.00  0.00    +0.002 A 
ATOM     25  C   UNL     1      -7.060   1.120   6.673  0.00  0.00    +0.000 A 
ATOM     26  C   UNL     1      -7.040   0.282   5.574  0.00  0.00    +0.000 A 
ATOM     27  C   UNL     1      -5.930   0.249   4.750  0.00  0.00    +0.000 A 
ATOM     28  C   UNL     1      -4.842   1.056   5.023  0.00  0.00    +0.002 A 
ENDBRANCH  22  23
ENDBRANCH   1  22
BRANCH   1  29
ATOM     29  C   UNL     1      -4.988   4.770   6.544  0.00  0.00    -0.045 C 
BRANCH  29  30
ATOM     30  C   UNL     1      -4.457   5.418   7.825  0.00  0.00    +0.112 C 
BRANCH  30  31
ATOM     31  O   UNL     1      -3.907   4.410   8.675  0.00  0.00    -0.392 OA
ATOM     32  H   UNL     1      -4.541   3.730   8.940  0.00  0.00    +0.210 HD
ENDBRANCH  30  31
BRANCH  30  33
ATOM     33  C   UNL     1      -5.602   6.128   8.550  0.00  0.00    +0.114 C 
BRANCH  33  34
ATOM     34  N   UNL     1      -5.074   6.839   9.722  0.00  0.00    -0.296 NA
ATOM     35  C   UNL     1      -6.144   7.135  10.685  0.00  0.00    +0.112 C 
ATOM     36  C   UNL     1      -5.541   7.821  11.914  0.00  0.00    +0.175 C 
ATOM     37  O   UNL     1      -4.843   8.999  11.502  0.00  0.00    -0.377 OA
ATOM     38  C   UNL     1      -3.793   8.747  10.563  0.00  0.00    +0.175 C 
ATOM     39  C   UNL     1      -4.378   8.070   9.321  0.00  0.00    +0.112 C 
ENDBRANCH  33  34
ENDBRANCH  30  33
ENDBRANCH  29  30
ENDBRANCH   1  29
TORSDOF 10
