REMARK  Name = ZINC57386702
REMARK  9 active torsions:
REMARK  status: ('A' for Active; 'I' for Inactive)
REMARK    1  A    between atoms: C_1  and  C_2
REMARK    2  A    between atoms: C_7  and  C_8
REMARK    3  A    between atoms: N_10  and  N_11
REMARK    4  A    between atoms: C_12  and  C_14
REMARK    5  A    between atoms: C_14  and  C_16
REMARK    6  A    between atoms: C_14  and  N_20
REMARK    7  A    between atoms: C_16  and  C_17
REMARK    8  A    between atoms: C_17  and  C_18
REMARK    9  A    between atoms: C_17  and  C_19
REMARK                            x       y       z     vdW  Elec       q    Type
REMARK                         _______ _______ _______ _____ _____    ______ ____
ROOT
ATOM      1  C   UNL     1       0.753   0.200   7.177  0.00  0.00    +0.171 C 
ENDROOT
BRANCH   1   2
ATOM      2  N   UNL     1       1.193  -0.711   8.236  0.00  0.00    -0.230 N 
ATOM      3  C   UNL     1       2.418  -0.652   8.794  0.00  0.00    +0.227 C 
ATOM      4  O   UNL     1       3.225   0.242   8.663  0.00  0.00    -0.275 OA
ATOM      5  C   UNL     1       2.601  -1.932   9.627  0.00  0.00    +0.091 C 
ATOM      6  C   UNL     1       3.175  -2.958   8.647  0.00  0.00    +0.040 C 
ATOM      7  C   UNL     1       2.703  -4.347   8.902  0.00  0.00    -0.030 C 
ATOM      8  C   UNL     1       1.669  -4.657   9.612  0.00  0.00    -0.030 C 
ATOM      9  C   UNL     1       0.827  -3.644  10.322  0.00  0.00    +0.040 C 
ATOM     10  C   UNL     1       1.126  -2.222   9.950  0.00  0.00    +0.091 C 
ATOM     11  C   UNL     1       0.406  -1.683   8.748  0.00  0.00    +0.227 C 
ATOM     12  O   UNL     1      -0.668  -2.050   8.320  0.00  0.00    -0.275 OA
ENDBRANCH   1   2
BRANCH   1  14
ATOM     13  N   UNL     1       0.141   0.059   4.784  0.00  0.00    -0.233 N 
ATOM     14  C   UNL     1       0.548  -0.576   5.901  0.00  0.00    +0.250 C 
ATOM     15  O   UNL     1       0.750  -1.771   5.879  0.00  0.00    -0.272 OA
ATOM     16  H   UNL     1      -0.021   1.016   4.802  0.00  0.00    +0.173 HD
BRANCH  13  19
ATOM     17  C   UNL     1      -0.457  -0.026   2.481  0.00  0.00    +0.260 C 
ATOM     18  O   UNL     1      -0.660   1.172   2.503  0.00  0.00    -0.269 OA
ATOM     19  N   UNL     1      -0.050  -0.661   3.598  0.00  0.00    -0.230 N 
ATOM     20  H   UNL     1       0.112  -1.618   3.580  0.00  0.00    +0.173 HD
BRANCH  17  27
ATOM     21  C   UNL     1      -1.201   1.373   0.060  0.00  0.00    +0.044 C 
ATOM     22  C   UNL     1      -1.017  -0.123   0.056  0.00  0.00    -0.038 A 
ATOM     23  C   UNL     1      -1.198  -0.838  -1.110  0.00  0.00    +0.004 A 
ATOM     24  C   UNL     1      -1.030  -2.211  -1.116  0.00  0.00    +0.000 A 
ATOM     25  C   UNL     1      -0.679  -2.876   0.045  0.00  0.00    +0.001 A 
ATOM     26  C   UNL     1      -0.494  -2.173   1.218  0.00  0.00    +0.013 A 
ATOM     27  C   UNL     1      -0.658  -0.787   1.230  0.00  0.00    +0.041 A 
ENDBRANCH  17  27
ENDBRANCH  13  19
ENDBRANCH   1  14
BRANCH   1  28
ATOM     28  C   UNL     1      -0.564   0.862   7.588  0.00  0.00    +0.035 C 
BRANCH  28  29
ATOM     29  C   UNL     1      -0.316   1.799   8.771  0.00  0.00    -0.015 C 
ATOM     30  C   UNL     1      -1.578   2.619   9.046  0.00  0.00    +0.007 C 
ATOM     31  C   UNL     1       0.037   0.974  10.010  0.00  0.00    +0.007 C 
ENDBRANCH  28  29
ENDBRANCH   1  28
TORSDOF 6
