REMARK  Name = ZINC30698443
REMARK  6 active torsions:
REMARK  status: ('A' for Active; 'I' for Inactive)
REMARK    1  A    between atoms: C_4  and  C_7
REMARK    2  A    between atoms: C_10  and  S_13
REMARK    3  A    between atoms: S_13  and  C_14
REMARK    4  A    between atoms: C_14  and  C_15
REMARK    5  A    between atoms: C_18  and  C_20
REMARK    6  A    between atoms: N_22  and  C_23
REMARK                            x       y       z     vdW  Elec       q    Type
REMARK                         _______ _______ _______ _____ _____    ______ ____
ROOT
ATOM      1  C   UNL     1       2.861  -6.790  -0.487  0.00  0.00    +0.113 A 
ATOM      2  N   UNL     1       1.635  -6.306  -0.382  0.00  0.00    -0.145 NA
ATOM      3  N   UNL     1       1.412  -5.069  -0.270  0.00  0.00    -0.136 NA
ATOM      4  C   UNL     1       2.422  -4.204  -0.256  0.00  0.00    +0.187 A 
ATOM      5  S   UNL     1       3.802  -5.329  -0.428  0.00  0.00    -0.045 S 
ENDROOT
BRANCH   4   6
ATOM      6  C   UNL     1       2.408  -2.736  -0.137  0.00  0.00    +0.275 C 
ATOM      7  O   UNL     1       3.454  -2.115  -0.144  0.00  0.00    -0.268 OA
ATOM      8  N   UNL     1       1.236  -2.080  -0.021  0.00  0.00    -0.280 N 
ATOM      9  H   UNL     1       0.297  -2.645   0.073  0.00  0.00    +0.155 HD
BRANCH   8  10
ATOM     10  C   UNL     1       1.214  -0.681  -0.019  0.00  0.00    +0.034 A 
ATOM     11  C   UNL     1       2.137   0.030  -0.775  0.00  0.00    +0.026 A 
ATOM     12  C   UNL     1       2.113   1.411  -0.773  0.00  0.00    +0.040 A 
ATOM     13  C   UNL     1       1.170   2.087  -0.017  0.00  0.00    +0.124 A 
ATOM     14  C   UNL     1       0.249   1.380   0.738  0.00  0.00    +0.040 A 
ATOM     15  C   UNL     1       0.269  -0.001   0.738  0.00  0.00    +0.026 A 
ATOM     16  F   UNL     1       1.149   3.437  -0.016  0.00  0.00    -0.205 F 
ENDBRANCH   8  10
ENDBRANCH   4   6
BRANCH   1  17
ATOM     17  C   UNL     1       3.318  -8.219  -0.627  0.00  0.00    +0.142 C 
BRANCH  17  18
ATOM     18  S   UNL     1       3.408  -8.655  -2.382  0.00  0.00    -0.080 S 
BRANCH  18  22
ATOM     19  C   UNL     1       4.595 -12.363  -2.714  0.00  0.00    +0.182 A 
ATOM     20  N   UNL     1       4.191 -11.181  -3.292  0.00  0.00    -0.201 NA
ATOM     21  H   UNL     1       4.126 -10.653  -0.097  0.00  0.00    +0.191 HD
ATOM     22  C   UNL     1       3.951 -10.326  -2.255  0.00  0.00    +0.185 A 
ATOM     23  N   UNL     1       4.200 -10.983  -1.144  0.00  0.00    -0.253 N 
ATOM     24  N   UNL     1       4.583 -12.179  -1.414  0.00  0.00    -0.152 NA
BRANCH  19  28
ATOM     25  C   UNL     1       5.677 -15.930  -4.750  0.00  0.00    +0.000 A 
ATOM     26  C   UNL     1       5.704 -15.891  -3.368  0.00  0.00    +0.001 A 
ATOM     27  C   UNL     1       5.354 -14.735  -2.700  0.00  0.00    +0.011 A 
ATOM     28  C   UNL     1       4.972 -13.604  -3.423  0.00  0.00    +0.021 A 
ATOM     29  C   UNL     1       4.942 -13.652  -4.817  0.00  0.00    +0.011 A 
ATOM     30  C   UNL     1       5.299 -14.812  -5.473  0.00  0.00    +0.001 A 
ENDBRANCH  19  28
ENDBRANCH  18  22
ENDBRANCH  17  18
ENDBRANCH   1  17
TORSDOF 6
