REMARK  Name = ZINC09076543
REMARK  7 active torsions:
REMARK  status: ('A' for Active; 'I' for Inactive)
REMARK    1  A    between atoms: C_1  and  C_2
REMARK    2  A    between atoms: C_2  and  C_34
REMARK    3  A    between atoms: C_6  and  C_23
REMARK    4  A    between atoms: C_8  and  C_21
REMARK    5  A    between atoms: C_9  and  N_20
REMARK    6  A    between atoms: N_10  and  C_11
REMARK    7  A    between atoms: C_14  and  N_17
REMARK                            x       y       z     vdW  Elec       q    Type
REMARK                         _______ _______ _______ _____ _____    ______ ____
ROOT
ATOM      1  C   UNL     1       0.031   1.530  -0.460  0.00  0.00    +0.011 C 
ATOM      2  C   UNL     1       0.042   0.003  -0.360  0.00  0.00    -0.023 C 
ATOM      3  C   UNL     1      -1.389  -0.510  -0.180  0.00  0.00    +0.058 C 
ATOM      4  C   UNL     1      -1.384  -2.018  -0.132  0.00  0.00    +0.025 C 
ATOM      5  C   UNL     1      -0.462  -2.732  -0.812  0.00  0.00    +0.025 C 
ATOM      6  C   UNL     1      -0.470  -4.239  -0.779  0.00  0.00    +0.102 C 
ATOM      7  C   UNL     1      -1.272  -4.751   0.381  0.00  0.00    +0.077 C 
ATOM      8  C   UNL     1      -2.162  -3.953   1.026  0.00  0.00    +0.107 C 
ATOM      9  N   UNL     1      -2.338  -2.648   0.623  0.00  0.00    -0.260 N 
ATOM     10  C   UNL     1       0.531  -2.093  -1.575  0.00  0.00    +0.162 C 
ATOM     11  O   UNL     1       1.339  -2.765  -2.185  0.00  0.00    -0.292 OA
ATOM     12  C   UNL     1       0.617  -0.593  -1.649  0.00  0.00    +0.086 C 
ATOM     13  C   UNL     1       0.897  -0.428   0.833  0.00  0.00    +0.011 C 
ENDROOT
BRANCH   6  14
ATOM     14  C   UNL     1      -1.069  -4.759  -2.061  0.00  0.00    +0.019 A 
ATOM     15  C   UNL     1      -0.277  -5.438  -2.970  0.00  0.00    +0.129 A 
ATOM     16  C   UNL     1      -0.828  -5.914  -4.148  0.00  0.00    +0.039 A 
ATOM     17  C   UNL     1      -2.169  -5.712  -4.414  0.00  0.00    +0.004 A 
ATOM     18  C   UNL     1      -2.960  -5.034  -3.507  0.00  0.00    +0.020 A 
ATOM     19  C   UNL     1      -2.412  -4.562  -2.327  0.00  0.00    +0.048 A 
ATOM     20 CL   UNL     1      -3.408  -3.717  -1.183  0.00  0.00    -0.083 Cl
ATOM     21  F   UNL     1       1.034  -5.635  -2.710  0.00  0.00    -0.205 F 
ENDBRANCH   6  14
BRANCH   9  22
ATOM     22  C   UNL     1      -3.500  -1.960   0.989  0.00  0.00    +0.040 A 
ATOM     23  C   UNL     1      -3.810  -1.781   2.331  0.00  0.00    +0.026 A 
ATOM     24  C   UNL     1      -4.956  -1.098   2.688  0.00  0.00    +0.034 A 
ATOM     25  C   UNL     1      -5.799  -0.600   1.712  0.00  0.00    +0.126 A 
ATOM     26  C   UNL     1      -5.495  -0.780   0.374  0.00  0.00    +0.034 A 
ATOM     27  C   UNL     1      -4.349  -1.458   0.010  0.00  0.00    +0.026 A 
BRANCH  25  28
ATOM     28  N   UNL     1      -7.029   0.128   2.098  0.00  0.00    +0.056 N 
ATOM     29  O   UNL     1      -7.772   0.567   1.239  0.00  0.00    -0.126 OA
ATOM     30  O   UNL     1      -7.297   0.287   3.276  0.00  0.00    -0.126 OA
ENDBRANCH  25  28
ENDBRANCH   9  22
BRANCH   8  31
ATOM     31  N   UNL     1      -2.888  -4.448   2.082  0.00  0.00    -0.345 N 
ATOM     32  H   UNL     1      -2.705  -5.339   2.421  0.00  0.00    +0.144 HD
ATOM     33  H   UNL     1      -3.583  -3.908   2.489  0.00  0.00    +0.144 HD
ENDBRANCH   8  31
BRANCH   7  34
ATOM     34  C   UNL     1      -1.096  -6.104   0.817  0.00  0.00    +0.099 C 
ATOM     35  N   UNL     1      -0.956  -7.177   1.162  0.00  0.00    -0.191 NA
ENDBRANCH   7  34
TORSDOF 5
