REMARK  Name = ZINC51734125
REMARK  5 active torsions:
REMARK  status: ('A' for Active; 'I' for Inactive)
REMARK    1  A    between atoms: C_1  and  C_2
REMARK    2  A    between atoms: C_7  and  C_10
REMARK    3  A    between atoms: C_11  and  C_13
REMARK    4  A    between atoms: C_13  and  C_14
REMARK    5  A    between atoms: C_14  and  N_16
REMARK                            x       y       z     vdW  Elec       q    Type
REMARK                         _______ _______ _______ _____ _____    ______ ____
ROOT
ATOM      1  C   UNL     1      -0.425   1.529  -0.391  0.00  0.00    +0.007 C 
ATOM      2  C   UNL     1      -0.057   0.057  -0.196  0.00  0.00    -0.011 C 
ATOM      3  C   UNL     1       0.714  -0.442  -1.421  0.00  0.00    +0.022 C 
ATOM      4  C   UNL     1       1.050  -1.925  -1.238  0.00  0.00    +0.108 C 
ATOM      5  N   UNL     1       1.764  -2.095   0.035  0.00  0.00    -0.298 N 
ATOM      6  C   UNL     1       1.152  -1.569   1.263  0.00  0.00    +0.073 C 
ATOM      7  C   UNL     1       0.815  -0.090   1.052  0.00  0.00    +0.025 C 
ATOM      8  C   UNL     1       2.135  -1.714   2.428  0.00  0.00    +0.028 C 
ATOM      9  C   UNL     1       2.957  -2.720   0.075  0.00  0.00    +0.222 C 
ATOM     10  O   UNL     1       3.568  -2.794   1.120  0.00  0.00    -0.275 OA
ENDROOT
BRANCH   9  11
ATOM     11  C   UNL     1       3.531  -3.329  -1.178  0.00  0.00    +0.154 C 
BRANCH  11  12
ATOM     12  C   UNL     1       4.735  -4.164  -0.825  0.00  0.00    +0.055 C 
ATOM     13  S   UNL     1       5.100  -4.433   0.709  0.00  0.00    -0.040 S 
BRANCH  12  14
ATOM     14  N   UNL     1       5.505  -4.684  -1.802  0.00  0.00    -0.355 N 
ATOM     15  H   UNL     1       5.284  -4.521  -2.732  0.00  0.00    +0.143 HD
ATOM     16  H   UNL     1       6.280  -5.221  -1.574  0.00  0.00    +0.143 HD
ENDBRANCH  12  14
ENDBRANCH  11  12
ENDBRANCH   9  11
TORSDOF 3
