REMARK  Name = ZINC18434714
REMARK  9 active torsions:
REMARK  status: ('A' for Active; 'I' for Inactive)
REMARK    1  A    between atoms: C_1  and  C_2
REMARK    2  A    between atoms: C_5  and  O_33
REMARK    3  A    between atoms: C_6  and  N_8
REMARK    4  A    between atoms: C_18  and  S_19
REMARK    5  A    between atoms: S_19  and  C_20
REMARK    6  A    between atoms: C_20  and  C_22
REMARK    7  A    between atoms: C_20  and  C_23
REMARK    8  A    between atoms: C_28  and  C_31
REMARK    9  A    between atoms: O_33  and  C_34
REMARK                            x       y       z     vdW  Elec       q    Type
REMARK                         _______ _______ _______ _____ _____    ______ ____
ROOT
ATOM      1  N   UNL     1       0.951  -7.902   0.978  0.00  0.00    -0.252 N 
ATOM      2  C   UNL     1       1.675  -9.044   1.013  0.00  0.00    +0.267 A 
ATOM      3  O   UNL     1       1.175 -10.096   1.369  0.00  0.00    -0.267 OA
ATOM      4  C   UNL     1       3.084  -8.971   0.605  0.00  0.00    +0.065 A 
ATOM      5  C   UNL     1       3.910 -10.094   0.608  0.00  0.00    +0.017 A 
ATOM      6  C   UNL     1       5.215  -9.975   0.220  0.00  0.00    +0.021 A 
ATOM      7  C   UNL     1       5.729  -8.746  -0.177  0.00  0.00    +0.043 A 
ATOM      8  C   UNL     1       4.935  -7.620  -0.190  0.00  0.00    +0.048 A 
ATOM      9  C   UNL     1       3.597  -7.716   0.203  0.00  0.00    +0.080 A 
ATOM     10  N   UNL     1       2.779  -6.638   0.202  0.00  0.00    -0.223 NA
ATOM     11  C   UNL     1       1.526  -6.728   0.575  0.00  0.00    +0.178 A 
ATOM     12 CL   UNL     1       7.391  -8.628  -0.663  0.00  0.00    -0.083 Cl
ENDROOT
BRANCH   1  18
ATOM     13  C   UNL     1      -3.781  -8.449  -0.241  0.00  0.00    +0.044 C 
ATOM     14  C   UNL     1      -2.713  -8.183   0.787  0.00  0.00    -0.048 A 
ATOM     15  C   UNL     1      -3.065  -7.958   2.106  0.00  0.00    +0.007 A 
ATOM     16  C   UNL     1      -2.090  -7.715   3.054  0.00  0.00    +0.048 A 
ATOM     17  C   UNL     1      -0.754  -7.694   2.685  0.00  0.00    +0.144 A 
ATOM     18  C   UNL     1      -0.398  -7.921   1.357  0.00  0.00    +0.094 A 
ATOM     19  C   UNL     1      -1.384  -8.159   0.410  0.00  0.00    +0.033 A 
BRANCH  17  20
ATOM     20  O   UNL     1       0.207  -7.454   3.616  0.00  0.00    -0.493 OA
ATOM     21  C   UNL     1      -0.231  -7.231   4.958  0.00  0.00    +0.277 C 
ENDBRANCH  17  20
ENDBRANCH   1  18
BRANCH  11  22
ATOM     22  S   UNL     1       0.534  -5.272   0.549  0.00  0.00    -0.075 S 
BRANCH  22  23
ATOM     23  C   UNL     1       1.754  -4.071  -0.039  0.00  0.00    +0.137 C 
ATOM     24  C   UNL     1       2.175  -4.429  -1.466  0.00  0.00    +0.029 C 
BRANCH  23  25
ATOM     25  C   UNL     1       1.148  -2.691  -0.025  0.00  0.00    +0.231 C 
ATOM     26  O   UNL     1      -0.057  -2.559  -0.013  0.00  0.00    -0.274 OA
ATOM     27  N   UNL     1       1.946  -1.605  -0.026  0.00  0.00    -0.267 N 
ATOM     28  C   UNL     1       1.385  -0.328  -0.013  0.00  0.00    +0.168 A 
ATOM     29  C   UNL     1       0.002  -0.004   0.002  0.00  0.00    +0.091 A 
ATOM     30  C   UNL     1      -0.016   1.348   0.009  0.00  0.00    +0.136 A 
ATOM     31  O   UNL     1       1.263   1.749  -0.001  0.00  0.00    -0.358 OA
ATOM     32  N   UNL     1       2.026   0.811  -0.013  0.00  0.00    -0.063 NA
ATOM     33  C   UNL     1      -1.237   2.232   0.020  0.00  0.00    +0.089 C 
ATOM     34  H   UNL     1       2.910  -1.711  -0.035  0.00  0.00    +0.156 HD
ENDBRANCH  23  25
ENDBRANCH  22  23
ENDBRANCH  11  22
TORSDOF 5
