REMARK  Name = ZINC15961474
REMARK  15 active torsions:
REMARK  status: ('A' for Active; 'I' for Inactive)
REMARK    1  A    between atoms: C_1  and  C_2
REMARK    2  A    between atoms: C_2  and  C_3
REMARK    3  A    between atoms: C_3  and  N_4
REMARK    4  A    between atoms: N_4  and  C_5
REMARK    5  A    between atoms: N_4  and  C_8
REMARK    6  A    between atoms: C_5  and  C_6
REMARK    7  A    between atoms: C_6  and  C_7
REMARK    8  A    between atoms: C_8  and  C_9
REMARK    9  A    between atoms: C_9  and  C_10
REMARK   10  A    between atoms: C_10  and  N_11
REMARK   11  A    between atoms: N_13  and  C_14
REMARK   12  A    between atoms: C_20  and  C_32
REMARK   13  A    between atoms: C_22  and  N_24
REMARK   14  A    between atoms: N_27  and  C_30
REMARK   15  A    between atoms: C_30  and  C_31
REMARK                            x       y       z     vdW  Elec       q    Type
REMARK                         _______ _______ _______ _____ _____    ______ ____
ROOT
ATOM      1  C   UNL     1       3.295  -9.309  -5.218  0.00  0.00    +0.033 A 
ATOM      2  C   UNL     1       4.175  -8.608  -6.050  0.00  0.00    +0.025 A 
ATOM      3  C   UNL     1       4.883  -9.249  -7.018  0.00  0.00    +0.030 A 
ATOM      4  C   UNL     1       4.736 -10.636  -7.194  0.00  0.00    +0.073 A 
ATOM      5  C   UNL     1       3.847 -11.351  -6.356  0.00  0.00    +0.005 A 
ATOM      6  C   UNL     1       3.131 -10.669  -5.360  0.00  0.00    +0.033 A 
ATOM      7  C   UNL     1       3.702 -12.742  -6.536  0.00  0.00    -0.038 A 
ATOM      8  C   UNL     1       4.429 -13.345  -7.517  0.00  0.00    +0.047 A 
ATOM      9  C   UNL     1       5.293 -12.582  -8.315  0.00  0.00    +0.122 A 
ATOM     10  N   UNL     1       5.424 -11.283  -8.142  0.00  0.00    -0.232 NA
ATOM     11  C   UNL     1       2.767 -13.541  -5.665  0.00  0.00    +0.044 C 
ENDROOT
BRANCH   9  12
ATOM     12  N   UNL     1       6.028 -13.210  -9.311  0.00  0.00    -0.319 N 
ATOM     13  C   UNL     1       7.109 -12.502 -10.014  0.00  0.00    +0.088 C 
ATOM     14  C   UNL     1       8.363 -13.383  -9.988  0.00  0.00    -0.060 C 
ATOM     15  N   UNL     1       8.044 -14.704 -10.541  0.00  0.00    +0.382 N 
ATOM     16  C   UNL     1       7.066 -15.384  -9.682  0.00  0.00    -0.060 C 
ATOM     17  C   UNL     1       5.752 -14.605  -9.689  0.00  0.00    +0.088 C 
ATOM     18  H   UNL     1       7.657 -14.595 -11.467  0.00  0.00    -0.082 HD
BRANCH  15  19
ATOM     19  C   UNL     1       9.269 -15.510 -10.618  0.00  0.00    -0.082 C 
ATOM     20  C   UNL     1       8.963 -16.841 -11.309  0.00  0.00    -0.017 C 
ENDBRANCH  15  19
ENDBRANCH   9  12
BRANCH   1  23
ATOM     21  N   UNL     1       1.936  -6.498  -3.404  0.00  0.00    -0.367 N 
ATOM     22  C   UNL     1       2.157  -7.341  -4.456  0.00  0.00    +0.143 C 
ATOM     23  N   UNL     1       2.579  -8.623  -4.230  0.00  0.00    -0.295 N 
ATOM     24  S   UNL     1       1.912  -6.811  -6.010  0.00  0.00    -0.016 SA
ATOM     25  H   UNL     1       2.383  -9.056  -3.385  0.00  0.00    +0.154 HD
ATOM     26  H   UNL     1       2.079  -6.809  -2.496  0.00  0.00    +0.161 HD
BRANCH  21  27
ATOM     27  C   UNL     1       1.484  -5.126  -3.646  0.00  0.00    +0.112 C 
BRANCH  27  28
ATOM     28  C   UNL     1       1.314  -4.401  -2.310  0.00  0.00    +0.002 C 
BRANCH  28  29
ATOM     29  C   UNL     1       0.842  -2.968  -2.563  0.00  0.00    -0.077 C 
BRANCH  29  30
ATOM     30  N   UNL     1       0.563  -2.311  -1.279  0.00  0.00    +0.380 N 
ATOM     31  H   UNL     1      -0.139  -2.835  -0.779  0.00  0.00    -0.082 HD
BRANCH  30  32
ATOM     32  C   UNL     1       1.794  -2.253  -0.480  0.00  0.00    -0.079 C 
BRANCH  32  34
ATOM     33  C   UNL     1       2.760  -1.623   1.735  0.00  0.00    +0.002 C 
ATOM     34  C   UNL     1       1.478  -1.682   0.903  0.00  0.00    -0.022 C 
ENDBRANCH  32  34
ENDBRANCH  30  32
BRANCH  30  35
ATOM     35  C   UNL     1       0.074  -0.947  -1.524  0.00  0.00    -0.079 C 
BRANCH  35  36
ATOM     36  C   UNL     1      -1.299  -1.011  -2.197  0.00  0.00    -0.022 C 
ATOM     37  C   UNL     1      -1.848   0.407  -2.370  0.00  0.00    +0.002 C 
ENDBRANCH  35  36
ENDBRANCH  30  35
ENDBRANCH  29  30
ENDBRANCH  28  29
ENDBRANCH  27  28
ENDBRANCH  21  27
ENDBRANCH   1  23
TORSDOF 11
