REMARK  Name = ZINC03375668
REMARK  7 active torsions:
REMARK  status: ('A' for Active; 'I' for Inactive)
REMARK    1  A    between atoms: C_1  and  N_2
REMARK    2  A    between atoms: C_6  and  C_8
REMARK    3  A    between atoms: C_8  and  S_9
REMARK    4  A    between atoms: S_9  and  C_10
REMARK    5  A    between atoms: C_13  and  C_22
REMARK    6  A    between atoms: N_14  and  C_15
REMARK    7  A    between atoms: C_15  and  C_16
REMARK                            x       y       z     vdW  Elec       q    Type
REMARK                         _______ _______ _______ _____ _____    ______ ____
ROOT
ATOM      1  C   UNL     1      -3.825  -6.623  -0.038  0.00  0.00    +0.192 A 
ATOM      2  N   UNL     1      -2.680  -7.249  -0.196  0.00  0.00    -0.122 NA
ATOM      3  N   UNL     1      -2.854  -8.519  -0.095  0.00  0.00    -0.128 NA
ATOM      4  C   UNL     1      -4.120  -8.781   0.132  0.00  0.00    +0.165 A 
ATOM      5  N   UNL     1      -4.780  -7.575   0.180  0.00  0.00    -0.300 N 
ENDROOT
BRANCH   4   6
ATOM      6  C   UNL     1      -4.723 -10.120   0.308  0.00  0.00    +0.019 A 
ATOM      7  C   UNL     1      -6.099 -10.295   0.151  0.00  0.00    +0.014 A 
ATOM      8  C   UNL     1      -6.655 -11.546   0.316  0.00  0.00    +0.039 A 
ATOM      9  C   UNL     1      -5.851 -12.628   0.637  0.00  0.00    +0.123 A 
ATOM     10  C   UNL     1      -4.484 -12.460   0.793  0.00  0.00    +0.039 A 
ATOM     11  C   UNL     1      -3.917 -11.214   0.626  0.00  0.00    +0.014 A 
ATOM     12  F   UNL     1      -6.401 -13.851   0.797  0.00  0.00    -0.205 F 
ENDBRANCH   4   6
BRANCH   1  13
ATOM     13  S   UNL     1      -4.079  -4.880  -0.092  0.00  0.00    -0.077 S 
BRANCH  13  14
ATOM     14  C   UNL     1      -2.426  -4.206  -0.416  0.00  0.00    +0.173 C 
BRANCH  14  20
ATOM     15  C   UNL     1      -0.415   1.545  -1.087  0.00  0.00    +0.129 C 
ATOM     16  N   UNL     1      -0.341   0.084  -1.018  0.00  0.00    -0.302 N 
ATOM     17  C   UNL     1      -1.456  -0.637  -0.784  0.00  0.00    +0.306 C 
ATOM     18  O   UNL     1      -2.522  -0.075  -0.631  0.00  0.00    -0.252 OA
ATOM     19  N   UNL     1      -1.388  -1.982  -0.721  0.00  0.00    -0.240 N 
ATOM     20  C   UNL     1      -2.502  -2.703  -0.487  0.00  0.00    +0.231 C 
ATOM     21  O   UNL     1      -3.566  -2.142  -0.335  0.00  0.00    -0.274 OA
ATOM     22  H   UNL     1       0.510  -0.365  -1.140  0.00  0.00    +0.150 HD
ATOM     23  H   UNL     1      -0.537  -2.430  -0.843  0.00  0.00    +0.159 HD
ENDBRANCH  14  20
ENDBRANCH  13  14
ENDBRANCH   1  13
BRANCH   5  24
ATOM     24  C   UNL     1      -6.210  -7.356   0.416  0.00  0.00    +0.157 C 
BRANCH  24  25
ATOM     25  C   UNL     1      -6.944  -7.299  -0.925  0.00  0.00    +0.138 C 
ATOM     26  C   UNL     1      -8.470  -7.159  -0.697  0.00  0.00    +0.035 C 
ATOM     27  C   UNL     1      -8.908  -6.490  -2.028  0.00  0.00    +0.031 C 
ATOM     28  C   UNL     1      -7.694  -5.596  -2.360  0.00  0.00    +0.160 C 
ATOM     29  O   UNL     1      -6.562  -6.121  -1.653  0.00  0.00    -0.375 OA
ENDBRANCH  24  25
ENDBRANCH   5  24
TORSDOF 6
