REMARK  Name = ZINC21093343
REMARK  6 active torsions:
REMARK  status: ('A' for Active; 'I' for Inactive)
REMARK    1  A    between atoms: C_4  and  C_7
REMARK    2  A    between atoms: C_11  and  C_17
REMARK    3  A    between atoms: C_17  and  S_18
REMARK    4  A    between atoms: S_18  and  C_19
REMARK    5  A    between atoms: C_24  and  N_25
REMARK    6  A    between atoms: C_26  and  C_28
REMARK                            x       y       z     vdW  Elec       q    Type
REMARK                         _______ _______ _______ _____ _____    ______ ____
ROOT
ATOM      1  C   UNL     1       9.435  -1.966  -0.077  0.00  0.00    +0.130 C 
ENDROOT
BRANCH   1   6
ATOM      2  C   UNL     1       3.708  -0.716  -0.061  0.00  0.00    +0.184 A 
ATOM      3  N   UNL     1       4.910  -0.135  -0.061  0.00  0.00    -0.189 NA
ATOM      4  C   UNL     1       5.856  -1.066  -0.067  0.00  0.00    +0.257 A 
ATOM      5  N   UNL     1       7.193  -0.992  -0.069  0.00  0.00    -0.215 NA
ATOM      6  C   UNL     1       7.932  -2.081  -0.074  0.00  0.00    +0.060 A 
ATOM      7  C   UNL     1       7.334  -3.340  -0.078  0.00  0.00    +0.096 A 
ATOM      8  C   UNL     1       5.968  -3.430  -0.076  0.00  0.00    +0.276 A 
ATOM      9  O   UNL     1       5.359  -4.638  -0.080  0.00  0.00    -0.266 OA
ATOM     10  N   UNL     1       5.232  -2.283  -0.070  0.00  0.00    -0.159 N 
ATOM     11  N   UNL     1       3.855  -2.026  -0.061  0.00  0.00    -0.140 NA
BRANCH   2  15
ATOM     12  C   UNL     1      -0.014   1.341  -0.044  0.00  0.00    +0.000 A 
ATOM     13  C   UNL     1       1.169   2.057  -0.049  0.00  0.00    +0.001 A 
ATOM     14  C   UNL     1       2.380   1.395  -0.055  0.00  0.00    +0.011 A 
ATOM     15  C   UNL     1       2.409   0.002  -0.054  0.00  0.00    +0.021 A 
ATOM     16  C   UNL     1       1.214  -0.715  -0.049  0.00  0.00    +0.011 A 
ATOM     17  C   UNL     1       0.009  -0.043  -0.043  0.00  0.00    +0.001 A 
ENDBRANCH   2  15
ENDBRANCH   1   6
BRANCH   1  18
ATOM     18  S   UNL     1       9.907  -0.215  -0.071  0.00  0.00    -0.117 S 
BRANCH  18  19
ATOM     19  C   UNL     1      11.669  -0.248  -0.074  0.00  0.00    +0.029 A 
ATOM     20  C   UNL     1      12.342  -1.462  -0.086  0.00  0.00    +0.016 A 
ATOM     21  C   UNL     1      13.724  -1.485  -0.088  0.00  0.00    +0.001 A 
ATOM     22  C   UNL     1      14.440  -0.302  -0.079  0.00  0.00    +0.002 A 
ATOM     23  C   UNL     1      13.778   0.912  -0.067  0.00  0.00    +0.024 A 
ATOM     24  C   UNL     1      12.391   0.946  -0.071  0.00  0.00    +0.047 A 
BRANCH  24  25
ATOM     25  N   UNL     1      11.719   2.174  -0.066  0.00  0.00    -0.278 N 
ATOM     26  C   UNL     1      12.326   3.277  -0.548  0.00  0.00    +0.284 C 
ATOM     27  O   UNL     1      13.418   3.188  -1.079  0.00  0.00    -0.266 OA
ATOM     28  H   UNL     1      10.816   2.231   0.284  0.00  0.00    +0.155 HD
BRANCH  26  29
ATOM     29  C   UNL     1      11.671   4.583  -0.432  0.00  0.00    +0.189 A 
ATOM     30  C   UNL     1      12.170   5.773  -0.880  0.00  0.00    +0.054 A 
ATOM     31  C   UNL     1      11.219   6.755  -0.562  0.00  0.00    +0.042 A 
ATOM     32  C   UNL     1      10.194   6.130   0.059  0.00  0.00    +0.196 A 
ATOM     33  O   UNL     1      10.468   4.821   0.130  0.00  0.00    -0.458 OA
ENDBRANCH  26  29
ENDBRANCH  24  25
ENDBRANCH  18  19
ENDBRANCH   1  18
TORSDOF 6
