REMARK  Name = ZINC04860625
REMARK  10 active torsions:
REMARK  status: ('A' for Active; 'I' for Inactive)
REMARK    1  A    between atoms: C_1  and  C_2
REMARK    2  A    between atoms: C_3  and  C_7
REMARK    3  A    between atoms: C_10  and  S_16
REMARK    4  A    between atoms: N_11  and  C_12
REMARK    5  A    between atoms: C_12  and  C_13
REMARK    6  A    between atoms: C_13  and  O_14
REMARK    7  A    between atoms: O_14  and  C_15
REMARK    8  A    between atoms: S_16  and  C_17
REMARK    9  A    between atoms: C_17  and  C_18
REMARK   10  A    between atoms: N_20  and  C_21
REMARK                            x       y       z     vdW  Elec       q    Type
REMARK                         _______ _______ _______ _____ _____    ______ ____
ROOT
ATOM      1  C   UNL     1      -7.149  -0.316  -0.143  0.00  0.00    +0.168 A 
ATOM      2  N   UNL     1      -6.195  -1.154   0.190  0.00  0.00    -0.128 NA
ATOM      3  N   UNL     1      -5.053  -0.571   0.115  0.00  0.00    -0.122 NA
ATOM      4  C   UNL     1      -5.206   0.675  -0.271  0.00  0.00    +0.192 A 
ATOM      5  N   UNL     1      -6.546   0.883  -0.443  0.00  0.00    -0.300 N 
ENDROOT
BRANCH   1   8
ATOM      6  C   UNL     1      -8.510  -2.820  -1.448  0.00  0.00    +0.087 C 
ATOM      7  C   UNL     1      -9.207  -1.685  -0.744  0.00  0.00    +0.112 A 
ATOM      8  C   UNL     1      -8.599  -0.605  -0.182  0.00  0.00    +0.060 A 
ATOM      9  C   UNL     1      -9.682   0.218   0.371  0.00  0.00    +0.053 A 
ATOM     10  C   UNL     1     -10.822  -0.438   0.099  0.00  0.00    +0.196 A 
ATOM     11  O   UNL     1     -10.530  -1.569  -0.561  0.00  0.00    -0.467 OA
ENDBRANCH   1   8
BRANCH   5  12
ATOM     12  C   UNL     1      -7.202   2.124  -0.862  0.00  0.00    +0.154 C 
BRANCH  12  13
ATOM     13  C   UNL     1      -7.221   2.200  -2.390  0.00  0.00    +0.181 C 
BRANCH  13  14
ATOM     14  O   UNL     1      -7.861   3.410  -2.799  0.00  0.00    -0.381 OA
ATOM     15  C   UNL     1      -7.931   3.580  -4.216  0.00  0.00    +0.194 C 
ENDBRANCH  13  14
ENDBRANCH  12  13
ENDBRANCH   5  12
BRANCH   4  16
ATOM     16  S   UNL     1      -3.924   1.859  -0.514  0.00  0.00    -0.077 S 
BRANCH  16  17
ATOM     17  C   UNL     1      -2.481   0.852  -0.089  0.00  0.00    +0.173 C 
BRANCH  17  18
ATOM     18  C   UNL     1      -1.231   1.682  -0.229  0.00  0.00    +0.227 C 
ATOM     19  O   UNL     1      -1.308   2.840  -0.581  0.00  0.00    -0.275 OA
ATOM     20  N   UNL     1      -0.027   1.137   0.038  0.00  0.00    -0.285 N 
ATOM     21  H   UNL     1       0.042   0.192   0.246  0.00  0.00    +0.155 HD
BRANCH  20  22
ATOM     22  C   UNL     1       1.123   1.933   0.007  0.00  0.00    +0.036 A 
ATOM     23  C   UNL     1       2.336   1.388  -0.396  0.00  0.00    +0.023 A 
ATOM     24  C   UNL     1       3.469   2.176  -0.430  0.00  0.00    +0.005 A 
ATOM     25  C   UNL     1       3.401   3.505  -0.054  0.00  0.00    +0.038 A 
ATOM     26  C   UNL     1       2.196   4.051   0.354  0.00  0.00    +0.125 A 
ATOM     27  C   UNL     1       1.056   3.267   0.385  0.00  0.00    +0.061 A 
ATOM     28  F   UNL     1       2.132   5.349   0.722  0.00  0.00    -0.205 F 
ENDBRANCH  20  22
ENDBRANCH  17  18
ENDBRANCH  16  17
ENDBRANCH   4  16
TORSDOF 8
