REMARK  Name = ZINC50535579
REMARK  5 active torsions:
REMARK  status: ('A' for Active; 'I' for Inactive)
REMARK    1  A    between atoms: C_3  and  N_10
REMARK    2  A    between atoms: C_5  and  N_7
REMARK    3  A    between atoms: C_11  and  C_13
REMARK    4  A    between atoms: N_15  and  N_16
REMARK    5  A    between atoms: N_16  and  C_17
REMARK                            x       y       z     vdW  Elec       q    Type
REMARK                         _______ _______ _______ _____ _____    ______ ____
ROOT
ATOM      1  C   UNL     1       4.851   4.221  -0.237  0.00  0.00    +0.315 C 
ATOM      2  O   UNL     1       5.907   3.624  -0.250  0.00  0.00    -0.264 OA
ATOM      3  N   UNL     1       4.835   5.566  -0.332  0.00  0.00    -0.229 N 
ATOM      4  H   UNL     1       3.991   6.043  -0.322  0.00  0.00    +0.173 HD
ENDROOT
BRANCH   1   6
ATOM      5  N   UNL     1       3.583   2.122  -0.021  0.00  0.00    -0.278 N 
ATOM      6  C   UNL     1       3.567   3.466  -0.116  0.00  0.00    +0.305 C 
ATOM      7  O   UNL     1       2.511   4.064  -0.103  0.00  0.00    -0.265 OA
ATOM      8  H   UNL     1       4.427   1.650   0.045  0.00  0.00    +0.155 HD
BRANCH   5  11
ATOM      9  C   UNL     1       0.112   1.159  -0.753  0.00  0.00    +0.004 A 
ATOM     10  C   UNL     1       1.298   1.867  -0.757  0.00  0.00    +0.023 A 
ATOM     11  C   UNL     1       2.381   1.408  -0.019  0.00  0.00    +0.036 A 
ATOM     12  C   UNL     1       2.268   0.238   0.721  0.00  0.00    +0.056 A 
ATOM     13  C   UNL     1       1.080  -0.465   0.721  0.00  0.00    +0.128 A 
ATOM     14  C   UNL     1       0.003  -0.006  -0.015  0.00  0.00    +0.033 A 
BRANCH  13  15
ATOM     15  N   UNL     1       0.959  -1.713   1.509  0.00  0.00    +0.056 N 
ATOM     16  O   UNL     1       1.900  -2.115   2.152  0.00  0.00    -0.126 OA
ATOM     17  O   UNL     1      -0.081  -2.329   1.509  0.00  0.00    -0.126 OA
ENDBRANCH  13  15
ENDBRANCH   5  11
ENDBRANCH   1   6
BRANCH   3  18
ATOM     18  N   UNL     1       6.039   6.273  -0.446  0.00  0.00    -0.263 N 
ATOM     19  H   UNL     1       6.883   5.796  -0.456  0.00  0.00    +0.170 HD
BRANCH  18  20
ATOM     20  C   UNL     1       6.023   7.668  -0.544  0.00  0.00    +0.063 A 
ATOM     21  C   UNL     1       4.816   8.353  -0.524  0.00  0.00    +0.027 A 
ATOM     22  C   UNL     1       4.803   9.731  -0.621  0.00  0.00    +0.022 A 
ATOM     23  C   UNL     1       5.992  10.429  -0.740  0.00  0.00    +0.042 A 
ATOM     24  C   UNL     1       7.197   9.750  -0.760  0.00  0.00    +0.042 A 
ATOM     25  C   UNL     1       7.216   8.371  -0.657  0.00  0.00    +0.065 A 
ATOM     26 CL   UNL     1       8.729   7.520  -0.675  0.00  0.00    -0.082 Cl
ATOM     27 CL   UNL     1       5.971  12.161  -0.863  0.00  0.00    -0.083 Cl
ENDBRANCH  18  20
ENDBRANCH   3  18
TORSDOF 5
