REMARK  Name = ZINC67427797
REMARK  8 active torsions:
REMARK  status: ('A' for Active; 'I' for Inactive)
REMARK    1  A    between atoms: C_4  and  C_7
REMARK    2  A    between atoms: N_12  and  C_13
REMARK    3  A    between atoms: C_13  and  C_14
REMARK    4  A    between atoms: C_14  and  C_16
REMARK    5  A    between atoms: C_14  and  O_30
REMARK    6  A    between atoms: C_16  and  N_17
REMARK    7  A    between atoms: C_20  and  C_23
REMARK    8  A    between atoms: C_26  and  O_29
REMARK                            x       y       z     vdW  Elec       q    Type
REMARK                         _______ _______ _______ _____ _____    ______ ____
ROOT
ATOM      1  C   UNL     1       2.413  -3.574  -1.208  0.00  0.00    +0.118 C 
ENDROOT
BRANCH   1   2
ATOM      2  O   UNL     1       1.979  -2.494  -2.038  0.00  0.00    -0.392 OA
ATOM      3  H   UNL     1       1.204  -2.025  -1.699  0.00  0.00    +0.210 HD
ENDBRANCH   1   2
BRANCH   1   4
ATOM      4  C   UNL     1       2.780  -3.037   0.177  0.00  0.00    +0.159 C 
BRANCH   4  10
ATOM      5  C   UNL     1       3.697  -0.686  -0.027  0.00  0.00    +0.186 A 
ATOM      6  N   UNL     1       4.872  -0.135  -0.127  0.00  0.00    -0.054 NA
ATOM      7  O   UNL     1       5.838  -1.171  -0.121  0.00  0.00    -0.295 OA
ATOM      8  C   UNL     1       5.175  -2.335  -0.014  0.00  0.00    +0.443 A 
ATOM      9  O   UNL     1       5.674  -3.444   0.023  0.00  0.00    -0.221 OA
ATOM     10  N   UNL     1       3.859  -2.054   0.050  0.00  0.00    -0.255 N 
BRANCH   5  14
ATOM     11  C   UNL     1      -0.014   1.382   0.061  0.00  0.00    +0.000 A 
ATOM     12  C   UNL     1       0.988   1.801  -0.795  0.00  0.00    +0.001 A 
ATOM     13  C   UNL     1       2.195   1.134  -0.828  0.00  0.00    +0.011 A 
ATOM     14  C   UNL     1       2.404   0.035   0.004  0.00  0.00    +0.021 A 
ATOM     15  C   UNL     1       1.390  -0.383   0.866  0.00  0.00    +0.011 A 
ATOM     16  C   UNL     1       0.187   0.292   0.889  0.00  0.00    +0.001 A 
ENDBRANCH   5  14
ENDBRANCH   4  10
ENDBRANCH   1   4
BRANCH   1  17
ATOM     17  C   UNL     1       1.286  -4.600  -1.075  0.00  0.00    -0.045 C 
BRANCH  17  18
ATOM     18  N   UNL     1       1.016  -5.203  -2.387  0.00  0.00    +0.384 N 
ATOM     19  C   UNL     1      -0.138  -6.110  -2.284  0.00  0.00    -0.074 C 
ATOM     20  C   UNL     1      -0.563  -6.522  -3.696  0.00  0.00    +0.017 C 
ATOM     21  C   UNL     1       0.640  -6.995  -4.466  0.00  0.00    -0.048 C 
ATOM     22  C   UNL     1       1.870  -6.742  -4.074  0.00  0.00    -0.041 C 
ATOM     23  C   UNL     1       2.188  -5.969  -2.827  0.00  0.00    -0.051 C 
ATOM     24  H   UNL     1       0.817  -4.476  -3.058  0.00  0.00    -0.081 HD
BRANCH  21  25
ATOM     25  C   UNL     1       0.432  -7.770  -5.707  0.00  0.00    -0.022 A 
ATOM     26  C   UNL     1      -0.173  -7.172  -6.813  0.00  0.00    +0.012 A 
ATOM     27  C   UNL     1      -0.365  -7.898  -7.968  0.00  0.00    +0.046 A 
ATOM     28  C   UNL     1       0.042  -9.224  -8.033  0.00  0.00    +0.117 A 
ATOM     29  C   UNL     1       0.644  -9.823  -6.934  0.00  0.00    +0.046 A 
ATOM     30  C   UNL     1       0.845  -9.101  -5.777  0.00  0.00    +0.012 A 
BRANCH  28  31
ATOM     31  O   UNL     1      -0.149  -9.937  -9.173  0.00  0.00    -0.507 OA
ATOM     32  H   UNL     1       0.588  -9.886  -9.797  0.00  0.00    +0.292 HD
ENDBRANCH  28  31
ENDBRANCH  21  25
ENDBRANCH  17  18
ENDBRANCH   1  17
TORSDOF 8
