REMARK  Name = ZINC12502282
REMARK  12 active torsions:
REMARK  status: ('A' for Active; 'I' for Inactive)
REMARK    1  A    between atoms: C_1  and  C_2
REMARK    2  A    between atoms: C_5  and  N_9
REMARK    3  A    between atoms: C_7  and  C_8
REMARK    4  A    between atoms: C_10  and  C_12
REMARK    5  A    between atoms: C_12  and  C_13
REMARK    6  A    between atoms: C_13  and  C_14
REMARK    7  A    between atoms: N_16  and  N_17
REMARK    8  A    between atoms: N_17  and  C_18
REMARK    9  A    between atoms: C_18  and  N_20
REMARK   10  A    between atoms: C_21  and  C_23
REMARK   11  A    between atoms: C_25  and  N_32
REMARK   12  A    between atoms: C_27  and  N_29
REMARK                            x       y       z     vdW  Elec       q    Type
REMARK                         _______ _______ _______ _____ _____    ______ ____
ROOT
ATOM      1  N   UNL     1       6.117   1.777   0.476  0.00  0.00    -0.246 N 
ATOM      2  H   UNL     1       6.118   2.740   0.358  0.00  0.00    +0.172 HD
ENDROOT
BRANCH   1   5
ATOM      3  C   UNL     1       3.740   1.737   0.337  0.00  0.00    +0.230 C 
ATOM      4  O   UNL     1       3.742   2.941   0.190  0.00  0.00    -0.274 OA
ATOM      5  N   UNL     1       4.904   1.075   0.488  0.00  0.00    -0.235 N 
ATOM      6  H   UNL     1       4.903   0.112   0.606  0.00  0.00    +0.173 HD
BRANCH   3   7
ATOM      7  C   UNL     1       2.437   0.981   0.351  0.00  0.00    +0.106 C 
BRANCH   7   8
ATOM      8  C   UNL     1       1.277   1.961   0.161  0.00  0.00    +0.105 C 
BRANCH   8  10
ATOM      9  N   UNL     1      -1.191   1.867   0.018  0.00  0.00    -0.285 N 
ATOM     10  C   UNL     1      -0.027   1.205   0.175  0.00  0.00    +0.218 C 
ATOM     11  O   UNL     1      -0.028   0.001   0.322  0.00  0.00    -0.275 OA
ATOM     12  H   UNL     1      -1.196   2.836  -0.023  0.00  0.00    +0.155 HD
BRANCH   9  17
ATOM     13  C   UNL     1      -6.058  -1.018  -0.403  0.00  0.00    +0.044 C 
ATOM     14  C   UNL     1      -4.765  -0.251  -0.292  0.00  0.00    -0.047 A 
ATOM     15  C   UNL     1      -3.597  -0.790  -0.800  0.00  0.00    +0.005 A 
ATOM     16  C   UNL     1      -2.412  -0.089  -0.704  0.00  0.00    +0.023 A 
ATOM     17  C   UNL     1      -2.391   1.155  -0.086  0.00  0.00    +0.034 A 
ATOM     18  C   UNL     1      -3.565   1.694   0.423  0.00  0.00    +0.027 A 
ATOM     19  C   UNL     1      -4.749   0.989   0.319  0.00  0.00    -0.046 A 
ATOM     20  C   UNL     1      -6.023   1.573   0.872  0.00  0.00    +0.044 C 
ENDBRANCH   9  17
ENDBRANCH   8  10
ENDBRANCH   7   8
ENDBRANCH   3   7
ENDBRANCH   1   5
BRANCH   1  21
ATOM     21  C   UNL     1       7.281   1.115   0.627  0.00  0.00    +0.153 C 
ATOM     22  S   UNL     1       8.762   1.974   0.611  0.00  0.00    -0.017 S 
BRANCH  21  23
ATOM     23  N   UNL     1       7.279  -0.223   0.790  0.00  0.00    -0.263 N 
ATOM     24  C   UNL     1       8.443  -0.885   0.941  0.00  0.00    +0.250 C 
ATOM     25  O   UNL     1       9.495  -0.275   0.930  0.00  0.00    -0.270 OA
ATOM     26  H   UNL     1       6.440  -0.709   0.799  0.00  0.00    +0.157 HD
BRANCH  24  27
ATOM     27  C   UNL     1       8.441  -2.351   1.120  0.00  0.00    +0.041 A 
ATOM     28  C   UNL     1       7.235  -3.054   1.139  0.00  0.00    +0.046 A 
ATOM     29  C   UNL     1       7.241  -4.424   1.301  0.00  0.00    +0.129 A 
ATOM     30  C   UNL     1       8.438  -5.100   1.456  0.00  0.00    +0.065 A 
ATOM     31  C   UNL     1       9.636  -4.410   1.444  0.00  0.00    +0.129 A 
ATOM     32  C   UNL     1       9.646  -3.040   1.277  0.00  0.00    +0.046 A 
BRANCH  31  33
ATOM     33  N   UNL     1      10.912  -5.142   1.610  0.00  0.00    +0.057 N 
ATOM     34  O   UNL     1      11.968  -4.535   1.599  0.00  0.00    -0.126 OA
ATOM     35  O   UNL     1      10.906  -6.351   1.757  0.00  0.00    -0.126 OA
ENDBRANCH  31  33
BRANCH  29  36
ATOM     36  N   UNL     1       5.963  -5.171   1.315  0.00  0.00    +0.057 N 
ATOM     37  O   UNL     1       5.966  -6.380   1.464  0.00  0.00    -0.126 OA
ATOM     38  O   UNL     1       4.908  -4.577   1.179  0.00  0.00    -0.126 OA
ENDBRANCH  29  36
ENDBRANCH  24  27
ENDBRANCH  21  23
ENDBRANCH   1  21
TORSDOF 10
