REMARK  Name = ZINC63886484
REMARK  17 active torsions:
REMARK  status: ('A' for Active; 'I' for Inactive)
REMARK    1  A    between atoms: C_1  and  C_2
REMARK    2  A    between atoms: C_2  and  C_41
REMARK    3  A    between atoms: C_7  and  C_11
REMARK    4  A    between atoms: C_11  and  O_12
REMARK    5  A    between atoms: O_12  and  C_13
REMARK    6  A    between atoms: C_13  and  C_14
REMARK    7  A    between atoms: C_14  and  C_16
REMARK    8  A    between atoms: C_14  and  O_40
REMARK    9  A    between atoms: C_16  and  N_17
REMARK   10  A    between atoms: N_17  and  C_18
REMARK   11  A    between atoms: C_18  and  C_19
REMARK   12  A    between atoms: C_19  and  C_21
REMARK   13  A    between atoms: C_19  and  C_31
REMARK   14  A    between atoms: C_25  and  O_29
REMARK   15  A    between atoms: C_26  and  O_27
REMARK   16  A    between atoms: O_27  and  C_28
REMARK   17  A    between atoms: O_29  and  C_30
REMARK                            x       y       z     vdW  Elec       q    Type
REMARK                         _______ _______ _______ _____ _____    ______ ____
ROOT
ATOM      1  C   UNL     1       8.093   5.414   7.002  0.00  0.00    +0.034 C 
ENDROOT
BRANCH   1   2
ATOM      2  C   UNL     1       8.496   5.816   8.397  0.00  0.00    -0.036 C 
ATOM      3  C   UNL     1       9.692   5.604   8.991  0.00  0.00    -0.001 A 
ATOM      4  C   UNL     1      10.929   4.960   8.533  0.00  0.00    +0.010 A 
ATOM      5  C   UNL     1      11.986   4.897   9.374  0.00  0.00    +0.001 A 
ATOM      6  C   UNL     1      11.930   5.430  10.670  0.00  0.00    +0.002 A 
ATOM      7  C   UNL     1      10.829   6.036  11.162  0.00  0.00    +0.026 A 
ATOM      8  C   UNL     1       9.659   6.159  10.363  0.00  0.00    +0.043 A 
ATOM      9  N   UNL     1       8.487   6.693  10.608  0.00  0.00    -0.380 N 
ATOM     10  C   UNL     1       7.646   6.542   9.415  0.00  0.00    +0.145 C 
ATOM     11  H   UNL     1       8.222   7.120  11.438  0.00  0.00    +0.160 HD
ENDBRANCH   1   2
BRANCH   1  12
ATOM     12  C   UNL     1       7.725   6.644   6.212  0.00  0.00    +0.003 A 
ATOM     13  C   UNL     1       6.694   7.459   6.641  0.00  0.00    +0.008 A 
ATOM     14  C   UNL     1       6.354   8.587   5.919  0.00  0.00    +0.004 A 
ATOM     15  C   UNL     1       7.044   8.906   4.764  0.00  0.00    +0.049 A 
ATOM     16  C   UNL     1       8.078   8.095   4.329  0.00  0.00    +0.162 A 
ATOM     17  C   UNL     1       8.425   6.962   5.059  0.00  0.00    +0.165 A 
BRANCH  17  18
ATOM     18  O   UNL     1       9.443   6.165   4.639  0.00  0.00    -0.491 OA
ATOM     19  C   UNL     1       9.107   5.097   3.750  0.00  0.00    +0.277 C 
ENDBRANCH  17  18
BRANCH  16  20
ATOM     20  O   UNL     1       8.758   8.407   3.193  0.00  0.00    -0.491 OA
ATOM     21  C   UNL     1       8.352   9.588   2.498  0.00  0.00    +0.277 C 
ENDBRANCH  16  20
ENDBRANCH   1  12
BRANCH   1  22
ATOM     22  C   UNL     1       6.889   4.473   7.069  0.00  0.00    -0.070 C 
BRANCH  22  23
ATOM     23  N   UNL     1       6.571   3.987   5.719  0.00  0.00    +0.381 N 
ATOM     24  H   UNL     1       7.366   3.491   5.345  0.00  0.00    -0.086 HD
ATOM     25  H   UNL     1       6.352   4.771   5.123  0.00  0.00    -0.086 HD
BRANCH  23  26
ATOM     26  C   UNL     1       5.415   3.083   5.784  0.00  0.00    -0.049 C 
BRANCH  26  27
ATOM     27  C   UNL     1       5.084   2.577   4.378  0.00  0.00    +0.123 C 
BRANCH  27  28
ATOM     28  O   UNL     1       6.164   1.776   3.894  0.00  0.00    -0.391 OA
ATOM     29  H   UNL     1       6.354   1.001   4.439  0.00  0.00    +0.210 HD
ENDBRANCH  27  28
BRANCH  27  30
ATOM     30  C   UNL     1       3.807   1.736   4.427  0.00  0.00    +0.189 C 
BRANCH  30  31
ATOM     31  O   UNL     1       3.433   1.361   3.100  0.00  0.00    -0.373 OA
BRANCH  31  32
ATOM     32  C   UNL     1       2.246   0.568   3.032  0.00  0.00    +0.190 C 
BRANCH  32  38
ATOM     33  C   UNL     1      -0.019   1.526   0.010  0.00  0.00    +0.012 C 
ATOM     34  C   UNL     1       0.002  -0.004   0.002  0.00  0.00    -0.025 C 
ATOM     35  C   UNL     1       1.147  -0.608  -0.837  0.00  0.00    -0.000 C 
ATOM     36  C   UNL     1       2.383   0.300  -0.808  0.00  0.00    +0.031 C 
ATOM     37  C   UNL     1       2.722   0.652   0.620  0.00  0.00    -0.025 C 
ATOM     38  C   UNL     1       1.947   0.232   1.594  0.00  0.00    -0.045 C 
ATOM     39  C   UNL     1       0.726  -0.624   1.211  0.00  0.00    +0.023 C 
ATOM     40  C   UNL     1       1.177  -1.725   0.220  0.00  0.00    +0.013 C 
ATOM     41  C   UNL     1      -1.369  -0.620  -0.281  0.00  0.00    +0.012 C 
ENDBRANCH  32  38
ENDBRANCH  31  32
ENDBRANCH  30  31
ENDBRANCH  27  30
ENDBRANCH  26  27
ENDBRANCH  23  26
ENDBRANCH  22  23
ENDBRANCH   1  22
TORSDOF 13
