REMARK  Name = ZINC08050691
REMARK  7 active torsions:
REMARK  status: ('A' for Active; 'I' for Inactive)
REMARK    1  A    between atoms: C_1  and  N_2
REMARK    2  A    between atoms: N_2  and  C_3
REMARK    3  A    between atoms: N_2  and  C_19
REMARK    4  A    between atoms: C_3  and  C_4
REMARK    5  A    between atoms: N_6  and  C_7
REMARK    6  A    between atoms: C_10  and  N_13
REMARK    7  A    between atoms: C_22  and  N_26
REMARK                            x       y       z     vdW  Elec       q    Type
REMARK                         _______ _______ _______ _____ _____    ______ ____
ROOT
ATOM      1  C   UNL     1      -0.027   1.205   0.175  0.00  0.00    +0.234 C 
ATOM      2  O   UNL     1      -0.028   0.001   0.322  0.00  0.00    -0.274 OA
ATOM      3  N   UNL     1      -1.191   1.867   0.018  0.00  0.00    -0.284 N 
ATOM      4  H   UNL     1      -1.196   2.836  -0.023  0.00  0.00    +0.155 HD
ENDROOT
BRANCH   3   5
ATOM      5  C   UNL     1      -2.393   1.154  -0.086  0.00  0.00    +0.034 A 
ATOM      6  C   UNL     1      -2.412  -0.089  -0.704  0.00  0.00    +0.025 A 
ATOM      7  C   UNL     1      -3.595  -0.793  -0.802  0.00  0.00    +0.025 A 
ATOM      8  C   UNL     1      -4.769  -0.254  -0.292  0.00  0.00    +0.030 A 
ATOM      9  C   UNL     1      -4.751   0.992   0.322  0.00  0.00    +0.025 A 
ATOM     10  C   UNL     1      -3.566   1.694   0.424  0.00  0.00    +0.025 A 
BRANCH   8  11
ATOM     11  N   UNL     1      -5.969  -0.965  -0.396  0.00  0.00    -0.326 N 
ATOM     12  C   UNL     1      -6.578  -1.167   0.926  0.00  0.00    +0.133 C 
ATOM     13  C   UNL     1      -7.915  -1.894   0.761  0.00  0.00    +0.178 C 
ATOM     14  O   UNL     1      -7.698  -3.128   0.070  0.00  0.00    -0.377 OA
ATOM     15  C   UNL     1      -7.107  -2.968  -1.222  0.00  0.00    +0.178 C 
ATOM     16  C   UNL     1      -5.762  -2.252  -1.076  0.00  0.00    +0.133 C 
ENDBRANCH   8  11
ENDBRANCH   3   5
BRANCH   1  17
ATOM     17  C   UNL     1       1.277   1.961   0.161  0.00  0.00    +0.200 C 
BRANCH  17  19
ATOM     18  C   UNL     1       2.352   0.413   1.681  0.00  0.00    +0.130 C 
ATOM     19  N   UNL     1       2.390   1.020   0.344  0.00  0.00    -0.323 N 
BRANCH  19  20
ATOM     20  C   UNL     1       3.618   1.646   0.113  0.00  0.00    +0.049 A 
ATOM     21  C   UNL     1       4.001   2.735   0.886  0.00  0.00    +0.027 A 
ATOM     22  C   UNL     1       5.215   3.352   0.655  0.00  0.00    +0.034 A 
ATOM     23  C   UNL     1       6.050   2.886  -0.344  0.00  0.00    +0.128 A 
ATOM     24  C   UNL     1       5.673   1.803  -1.116  0.00  0.00    +0.054 A 
ATOM     25  C   UNL     1       4.462   1.177  -0.887  0.00  0.00    +0.064 A 
ATOM     26 CL   UNL     1       3.993  -0.188  -1.851  0.00  0.00    -0.082 Cl
BRANCH  23  27
ATOM     27  N   UNL     1       7.350   3.550  -0.588  0.00  0.00    +0.056 N 
ATOM     28  O   UNL     1       7.684   4.504   0.091  0.00  0.00    -0.126 OA
ATOM     29  O   UNL     1       8.087   3.141  -1.468  0.00  0.00    -0.126 OA
ENDBRANCH  23  27
ENDBRANCH  19  20
ENDBRANCH  17  19
ENDBRANCH   1  17
TORSDOF 6
