REMARK  Name = ZINC17960822
REMARK  9 active torsions:
REMARK  status: ('A' for Active; 'I' for Inactive)
REMARK    1  A    between atoms: C_1  and  C_2
REMARK    2  A    between atoms: C_4  and  C_26
REMARK    3  A    between atoms: C_5  and  N_9
REMARK    4  A    between atoms: C_6  and  C_8
REMARK    5  A    between atoms: C_10  and  C_12
REMARK    6  A    between atoms: C_12  and  N_13
REMARK    7  A    between atoms: C_14  and  C_16
REMARK    8  A    between atoms: C_16  and  C_17
REMARK    9  A    between atoms: C_22  and  N_23
REMARK                            x       y       z     vdW  Elec       q    Type
REMARK                         _______ _______ _______ _____ _____    ______ ____
ROOT
ATOM      1  C   UNL     1      -4.043   1.396  -3.758  0.00  0.00    +0.200 C 
ENDROOT
BRANCH   1   3
ATOM      2  N   UNL     1      -6.270   1.955  -4.677  0.00  0.00    -0.284 N 
ATOM      3  C   UNL     1      -5.306   2.217  -3.772  0.00  0.00    +0.234 C 
ATOM      4  O   UNL     1      -5.456   3.113  -2.969  0.00  0.00    -0.274 OA
ATOM      5  H   UNL     1      -6.187   1.189  -5.266  0.00  0.00    +0.155 HD
BRANCH   2  10
ATOM      6  C   UNL     1     -10.811   5.336  -5.044  0.00  0.00    +0.044 C 
ATOM      7  C   UNL     1      -9.605   4.438  -4.946  0.00  0.00    -0.050 A 
ATOM      8  C   UNL     1      -9.291   3.831  -3.744  0.00  0.00    +0.008 A 
ATOM      9  C   UNL     1      -8.186   3.008  -3.651  0.00  0.00    -0.029 A 
ATOM     10  C   UNL     1      -7.390   2.789  -4.768  0.00  0.00    +0.039 A 
ATOM     11  C   UNL     1      -7.704   3.404  -5.972  0.00  0.00    -0.029 A 
ATOM     12  C   UNL     1      -8.814   4.222  -6.060  0.00  0.00    +0.008 A 
ATOM     13  C   UNL     1      -6.839   3.175  -7.185  0.00  0.00    +0.045 C 
ATOM     14  C   UNL     1      -7.846   2.347  -2.341  0.00  0.00    +0.045 C 
ENDBRANCH   2  10
ENDBRANCH   1   3
BRANCH   1  15
ATOM     15  N   UNL     1      -3.162   1.874  -2.689  0.00  0.00    -0.306 N 
ATOM     16  C   UNL     1      -1.966   1.285  -2.487  0.00  0.00    +0.218 C 
ATOM     17  O   UNL     1      -1.620   0.359  -3.190  0.00  0.00    -0.275 OA
ATOM     18  H   UNL     1      -3.438   2.615  -2.128  0.00  0.00    +0.149 HD
BRANCH  16  19
ATOM     19  C   UNL     1      -1.060   1.777  -1.388  0.00  0.00    +0.133 C 
BRANCH  19  20
ATOM     20  C   UNL     1       0.204   0.956  -1.374  0.00  0.00    -0.008 A 
ATOM     21  C   UNL     1       1.370   1.473  -1.906  0.00  0.00    +0.006 A 
ATOM     22  C   UNL     1       2.529   0.721  -1.892  0.00  0.00    +0.000 A 
ATOM     23  C   UNL     1       2.522  -0.550  -1.348  0.00  0.00    +0.002 A 
ATOM     24  C   UNL     1       1.357  -1.066  -0.812  0.00  0.00    +0.033 A 
ATOM     25  C   UNL     1       0.196  -0.315  -0.830  0.00  0.00    +0.130 A 
BRANCH  25  26
ATOM     26  N   UNL     1      -1.053  -0.869  -0.260  0.00  0.00    +0.057 N 
ATOM     27  O   UNL     1      -1.083  -2.020   0.136  0.00  0.00    -0.126 OA
ATOM     28  O   UNL     1      -2.048  -0.172  -0.183  0.00  0.00    -0.126 OA
ENDBRANCH  25  26
ENDBRANCH  19  20
ENDBRANCH  16  19
ENDBRANCH   1  15
TORSDOF 6
