REMARK  Name = ZINC54507229
REMARK  7 active torsions:
REMARK  status: ('A' for Active; 'I' for Inactive)
REMARK    1  A    between atoms: C_1  and  C_2
REMARK    2  A    between atoms: C_2  and  C_4
REMARK    3  A    between atoms: C_2  and  N_10
REMARK    4  A    between atoms: N_8  and  C_9
REMARK    5  A    between atoms: N_13  and  C_14
REMARK    6  A    between atoms: C_17  and  N_20
REMARK    7  A    between atoms: C_21  and  C_23
REMARK                            x       y       z     vdW  Elec       q    Type
REMARK                         _______ _______ _______ _____ _____    ______ ____
ROOT
ATOM      1  C   UNL     1       4.106  -1.070   2.209  0.00  0.00    +0.035 A 
ATOM      2  C   UNL     1       4.778  -0.619   1.080  0.00  0.00    +0.025 A 
ATOM      3  C   UNL     1       6.158  -0.626   1.050  0.00  0.00    +0.025 A 
ATOM      4  C   UNL     1       6.874  -1.083   2.149  0.00  0.00    +0.034 A 
ATOM      5  C   UNL     1       6.202  -1.534   3.277  0.00  0.00    +0.025 A 
ATOM      6  C   UNL     1       4.822  -1.522   3.309  0.00  0.00    +0.025 A 
ENDROOT
BRANCH   1  10
ATOM      7  N   UNL     1       0.713  -0.695   3.400  0.00  0.00    -0.290 N 
ATOM      8  C   UNL     1       2.057  -0.793   3.390  0.00  0.00    +0.304 C 
ATOM      9  O   UNL     1       2.686  -0.639   4.420  0.00  0.00    -0.252 OA
ATOM     10  N   UNL     1       2.705  -1.063   2.240  0.00  0.00    -0.269 N 
ATOM     11  H   UNL     1       0.212  -0.818   2.579  0.00  0.00    +0.151 HD
ATOM     12  H   UNL     1       2.201  -1.252   1.433  0.00  0.00    +0.156 HD
BRANCH   7  14
ATOM     13  C   UNL     1      -0.227  -1.703   5.420  0.00  0.00    +0.036 C 
ATOM     14  C   UNL     1       0.009  -0.402   4.651  0.00  0.00    +0.139 C 
BRANCH  14  15
ATOM     15  C   UNL     1      -1.315   0.247   4.342  0.00  0.00    +0.153 A 
ATOM     16  N   UNL     1      -2.172  -0.138   3.436  0.00  0.00    -0.133 NA
ATOM     17  N   UNL     1      -3.193   0.644   3.446  0.00  0.00    -0.138 NA
ATOM     18  C   UNL     1      -3.034   1.563   4.359  0.00  0.00    +0.224 A 
ATOM     19  N   UNL     1      -1.840   1.334   4.957  0.00  0.00    -0.319 N 
ATOM     20  C   UNL     1      -1.238   2.107   6.046  0.00  0.00    +0.151 C 
ENDBRANCH  14  15
ENDBRANCH   7  14
ENDBRANCH   1  10
BRANCH   4  21
ATOM     21  N   UNL     1       8.274  -1.091   2.118  0.00  0.00    -0.282 N 
ATOM     22  C   UNL     1       8.939  -0.113   1.472  0.00  0.00    +0.248 C 
ATOM     23  O   UNL     1       8.325   0.729   0.845  0.00  0.00    -0.270 OA
ATOM     24  H   UNL     1       8.765  -1.800   2.562  0.00  0.00    +0.155 HD
BRANCH  22  25
ATOM     25  C   UNL     1      10.415  -0.063   1.525  0.00  0.00    +0.037 A 
ATOM     26  C   UNL     1      11.123  -1.031   2.240  0.00  0.00    +0.014 A 
ATOM     27  C   UNL     1      12.501  -0.980   2.285  0.00  0.00    +0.021 A 
ATOM     28  C   UNL     1      13.181   0.030   1.625  0.00  0.00    +0.041 A 
ATOM     29  C   UNL     1      12.484   0.994   0.915  0.00  0.00    +0.021 A 
ATOM     30  C   UNL     1      11.107   0.949   0.857  0.00  0.00    +0.014 A 
ATOM     31 CL   UNL     1      14.915   0.089   1.688  0.00  0.00    -0.084 Cl
ENDBRANCH  22  25
ENDBRANCH   4  21
TORSDOF 5
