REMARK  Name = ZINC58983369
REMARK  6 active torsions:
REMARK  status: ('A' for Active; 'I' for Inactive)
REMARK    1  A    between atoms: C_3  and  O_22
REMARK    2  A    between atoms: C_6  and  C_7
REMARK    3  A    between atoms: N_8  and  N_9
REMARK    4  A    between atoms: C_10  and  C_12
REMARK    5  A    between atoms: O_22  and  C_23
REMARK    6  A    between atoms: C_23  and  C_24
REMARK                            x       y       z     vdW  Elec       q    Type
REMARK                         _______ _______ _______ _____ _____    ______ ____
ROOT
ATOM      1  C   UNL     1      -1.263  -0.761   0.011  0.00  0.00    +0.138 C 
ATOM      2  N   UNL     1      -1.243  -2.059   0.003  0.00  0.00    -0.187 NA
ENDROOT
BRANCH   1   8
ATOM      3  C   UNL     1      -0.017   1.393   0.010  0.00  0.00    +0.013 A 
ATOM      4  C   UNL     1       1.168   2.096   0.002  0.00  0.00    +0.046 A 
ATOM      5  C   UNL     1       2.380   1.418  -0.013  0.00  0.00    +0.121 A 
ATOM      6  C   UNL     1       2.404   0.029  -0.022  0.00  0.00    +0.046 A 
ATOM      7  C   UNL     1       1.224  -0.682  -0.014  0.00  0.00    +0.013 A 
ATOM      8  C   UNL     1       0.002  -0.004   0.002  0.00  0.00    -0.005 A 
BRANCH   5   9
ATOM      9  O   UNL     1       3.546   2.115  -0.021  0.00  0.00    -0.483 OA
BRANCH   9  10
ATOM     10  C   UNL     1       4.756   1.356  -0.037  0.00  0.00    +0.324 C 
BRANCH  10  11
ATOM     11  C   UNL     1       5.937   2.292  -0.044  0.00  0.00    +0.248 C 
ATOM     12  O   UNL     1       5.760   3.492  -0.036  0.00  0.00    -0.272 OA
ATOM     13  N   UNL     1       7.190   1.796  -0.059  0.00  0.00    -0.327 N 
ATOM     14  H   UNL     1       7.332   0.837  -0.066  0.00  0.00    +0.145 HD
ATOM     15  H   UNL     1       7.950   2.399  -0.064  0.00  0.00    +0.145 HD
ENDBRANCH  10  11
ENDBRANCH   9  10
ENDBRANCH   5   9
ENDBRANCH   1   8
BRANCH   2  16
ATOM     16  N   UNL     1      -2.446  -2.778   0.011  0.00  0.00    -0.200 N 
ATOM     17  C   UNL     1      -2.425  -4.125   0.004  0.00  0.00    +0.299 C 
ATOM     18  O   UNL     1      -1.362  -4.718  -0.010  0.00  0.00    -0.265 OA
ATOM     19  H   UNL     1      -3.293  -2.306   0.022  0.00  0.00    +0.178 HD
BRANCH  17  20
ATOM     20  C   UNL     1      -3.686  -4.879   0.013  0.00  0.00    +0.192 A 
ATOM     21  C   UNL     1      -3.786  -6.234   0.012  0.00  0.00    +0.063 A 
ATOM     22  C   UNL     1      -5.218  -6.534   0.022  0.00  0.00    +0.022 A 
ATOM     23  C   UNL     1      -5.965  -7.714   0.026  0.00  0.00    +0.027 A 
ATOM     24  C   UNL     1      -7.331  -7.651   0.036  0.00  0.00    +0.019 A 
ATOM     25  C   UNL     1      -7.978  -6.422   0.043  0.00  0.00    +0.019 A 
ATOM     26  C   UNL     1      -7.258  -5.247   0.038  0.00  0.00    +0.048 A 
ATOM     27  C   UNL     1      -5.869  -5.286   0.028  0.00  0.00    +0.136 A 
ATOM     28  O   UNL     1      -4.918  -4.331   0.028  0.00  0.00    -0.450 OA
ATOM     29 BR   UNL     1      -8.345  -9.247   0.041  0.00  0.00    -0.050 Br
ENDBRANCH  17  20
ENDBRANCH   2  16
TORSDOF 6
