REMARK  Name = ZINC40920003
REMARK  9 active torsions:
REMARK  status: ('A' for Active; 'I' for Inactive)
REMARK    1  A    between atoms: C_1  and  C_2
REMARK    2  A    between atoms: C_2  and  O_3
REMARK    3  A    between atoms: O_3  and  C_4
REMARK    4  A    between atoms: C_6  and  C_20
REMARK    5  A    between atoms: C_9  and  O_10
REMARK    6  A    between atoms: O_10  and  C_11
REMARK    7  A    between atoms: C_11  and  C_12
REMARK    8  A    between atoms: C_25  and  C_29
REMARK    9  A    between atoms: C_25  and  C_30
REMARK                            x       y       z     vdW  Elec       q    Type
REMARK                         _______ _______ _______ _____ _____    ______ ____
ROOT
ATOM      1  C   UNL     1      -1.498  -1.849   0.006  0.00  0.00    +0.162 A 
ATOM      2  C   UNL     1      -0.389  -2.680  -0.003  0.00  0.00    +0.055 A 
ATOM      3  C   UNL     1      -0.553  -4.052  -0.008  0.00  0.00    -0.015 A 
ATOM      4  C   UNL     1      -1.823  -4.600  -0.005  0.00  0.00    +0.010 A 
ATOM      5  C   UNL     1      -2.934  -3.777   0.004  0.00  0.00    +0.050 A 
ATOM      6  C   UNL     1      -2.776  -2.400   0.016  0.00  0.00    +0.162 A 
ENDROOT
BRANCH   3   7
ATOM      7  C   UNL     1       0.654  -4.954  -0.018  0.00  0.00    +0.177 C 
ATOM      8  C   UNL     1       0.626  -5.817  -1.261  0.00  0.00    +0.041 C 
ATOM      9  C   UNL     1       0.328  -7.133  -1.215  0.00  0.00    +0.020 C 
ATOM     10  C   UNL     1       0.309  -7.970  -2.473  0.00  0.00    +0.058 C 
ATOM     11  C   UNL     1      -0.099  -7.100  -3.664  0.00  0.00    -0.023 C 
ATOM     12  C   UNL     1       0.901  -5.944  -3.781  0.00  0.00    +0.086 C 
ATOM     13  C   UNL     1       0.925  -5.188  -2.483  0.00  0.00    +0.164 C 
ATOM     14  O   UNL     1       1.210  -4.006  -2.488  0.00  0.00    -0.292 OA
ATOM     15  C   UNL     1      -1.506  -6.544  -3.438  0.00  0.00    +0.011 C 
ATOM     16  C   UNL     1      -0.073  -7.936  -4.945  0.00  0.00    +0.011 C 
ATOM     17  N   UNL     1       0.036  -7.771  -0.032  0.00  0.00    -0.286 N 
ATOM     18  C   UNL     1       0.342  -7.118   1.150  0.00  0.00    +0.240 A 
ATOM     19  N   UNL     1       0.639  -5.795   1.169  0.00  0.00    -0.201 N 
ATOM     20  N   UNL     1       0.897  -5.493   2.505  0.00  0.00    -0.042 NA
ATOM     21  N   UNL     1       0.740  -6.593   3.167  0.00  0.00    -0.021 NA
ATOM     22  N   UNL     1       0.414  -7.550   2.376  0.00  0.00    -0.092 NA
ATOM     23  H   UNL     1      -0.372  -8.651  -0.026  0.00  0.00    +0.155 HD
ENDBRANCH   3   7
BRANCH   1  24
ATOM     24  O   UNL     1      -1.339  -0.499   0.012  0.00  0.00    -0.489 OA
BRANCH  24  26
ATOM     25  C   UNL     1      -0.019   1.526   0.010  0.00  0.00    +0.048 C 
ATOM     26  C   UNL     1       0.002  -0.004   0.002  0.00  0.00    +0.226 C 
ENDBRANCH  24  26
ENDBRANCH   1  24
BRANCH   6  27
ATOM     27  O   UNL     1      -3.868  -1.589   0.030  0.00  0.00    -0.484 OA
BRANCH  27  28
ATOM     28  C   UNL     1      -5.148  -2.225   0.039  0.00  0.00    +0.264 C 
BRANCH  28  29
ATOM     29  C   UNL     1      -6.229  -1.175   0.055  0.00  0.00    -0.009 A 
ATOM     30  C   UNL     1      -6.710  -0.696   1.260  0.00  0.00    +0.008 A 
ATOM     31  C   UNL     1      -7.702   0.266   1.276  0.00  0.00    +0.022 A 
ATOM     32  C   UNL     1      -8.215   0.750   0.086  0.00  0.00    +0.059 A 
ATOM     33  C   UNL     1      -7.733   0.271  -1.121  0.00  0.00    +0.060 A 
ATOM     34  C   UNL     1      -6.736  -0.688  -1.135  0.00  0.00    +0.028 A 
ATOM     35 CL   UNL     1      -8.376   0.878  -2.615  0.00  0.00    -0.082 Cl
ATOM     36 CL   UNL     1      -9.461   1.958   0.105  0.00  0.00    -0.082 Cl
ENDBRANCH  28  29
ENDBRANCH  27  28
ENDBRANCH   6  27
TORSDOF 6
