REMARK  Name = ZINC23259850
REMARK  12 active torsions:
REMARK  status: ('A' for Active; 'I' for Inactive)
REMARK    1  A    between atoms: C_1  and  C_2
REMARK    2  A    between atoms: C_8  and  C_17
REMARK    3  A    between atoms: C_12  and  C_13
REMARK    4  A    between atoms: C_13  and  O_15
REMARK    5  A    between atoms: O_15  and  C_16
REMARK    6  A    between atoms: C_17  and  N_18
REMARK    7  A    between atoms: N_18  and  C_19
REMARK    8  A    between atoms: N_18  and  C_20
REMARK    9  A    between atoms: C_20  and  C_22
REMARK   10  A    between atoms: C_20  and  C_23
REMARK   11  A    between atoms: C_26  and  S_29
REMARK   12  A    between atoms: S_29  and  N_32
REMARK                            x       y       z     vdW  Elec       q    Type
REMARK                         _______ _______ _______ _____ _____    ______ ____
ROOT
ATOM      1  C   UNL     1      -0.822   3.023   1.213  0.00  0.00    +0.159 C 
ENDROOT
BRANCH   1   9
ATOM      2  C   UNL     1      -4.692   5.777  -3.446  0.00  0.00    +0.046 C 
ATOM      3  C   UNL     1      -4.270   4.385  -3.052  0.00  0.00    -0.015 A 
ATOM      4  C   UNL     1      -3.409   4.195  -1.970  0.00  0.00    +0.076 A 
ATOM      5  C   UNL     1      -2.792   5.202  -1.076  0.00  0.00    +0.260 A 
ATOM      6  O   UNL     1      -3.010   6.390  -1.230  0.00  0.00    -0.267 OA
ATOM      7  N   UNL     1      -1.988   4.769  -0.086  0.00  0.00    -0.309 N 
ATOM      8  H   UNL     1      -1.522   5.492   0.600  0.00  0.00    +0.170 HD
ATOM      9  C   UNL     1      -1.735   3.449   0.092  0.00  0.00    +0.125 A 
ATOM     10  N   UNL     1      -2.262   2.535  -0.677  0.00  0.00    -0.225 NA
ATOM     11  C   UNL     1      -3.072   2.853  -1.679  0.00  0.00    +0.116 A 
ATOM     12  S   UNL     1      -3.960   1.933  -2.911  0.00  0.00    -0.062 S 
ATOM     13  C   UNL     1      -4.730   3.307  -3.752  0.00  0.00    +0.102 A 
BRANCH  13  14
ATOM     14  C   UNL     1      -5.630   3.283  -4.906  0.00  0.00    +0.346 C 
ATOM     15  O   UNL     1      -6.069   4.324  -5.357  0.00  0.00    -0.244 OA
BRANCH  14  16
ATOM     16  O   UNL     1      -5.974   2.106  -5.470  0.00  0.00    -0.464 OA
ATOM     17  C   UNL     1      -6.870   2.158  -6.611  0.00  0.00    +0.280 C 
ENDBRANCH  14  16
ENDBRANCH  13  14
ENDBRANCH   1   9
BRANCH   1  18
ATOM     18  N   UNL     1      -0.700   1.560   1.217  0.00  0.00    -0.292 NA
ATOM     19  C   UNL     1      -0.013   1.086   0.008  0.00  0.00    +0.106 C 
BRANCH  18  20
ATOM     20  C   UNL     1      -0.016   1.091   2.429  0.00  0.00    +0.084 C 
ATOM     21  C   UNL     1      -0.814   1.520   3.663  0.00  0.00    +0.029 C 
BRANCH  20  22
ATOM     22  C   UNL     1       0.090  -0.412   2.397  0.00  0.00    -0.030 A 
ATOM     23  C   UNL     1      -0.971  -1.170   1.939  0.00  0.00    +0.007 A 
ATOM     24  C   UNL     1      -0.871  -2.549   1.905  0.00  0.00    +0.029 A 
ATOM     25  C   UNL     1       0.285  -3.169   2.339  0.00  0.00    +0.105 A 
ATOM     26  C   UNL     1       1.344  -2.411   2.803  0.00  0.00    +0.029 A 
ATOM     27  C   UNL     1       1.246  -1.032   2.832  0.00  0.00    +0.007 A 
BRANCH  25  28
ATOM     28  S   UNL     1       0.409  -4.926   2.303  0.00  0.00    +0.056 S 
ATOM     29  O   UNL     1      -0.509  -5.378   1.317  0.00  0.00    -0.153 OA
ATOM     30  O   UNL     1       1.795  -5.235   2.251  0.00  0.00    -0.153 OA
BRANCH  28  31
ATOM     31  N   UNL     1      -0.147  -5.487   3.759  0.00  0.00    -0.204 NA
ATOM     32  H   UNL     1      -0.086  -6.585   3.776  0.00  0.00    +0.144 HD
ATOM     33  H   UNL     1      -1.193  -5.175   3.896  0.00  0.00    +0.144 HD
ENDBRANCH  28  31
ENDBRANCH  25  28
ENDBRANCH  20  22
ENDBRANCH  18  20
ENDBRANCH   1  18
TORSDOF 8
