REMARK  Name = ZINC36207731
REMARK  17 active torsions:
REMARK  status: ('A' for Active; 'I' for Inactive)
REMARK    1  A    between atoms: C_1  and  C_2
REMARK    2  A    between atoms: C_2  and  C_3
REMARK    3  A    between atoms: C_3  and  N_4
REMARK    4  A    between atoms: N_4  and  C_5
REMARK    5  A    between atoms: N_4  and  C_27
REMARK    6  A    between atoms: C_5  and  C_6
REMARK    7  A    between atoms: C_12  and  C_17
REMARK    8  A    between atoms: C_20  and  O_25
REMARK    9  A    between atoms: C_21  and  O_23
REMARK   10  A    between atoms: O_23  and  C_24
REMARK   11  A    between atoms: O_25  and  C_26
REMARK   12  A    between atoms: C_27  and  C_28
REMARK   13  A    between atoms: C_28  and  C_30
REMARK   14  A    between atoms: C_28  and  O_35
REMARK   15  A    between atoms: C_30  and  O_31
REMARK   16  A    between atoms: O_31  and  C_32
REMARK   17  A    between atoms: C_32  and  C_33
REMARK                            x       y       z     vdW  Elec       q    Type
REMARK                         _______ _______ _______ _____ _____    ______ ____
ROOT
ATOM      1  C   UNL     1       0.839  -2.354   1.205  0.00  0.00    +0.094 A 
ATOM      2  N   UNL     1       1.564  -2.869   2.231  0.00  0.00    -0.312 N 
ATOM      3  H   UNL     1       1.133  -3.455   2.872  0.00  0.00    +0.170 HD
ATOM      4  C   UNL     1       2.871  -2.581   2.376  0.00  0.00    +0.260 A 
ATOM      5  O   UNL     1       3.509  -3.051   3.302  0.00  0.00    -0.267 OA
ATOM      6  C   UNL     1       3.501  -1.715   1.426  0.00  0.00    +0.080 A 
ATOM      7  C   UNL     1       4.885  -1.260   1.367  0.00  0.00    +0.004 A 
ATOM      8  C   UNL     1       5.256  -0.432   0.361  0.00  0.00    +0.056 A 
ATOM      9  S   UNL     1       3.753  -0.216  -0.572  0.00  0.00    -0.076 S 
ATOM     10  C   UNL     1       2.671  -1.232   0.400  0.00  0.00    +0.116 A 
ATOM     11  N   UNL     1       1.386  -1.565   0.320  0.00  0.00    -0.229 NA
ENDROOT
BRANCH   7  12
ATOM     12  C   UNL     1       5.867  -1.695   2.389  0.00  0.00    -0.013 A 
ATOM     13  C   UNL     1       5.557  -1.590   3.744  0.00  0.00    +0.012 A 
ATOM     14  C   UNL     1       6.471  -1.995   4.695  0.00  0.00    +0.050 A 
ATOM     15  C   UNL     1       7.699  -2.507   4.306  0.00  0.00    +0.162 A 
ATOM     16  C   UNL     1       8.014  -2.615   2.954  0.00  0.00    +0.162 A 
ATOM     17  C   UNL     1       7.099  -2.216   1.997  0.00  0.00    +0.058 A 
BRANCH  16  18
ATOM     18  O   UNL     1       9.219  -3.118   2.574  0.00  0.00    -0.491 OA
ATOM     19  C   UNL     1       9.475  -3.200   1.171  0.00  0.00    +0.277 C 
ENDBRANCH  16  18
BRANCH  15  20
ATOM     20  O   UNL     1       8.598  -2.904   5.246  0.00  0.00    -0.491 OA
ATOM     21  C   UNL     1       8.210  -2.765   6.614  0.00  0.00    +0.277 C 
ENDBRANCH  15  20
ENDBRANCH   7  12
BRANCH   1  22
ATOM     22  C   UNL     1      -0.622  -2.704   1.083  0.00  0.00    -0.003 C 
BRANCH  22  23
ATOM     23  N   UNL     1      -1.223  -1.924  -0.007  0.00  0.00    +0.386 N 
ATOM     24  H   UNL     1      -0.689  -2.061  -0.852  0.00  0.00    -0.081 HD
BRANCH  23  25
ATOM     25  C   UNL     1      -1.219  -0.499   0.350  0.00  0.00    -0.078 C 
BRANCH  25  27
ATOM     26  C   UNL     1      -2.030   1.183   2.010  0.00  0.00    +0.002 C 
ATOM     27  C   UNL     1      -2.141  -0.272   1.550  0.00  0.00    -0.022 C 
ENDBRANCH  25  27
ENDBRANCH  23  25
BRANCH  23  28
ATOM     28  C   UNL     1      -2.606  -2.371  -0.224  0.00  0.00    -0.044 C 
BRANCH  28  29
ATOM     29  C   UNL     1      -3.173  -1.686  -1.469  0.00  0.00    +0.124 C 
BRANCH  29  30
ATOM     30  O   UNL     1      -3.300  -0.283  -1.225  0.00  0.00    -0.391 OA
ATOM     31  H   UNL     1      -3.885  -0.064  -0.486  0.00  0.00    +0.210 HD
ENDBRANCH  29  30
BRANCH  29  32
ATOM     32  C   UNL     1      -4.548  -2.274  -1.793  0.00  0.00    +0.190 C 
BRANCH  32  33
ATOM     33  O   UNL     1      -5.027  -1.718  -3.019  0.00  0.00    -0.365 OA
BRANCH  33  34
ATOM     34  C   UNL     1      -6.312  -2.204  -3.414  0.00  0.00    +0.248 C 
BRANCH  34  35
ATOM     35  C   UNL     1      -6.707  -1.570  -4.683  0.00  0.00    -0.077 C 
ATOM     36  C   UNL     1      -7.021  -1.064  -5.695  0.00  0.00    +0.006 C 
ENDBRANCH  34  35
ENDBRANCH  33  34
ENDBRANCH  32  33
ENDBRANCH  29  32
ENDBRANCH  28  29
ENDBRANCH  23  28
ENDBRANCH  22  23
ENDBRANCH   1  22
TORSDOF 14
