REMARK  Name = ZINC15991824
REMARK  10 active torsions:
REMARK  status: ('A' for Active; 'I' for Inactive)
REMARK    1  A    between atoms: C_1  and  C_2
REMARK    2  A    between atoms: C_3  and  C_8
REMARK    3  A    between atoms: C_4  and  C_7
REMARK    4  A    between atoms: C_8  and  O_9
REMARK    5  A    between atoms: O_9  and  C_10
REMARK    6  A    between atoms: C_13  and  C_16
REMARK    7  A    between atoms: C_16  and  C_17
REMARK    8  A    between atoms: C_22  and  C_25
REMARK    9  A    between atoms: C_28  and  N_31
REMARK   10  A    between atoms: C_32  and  C_34
REMARK                            x       y       z     vdW  Elec       q    Type
REMARK                         _______ _______ _______ _____ _____    ______ ____
ROOT
ATOM      1  C   UNL     1      -5.446  -6.189  -1.790  0.00  0.00    +0.223 C 
ATOM      2  O   UNL     1      -4.253  -6.395  -1.864  0.00  0.00    -0.275 OA
ATOM      3  N   UNL     1      -6.316  -7.208  -1.937  0.00  0.00    -0.264 N 
ATOM      4  C   UNL     1      -5.846  -8.494  -2.173  0.00  0.00    +0.165 A 
ATOM      5  N   UNL     1      -6.525  -9.613  -2.344  0.00  0.00    -0.225 NA
ATOM      6  C   UNL     1      -5.908 -10.765  -2.561  0.00  0.00    +0.080 A 
ATOM      7  C   UNL     1      -4.543 -10.796  -2.611  0.00  0.00    +0.076 A 
ATOM      8  S   UNL     1      -4.162  -9.071  -2.334  0.00  0.00    -0.060 S 
ATOM      9  H   UNL     1      -7.270  -7.043  -1.878  0.00  0.00    +0.157 HD
ENDROOT
BRANCH   6  10
ATOM     10  C   UNL     1      -6.693 -12.010  -2.750  0.00  0.00    +0.001 A 
ATOM     11  C   UNL     1      -6.039 -13.218  -2.985  0.00  0.00    +0.012 A 
ATOM     12  C   UNL     1      -6.770 -14.375  -3.156  0.00  0.00    +0.024 A 
ATOM     13  C   UNL     1      -8.158 -14.335  -3.104  0.00  0.00    +0.033 A 
ATOM     14  C   UNL     1      -8.812 -13.130  -2.875  0.00  0.00    +0.024 A 
ATOM     15  C   UNL     1      -8.085 -11.972  -2.699  0.00  0.00    +0.012 A 
BRANCH  13  16
ATOM     16  N   UNL     1      -8.898 -15.509  -3.283  0.00  0.00    -0.286 N 
ATOM     17  C   UNL     1     -10.101 -15.461  -3.889  0.00  0.00    +0.214 C 
ATOM     18  O   UNL     1     -10.500 -14.419  -4.364  0.00  0.00    -0.276 OA
ATOM     19  C   UNL     1     -10.950 -16.703  -3.977  0.00  0.00    +0.109 C 
ATOM     20  H   UNL     1      -8.545 -16.357  -2.971  0.00  0.00    +0.155 HD
ENDBRANCH  13  16
ENDBRANCH   6  10
BRANCH   1  21
ATOM     21  C   UNL     1      -5.956  -4.794  -1.534  0.00  0.00    +0.131 C 
BRANCH  21  25
ATOM     22  C   UNL     1      -2.648  -2.112  -1.179  0.00  0.00    +0.121 A 
ATOM     23  C   UNL     1      -3.144  -2.755  -0.055  0.00  0.00    +0.046 A 
ATOM     24  C   UNL     1      -4.217  -3.617  -0.172  0.00  0.00    +0.007 A 
ATOM     25  C   UNL     1      -4.789  -3.848  -1.409  0.00  0.00    -0.038 A 
ATOM     26  C   UNL     1      -4.293  -3.212  -2.532  0.00  0.00    +0.007 A 
ATOM     27  C   UNL     1      -3.224  -2.345  -2.420  0.00  0.00    +0.046 A 
BRANCH  22  28
ATOM     28  O   UNL     1      -1.596  -1.258  -1.067  0.00  0.00    -0.487 OA
BRANCH  28  29
ATOM     29  C   UNL     1      -1.054  -1.067   0.241  0.00  0.00    +0.269 C 
BRANCH  29  32
ATOM     30  C   UNL     1       2.084  -1.740  -0.240  0.00  0.00    +0.069 C 
ATOM     31  C   UNL     1       1.465  -0.381  -0.038  0.00  0.00    +0.087 A 
ATOM     32  C   UNL     1       0.097  -0.096   0.171  0.00  0.00    +0.054 A 
ATOM     33  C   UNL     1       0.058   1.253   0.293  0.00  0.00    +0.141 A 
ATOM     34  O   UNL     1       1.321   1.682   0.160  0.00  0.00    -0.359 OA
ATOM     35  N   UNL     1       2.086   0.763  -0.022  0.00  0.00    -0.083 NA
ATOM     36  C   UNL     1      -1.164   2.103   0.525  0.00  0.00    +0.089 C 
ENDBRANCH  29  32
ENDBRANCH  28  29
ENDBRANCH  22  28
ENDBRANCH  21  25
ENDBRANCH   1  21
TORSDOF 7
