REMARK  Name = ZINC09408974
REMARK  5 active torsions:
REMARK  status: ('A' for Active; 'I' for Inactive)
REMARK    1  A    between atoms: C_4  and  O_31
REMARK    2  A    between atoms: C_5  and  C_7
REMARK    3  A    between atoms: N_15  and  C_25
REMARK    4  A    between atoms: C_16  and  C_18
REMARK    5  A    between atoms: C_25  and  C_26
REMARK                            x       y       z     vdW  Elec       q    Type
REMARK                         _______ _______ _______ _____ _____    ______ ____
ROOT
ATOM      1  C   UNL     1       1.374  -2.388  -0.132  0.00  0.00    +0.075 A 
ATOM      2  C   UNL     1       1.710  -3.099   0.975  0.00  0.00    +0.035 A 
ATOM      3  C   UNL     1       1.573  -4.460   0.620  0.00  0.00    +0.153 A 
ATOM      4  N   UNL     1       1.176  -4.490  -0.637  0.00  0.00    -0.168 NA
ATOM      5  N   UNL     1       1.046  -3.297  -1.097  0.00  0.00    -0.276 N 
ATOM      6  H   UNL     1       0.761  -3.075  -1.997  0.00  0.00    +0.189 HD
ATOM      7  C   UNL     1       1.929  -5.273   1.796  0.00  0.00    +0.268 C 
ATOM      8  O   UNL     1       1.917  -6.488   1.829  0.00  0.00    -0.268 OA
ATOM      9  N   UNL     1       2.268  -4.482   2.828  0.00  0.00    -0.278 N 
ATOM     10  C   UNL     1       2.163  -3.079   2.409  0.00  0.00    +0.142 C 
ENDROOT
BRANCH  10  11
ATOM     11  C   UNL     1       3.505  -2.404   2.519  0.00  0.00    -0.021 A 
ATOM     12  C   UNL     1       4.630  -3.012   1.993  0.00  0.00    +0.006 A 
ATOM     13  C   UNL     1       5.862  -2.392   2.093  0.00  0.00    +0.001 A 
ATOM     14  C   UNL     1       5.969  -1.165   2.720  0.00  0.00    +0.015 A 
ATOM     15  C   UNL     1       4.844  -0.556   3.245  0.00  0.00    +0.018 A 
ATOM     16  C   UNL     1       3.611  -1.174   3.140  0.00  0.00    +0.021 A 
ATOM     17 BR   UNL     1       4.991   1.123   4.103  0.00  0.00    -0.050 Br
ENDBRANCH  10  11
BRANCH   1  22
ATOM     18  C   UNL     1       2.230   1.095  -1.252  0.00  0.00    +0.001 A 
ATOM     19  C   UNL     1       1.333   1.847  -0.514  0.00  0.00    +0.004 A 
ATOM     20  C   UNL     1       0.448   1.229   0.349  0.00  0.00    +0.046 A 
ATOM     21  C   UNL     1       0.454  -0.150   0.480  0.00  0.00    +0.126 A 
ATOM     22  C   UNL     1       1.359  -0.914  -0.265  0.00  0.00    +0.042 A 
ATOM     23  C   UNL     1       2.248  -0.280  -1.133  0.00  0.00    +0.013 A 
BRANCH  21  24
ATOM     24  O   UNL     1      -0.415  -0.758   1.328  0.00  0.00    -0.506 OA
ATOM     25  H   UNL     1      -1.286  -0.928   0.944  0.00  0.00    +0.292 HD
ENDBRANCH  21  24
ENDBRANCH   1  22
BRANCH   9  26
ATOM     26  C   UNL     1       2.678  -4.945   4.157  0.00  0.00    +0.183 C 
BRANCH  26  27
ATOM     27  C   UNL     1       4.173  -5.129   4.186  0.00  0.00    +0.122 A 
ATOM     28  C   UNL     1       5.074  -4.191   4.530  0.00  0.00    +0.046 A 
ATOM     29  C   UNL     1       6.351  -4.789   4.417  0.00  0.00    +0.041 A 
ATOM     30  C   UNL     1       6.153  -6.057   4.012  0.00  0.00    +0.195 A 
ATOM     31  O   UNL     1       4.832  -6.258   3.879  0.00  0.00    -0.466 OA
ENDBRANCH  26  27
ENDBRANCH   9  26
TORSDOF 5
