REMARK  Name = ZINC63820455
REMARK  8 active torsions:
REMARK  status: ('A' for Active; 'I' for Inactive)
REMARK    1  A    between atoms: C_1  and  N_2
REMARK    2  A    between atoms: C_3  and  C_5
REMARK    3  A    between atoms: C_9  and  N_11
REMARK    4  A    between atoms: C_12  and  C_14
REMARK    5  A    between atoms: C_14  and  S_15
REMARK    6  A    between atoms: S_15  and  C_16
REMARK    7  A    between atoms: C_19  and  C_24
REMARK    8  A    between atoms: N_20  and  C_21
REMARK                            x       y       z     vdW  Elec       q    Type
REMARK                         _______ _______ _______ _____ _____    ______ ____
ROOT
ATOM      1  C   UNL     1      -5.997  -9.630  -0.536  0.00  0.00    +0.193 A 
ATOM      2  N   UNL     1      -7.165  -9.004  -0.510  0.00  0.00    -0.122 NA
ATOM      3  N   UNL     1      -8.125  -9.857  -0.544  0.00  0.00    -0.129 NA
ATOM      4  C   UNL     1      -7.631 -11.086  -0.594  0.00  0.00    +0.163 A 
ATOM      5  N   UNL     1      -6.252 -10.966  -0.596  0.00  0.00    -0.299 N 
ENDROOT
BRANCH   4   6
ATOM      6  C   UNL     1      -8.366 -12.281  -0.641  0.00  0.00    +0.025 C 
ATOM      7  C   UNL     1      -9.754 -12.418  -0.651  0.00  0.00    +0.006 A 
ATOM      8  C   UNL     1     -10.805 -11.476  -0.620  0.00  0.00    +0.010 A 
ATOM      9  C   UNL     1     -12.093 -11.903  -0.640  0.00  0.00    +0.001 A 
ATOM     10  C   UNL     1     -12.412 -13.262  -0.692  0.00  0.00    +0.002 A 
ATOM     11  C   UNL     1     -11.454 -14.221  -0.723  0.00  0.00    +0.026 A 
ATOM     12  C   UNL     1     -10.085 -13.851  -0.705  0.00  0.00    +0.043 A 
ATOM     13  N   UNL     1      -8.985 -14.578  -0.729  0.00  0.00    -0.380 N 
ATOM     14  C   UNL     1      -7.818 -13.690  -0.698  0.00  0.00    +0.152 C 
ATOM     15  H   UNL     1      -8.952 -15.546  -0.765  0.00  0.00    +0.160 HD
ENDBRANCH   4   6
BRANCH   5  16
ATOM     16  C   UNL     1      -5.271 -12.052  -0.647  0.00  0.00    +0.091 C 
ATOM     17  C   UNL     1      -3.832 -11.723  -0.244  0.00  0.00    +0.027 C 
ATOM     18  C   UNL     1      -4.178 -11.967  -1.715  0.00  0.00    +0.027 C 
ENDBRANCH   5  16
BRANCH   1  19
ATOM     19  S   UNL     1      -4.407  -8.873  -0.507  0.00  0.00    -0.077 S 
BRANCH  19  20
ATOM     20  C   UNL     1      -4.768  -7.097  -0.426  0.00  0.00    +0.173 C 
BRANCH  20  22
ATOM     21  N   UNL     1      -3.498  -4.976  -0.335  0.00  0.00    -0.285 N 
ATOM     22  C   UNL     1      -3.476  -6.322  -0.396  0.00  0.00    +0.227 C 
ATOM     23  O   UNL     1      -2.415  -6.911  -0.425  0.00  0.00    -0.275 OA
ATOM     24  H   UNL     1      -4.342  -4.509  -0.234  0.00  0.00    +0.155 HD
BRANCH  21  29
ATOM     25  C   UNL     1      -0.071  -3.999  -1.277  0.00  0.00    +0.038 A 
ATOM     26  C   UNL     1       0.059  -2.802  -0.570  0.00  0.00    +0.013 A 
ATOM     27  C   UNL     1      -0.986  -2.341   0.204  0.00  0.00    +0.003 A 
ATOM     28  C   UNL     1      -2.164  -3.060   0.282  0.00  0.00    +0.023 A 
ATOM     29  C   UNL     1      -2.303  -4.252  -0.417  0.00  0.00    +0.034 A 
ATOM     30  C   UNL     1      -1.261  -4.721  -1.202  0.00  0.00    +0.036 A 
BRANCH  25  33
ATOM     31  C   UNL     1       3.306  -4.288  -2.999  0.00  0.00    +0.128 C 
ATOM     32  N   UNL     1       2.197  -3.796  -2.177  0.00  0.00    -0.314 N 
ATOM     33  C   UNL     1       1.048  -4.496  -2.106  0.00  0.00    +0.244 C 
ATOM     34  O   UNL     1       0.930  -5.536  -2.725  0.00  0.00    -0.270 OA
ATOM     35  H   UNL     1       2.291  -2.966  -1.683  0.00  0.00    +0.149 HD
ENDBRANCH  25  33
ENDBRANCH  21  29
ENDBRANCH  20  22
ENDBRANCH  19  20
ENDBRANCH   1  19
TORSDOF 7
