REMARK  Name = ZINC67545974
REMARK  7 active torsions:
REMARK  status: ('A' for Active; 'I' for Inactive)
REMARK    1  A    between atoms: C_1  and  C_2
REMARK    2  A    between atoms: C_9  and  C_11
REMARK    3  A    between atoms: C_11  and  C_13
REMARK    4  A    between atoms: C_11  and  N_14
REMARK    5  A    between atoms: N_17  and  C_18
REMARK    6  A    between atoms: C_22  and  C_24
REMARK    7  A    between atoms: N_26  and  C_27
REMARK                            x       y       z     vdW  Elec       q    Type
REMARK                         _______ _______ _______ _____ _____    ______ ____
ROOT
ATOM      1  N   UNL     1       2.920   0.979   3.766  0.00  0.00    -0.288 N 
ATOM      2  C   UNL     1       4.077   0.860   4.448  0.00  0.00    +0.304 C 
ATOM      3  O   UNL     1       4.709  -0.177   4.397  0.00  0.00    -0.252 OA
ATOM      4  N   UNL     1       4.532   1.892   5.186  0.00  0.00    -0.269 N 
ATOM      5  H   UNL     1       2.416   1.806   3.806  0.00  0.00    +0.151 HD
ATOM      6  H   UNL     1       3.995   2.694   5.283  0.00  0.00    +0.156 HD
ENDROOT
BRANCH   4   7
ATOM      7  C   UNL     1       5.781   1.806   5.814  0.00  0.00    +0.036 A 
ATOM      8  C   UNL     1       6.821   1.116   5.201  0.00  0.00    +0.025 A 
ATOM      9  C   UNL     1       8.055   1.028   5.815  0.00  0.00    +0.022 A 
ATOM     10  C   UNL     1       8.264   1.623   7.044  0.00  0.00    +0.053 A 
ATOM     11  C   UNL     1       7.225   2.318   7.668  0.00  0.00    +0.057 A 
ATOM     12  C   UNL     1       5.981   2.412   7.043  0.00  0.00    +0.037 A 
ATOM     13 CL   UNL     1       9.816   1.508   7.813  0.00  0.00    -0.083 Cl
BRANCH  11  14
ATOM     14  C   UNL     1       7.444   2.957   8.983  0.00  0.00    +0.245 C 
ATOM     15  O   UNL     1       8.530   2.877   9.524  0.00  0.00    -0.270 OA
ATOM     16  N   UNL     1       6.441   3.627   9.583  0.00  0.00    -0.314 N 
ATOM     17  C   UNL     1       6.658   4.259  10.886  0.00  0.00    +0.128 C 
ATOM     18  H   UNL     1       5.574   3.690   9.152  0.00  0.00    +0.149 HD
ENDBRANCH  11  14
ENDBRANCH   4   7
BRANCH   1  19
ATOM     19  C   UNL     1       2.425  -0.142   2.963  0.00  0.00    +0.157 C 
ATOM     20  C   UNL     1       1.630  -1.097   3.856  0.00  0.00    +0.038 C 
BRANCH  19  28
ATOM     21  C   UNL     1       0.010   1.548  -0.015  0.00  0.00    +0.028 C 
ATOM     22  C   UNL     1       0.354   0.077  -0.257  0.00  0.00    +0.073 C 
ATOM     23  C   UNL     1      -0.937  -0.736  -0.399  0.00  0.00    +0.022 C 
ATOM     24  C   UNL     1      -0.590  -2.223  -0.501  0.00  0.00    +0.003 C 
ATOM     25  C   UNL     1       0.126  -2.671   0.775  0.00  0.00    +0.019 C 
ATOM     26  C   UNL     1       1.429  -1.880   0.930  0.00  0.00    +0.108 C 
ATOM     27  N   UNL     1       1.122  -0.443   0.882  0.00  0.00    -0.297 N 
ATOM     28  C   UNL     1       1.533   0.380   1.867  0.00  0.00    +0.236 C 
ATOM     29  O   UNL     1       1.185   1.542   1.870  0.00  0.00    -0.274 OA
ENDBRANCH  19  28
ENDBRANCH   1  19
TORSDOF 4
