REMARK  Name = ZINC39658960
REMARK  6 active torsions:
REMARK  status: ('A' for Active; 'I' for Inactive)
REMARK    1  A    between atoms: C_1  and  C_2
REMARK    2  A    between atoms: C_2  and  C_33
REMARK    3  A    between atoms: C_5  and  C_8
REMARK    4  A    between atoms: C_8  and  N_9
REMARK    5  A    between atoms: C_10  and  C_12
REMARK    6  A    between atoms: C_23  and  C_25
REMARK                            x       y       z     vdW  Elec       q    Type
REMARK                         _______ _______ _______ _____ _____    ______ ____
ROOT
ATOM      1  C   UNL     1       3.741  -1.479   5.261  0.00  0.00    +0.100 C 
ATOM      2  C   UNL     1       2.389  -1.066   5.884  0.00  0.00    +0.121 C 
ATOM      3  N   UNL     1       1.963  -2.247   6.672  0.00  0.00    -0.296 N 
ATOM      4  C   UNL     1       3.215  -2.749   7.288  0.00  0.00    +0.115 C 
ATOM      5  C   UNL     1       4.282  -2.581   6.188  0.00  0.00    -0.004 C 
ATOM      6  C   UNL     1       5.610  -2.151   6.802  0.00  0.00    -0.010 C 
ATOM      7  C   UNL     1       6.157  -3.286   7.673  0.00  0.00    -0.082 C 
ATOM      8  N   UNL     1       6.341  -4.489   6.852  0.00  0.00    +0.379 N 
ATOM      9  C   UNL     1       5.045  -4.950   6.341  0.00  0.00    -0.082 C 
ATOM     10  C   UNL     1       4.451  -3.885   5.414  0.00  0.00    -0.010 C 
ATOM     11  C   UNL     1       0.719  -2.749   6.801  0.00  0.00    +0.249 C 
ATOM     12  O   UNL     1       0.529  -3.732   7.490  0.00  0.00    -0.270 OA
ATOM     13  H   UNL     1       6.950  -4.276   6.076  0.00  0.00    -0.086 HD
ATOM     14  H   UNL     1       6.758  -5.217   7.413  0.00  0.00    -0.086 HD
ENDROOT
BRANCH  11  15
ATOM     15  C   UNL     1      -0.413  -2.105   6.105  0.00  0.00    +0.073 A 
ATOM     16  C   UNL     1      -0.768  -2.512   4.816  0.00  0.00    +0.054 A 
ATOM     17  C   UNL     1      -1.829  -1.906   4.172  0.00  0.00    +0.021 A 
ATOM     18  C   UNL     1      -2.538  -0.898   4.799  0.00  0.00    +0.003 A 
ATOM     19  C   UNL     1      -2.192  -0.489   6.075  0.00  0.00    +0.021 A 
ATOM     20  C   UNL     1      -1.139  -1.090   6.734  0.00  0.00    +0.054 A 
ATOM     21 CL   UNL     1      -0.711  -0.581   8.338  0.00  0.00    -0.083 Cl
ATOM     22 CL   UNL     1       0.122  -3.777   4.027  0.00  0.00    -0.083 Cl
ENDBRANCH  11  15
BRANCH   1  24
ATOM     23  N   UNL     1       4.539  -1.966   2.971  0.00  0.00    -0.312 N 
ATOM     24  C   UNL     1       3.535  -2.018   3.869  0.00  0.00    +0.218 C 
ATOM     25  O   UNL     1       2.467  -2.498   3.557  0.00  0.00    -0.275 OA
ATOM     26  H   UNL     1       5.394  -1.581   3.221  0.00  0.00    +0.149 HD
BRANCH  23  27
ATOM     27  C   UNL     1       4.339  -2.489   1.618  0.00  0.00    +0.138 C 
BRANCH  27  32
ATOM     28  C   UNL     1       8.163  -0.834  -0.286  0.00  0.00    +0.074 C 
ATOM     29  C   UNL     1       6.676  -0.888  -0.642  0.00  0.00    +0.165 C 
ATOM     30  O   UNL     1       6.403  -2.079  -1.391  0.00  0.00    -0.347 OA
ATOM     31  C   UNL     1       5.450  -2.853  -0.634  0.00  0.00    +0.196 C 
ATOM     32  C   UNL     1       5.624  -2.309   0.806  0.00  0.00    +0.164 C 
ATOM     33  O   UNL     1       5.891  -0.907   0.562  0.00  0.00    -0.342 OA
ATOM     34  C   UNL     1       6.303   0.338  -1.479  0.00  0.00    +0.074 C 
ENDBRANCH  27  32
ENDBRANCH  23  27
ENDBRANCH   1  24
TORSDOF 4
