REMARK  Name = ZINC64742729
REMARK  9 active torsions:
REMARK  status: ('A' for Active; 'I' for Inactive)
REMARK    1  A    between atoms: C_1  and  C_2
REMARK    2  A    between atoms: C_2  and  C_3
REMARK    3  A    between atoms: C_3  and  C_4
REMARK    4  A    between atoms: C_4  and  S_5
REMARK    5  A    between atoms: S_5  and  C_6
REMARK    6  A    between atoms: C_12  and  C_20
REMARK    7  A    between atoms: N_22  and  C_23
REMARK    8  A    between atoms: C_26  and  C_30
REMARK    9  A    between atoms: C_28  and  C_29
REMARK                            x       y       z     vdW  Elec       q    Type
REMARK                         _______ _______ _______ _____ _____    ______ ____
ROOT
ATOM      1  C   UNL     1       1.528  -4.368  -2.620  0.00  0.00    +0.182 C 
ATOM      2  N   UNL     1       0.920  -4.870  -1.559  0.00  0.00    -0.154 NA
ATOM      3  C   UNL     1       0.874  -6.183  -1.322  0.00  0.00    +0.249 C 
ATOM      4  O   UNL     1       0.288  -6.637  -0.358  0.00  0.00    -0.273 OA
ATOM      5  C   UNL     1       1.586  -7.079  -2.315  0.00  0.00    +0.153 C 
ATOM      6  C   UNL     1       0.583  -8.112  -2.832  0.00  0.00    +0.103 C 
ATOM      7  C   UNL     1       1.331  -9.126  -3.701  0.00  0.00    +0.110 C 
ATOM      8  C   UNL     1       2.204  -8.433  -4.707  0.00  0.00    +0.219 C 
ATOM      9  O   UNL     1       2.581  -9.058  -5.675  0.00  0.00    -0.275 OA
ATOM     10  N   UNL     1       2.585  -7.151  -4.583  0.00  0.00    -0.273 N 
ATOM     11  C   UNL     1       2.153  -6.388  -3.541  0.00  0.00    +0.117 C 
ATOM     12  N   UNL     1       2.095  -5.088  -3.596  0.00  0.00    -0.212 NA
ATOM     13  H   UNL     1       3.188  -6.764  -5.237  0.00  0.00    +0.156 HD
ENDROOT
BRANCH   6  14
ATOM     14  C   UNL     1      -0.477  -7.423  -3.652  0.00  0.00    +0.222 C 
ATOM     15  O   UNL     1      -0.436  -6.221  -3.808  0.00  0.00    -0.275 OA
ATOM     16  N   UNL     1      -1.470  -8.142  -4.211  0.00  0.00    -0.285 N 
ATOM     17  H   UNL     1      -1.459  -9.111  -4.154  0.00  0.00    +0.155 HD
BRANCH  16  18
ATOM     18  C   UNL     1      -2.517  -7.492  -4.874  0.00  0.00    +0.036 A 
ATOM     19  C   UNL     1      -2.840  -6.182  -4.547  0.00  0.00    +0.024 A 
ATOM     20  C   UNL     1      -3.874  -5.543  -5.203  0.00  0.00    +0.005 A 
ATOM     21  C   UNL     1      -4.587  -6.207  -6.185  0.00  0.00    -0.050 A 
ATOM     22  C   UNL     1      -4.268  -7.512  -6.512  0.00  0.00    +0.008 A 
ATOM     23  C   UNL     1      -3.231  -8.154  -5.864  0.00  0.00    -0.029 A 
ATOM     24  C   UNL     1      -2.879  -9.574  -6.226  0.00  0.00    +0.045 C 
ATOM     25  C   UNL     1      -5.715  -5.507  -6.898  0.00  0.00    +0.044 C 
ENDBRANCH  16  18
ENDBRANCH   6  14
BRANCH   1  26
ATOM     26  S   UNL     1       1.592  -2.613  -2.764  0.00  0.00    -0.088 S 
BRANCH  26  27
ATOM     27  C   UNL     1       0.736  -2.019  -1.280  0.00  0.00    +0.077 C 
BRANCH  27  28
ATOM     28  C   UNL     1       0.719  -0.489  -1.278  0.00  0.00    +0.011 C 
BRANCH  28  30
ATOM     29  C   UNL     1      -0.021   1.541  -0.025  0.00  0.00    +0.004 C 
ATOM     30  C   UNL     1      -0.004   0.011  -0.026  0.00  0.00    -0.003 C 
ENDBRANCH  28  30
ENDBRANCH  27  28
ENDBRANCH  26  27
ENDBRANCH   1  26
TORSDOF 6
