REMARK  Name = ZINC66928495
REMARK  7 active torsions:
REMARK  status: ('A' for Active; 'I' for Inactive)
REMARK    1  A    between atoms: C_1  and  C_2
REMARK    2  A    between atoms: C_4  and  C_12
REMARK    3  A    between atoms: C_5  and  N_11
REMARK    4  A    between atoms: C_6  and  N_8
REMARK    5  A    between atoms: C_17  and  N_20
REMARK    6  A    between atoms: C_21  and  C_23
REMARK    7  A    between atoms: C_23  and  C_24
REMARK                            x       y       z     vdW  Elec       q    Type
REMARK                         _______ _______ _______ _____ _____    ______ ____
ROOT
ATOM      1  C   UNL     1       0.534  -3.222  -2.155  0.00  0.00    +0.248 C 
ATOM      2  O   UNL     1       0.761  -4.392  -1.917  0.00  0.00    -0.270 OA
ATOM      3  N   UNL     1       0.506  -2.786  -3.430  0.00  0.00    -0.297 N 
ATOM      4  C   UNL     1       0.115  -1.404  -3.741  0.00  0.00    +0.110 C 
ATOM      5  C   UNL     1      -1.015  -1.432  -4.774  0.00  0.00    +0.041 C 
ATOM      6  C   UNL     1      -0.569  -2.247  -5.990  0.00  0.00    +0.076 C 
ATOM      7  C   UNL     1      -0.272  -3.686  -5.561  0.00  0.00    +0.041 C 
ATOM      8  C   UNL     1       0.872  -3.682  -4.535  0.00  0.00    +0.110 C 
ENDROOT
BRANCH   1  12
ATOM      9  C   UNL     1       1.429   1.155   0.059  0.00  0.00    +0.044 C 
ATOM     10  C   UNL     1       0.715  -0.172   0.023  0.00  0.00    -0.047 A 
ATOM     11  C   UNL     1       0.949  -1.049  -1.013  0.00  0.00    +0.018 A 
ATOM     12  C   UNL     1       0.288  -2.279  -1.048  0.00  0.00    +0.060 A 
ATOM     13  C   UNL     1      -0.611  -2.612  -0.023  0.00  0.00    +0.067 A 
ATOM     14  C   UNL     1      -0.834  -1.715   1.014  0.00  0.00    +0.148 A 
ATOM     15  C   UNL     1      -0.170  -0.505   1.036  0.00  0.00    +0.038 A 
BRANCH  14  16
ATOM     16  N   UNL     1      -1.781  -2.058   2.098  0.00  0.00    +0.058 N 
ATOM     17  O   UNL     1      -1.891  -1.331   3.058  0.00  0.00    -0.126 OA
ATOM     18  O   UNL     1      -2.445  -3.066   2.024  0.00  0.00    -0.126 OA
ENDBRANCH  14  16
BRANCH  13  19
ATOM     19  N   UNL     1      -1.275  -3.831  -0.046  0.00  0.00    -0.356 N 
ATOM     20  H   UNL     1      -1.524  -4.264   0.786  0.00  0.00    +0.142 HD
ATOM     21  H   UNL     1      -1.490  -4.251  -0.894  0.00  0.00    +0.142 HD
ENDBRANCH  13  19
ENDBRANCH   1  12
BRANCH   6  22
ATOM     22  N   UNL     1      -1.635  -2.248  -6.995  0.00  0.00    -0.312 N 
ATOM     23  C   UNL     1      -1.336  -2.439  -8.295  0.00  0.00    +0.214 C 
ATOM     24  O   UNL     1      -0.184  -2.610  -8.633  0.00  0.00    -0.276 OA
ATOM     25  H   UNL     1      -2.557  -2.111  -6.724  0.00  0.00    +0.149 HD
BRANCH  23  26
ATOM     26  C   UNL     1      -2.433  -2.440  -9.329  0.00  0.00    +0.099 C 
BRANCH  26  27
ATOM     27  C   UNL     1      -1.828  -2.676 -10.714  0.00  0.00    -0.002 C 
ATOM     28  C   UNL     1      -0.971  -1.463 -11.130  0.00  0.00    +0.004 C 
ATOM     29  C   UNL     1      -1.225  -1.322 -12.651  0.00  0.00    +0.000 C 
ATOM     30  C   UNL     1      -2.730  -1.664 -12.779  0.00  0.00    +0.000 C 
ATOM     31  C   UNL     1      -2.946  -2.804 -11.763  0.00  0.00    +0.004 C 
ENDBRANCH  26  27
ENDBRANCH  23  26
ENDBRANCH   6  22
TORSDOF 6
