REMARK  Name = ZINC13979920
REMARK  7 active torsions:
REMARK  status: ('A' for Active; 'I' for Inactive)
REMARK    1  A    between atoms: C_4  and  C_7
REMARK    2  A    between atoms: C_10  and  C_13
REMARK    3  A    between atoms: N_15  and  N_16
REMARK    4  A    between atoms: C_17  and  C_19
REMARK    5  A    between atoms: C_19  and  O_20
REMARK    6  A    between atoms: O_20  and  C_21
REMARK    7  A    between atoms: C_26  and  C_27
REMARK                            x       y       z     vdW  Elec       q    Type
REMARK                         _______ _______ _______ _____ _____    ______ ____
ROOT
ATOM      1  N   UNL     1      -1.271   7.787   0.055  0.00  0.00    -0.231 N 
ATOM      2  C   UNL     1      -2.447   8.445   0.070  0.00  0.00    +0.267 C 
ATOM      3  O   UNL     1      -3.489   7.824   0.077  0.00  0.00    -0.271 OA
ATOM      4  H   UNL     1      -0.438   8.283   0.049  0.00  0.00    +0.173 HD
ENDROOT
BRANCH   1   7
ATOM      5  C   UNL     1      -0.076   5.728   0.033  0.00  0.00    +0.260 C 
ATOM      6  O   UNL     1       0.969   6.350   0.026  0.00  0.00    -0.269 OA
ATOM      7  N   UNL     1      -1.252   6.386   0.048  0.00  0.00    -0.230 N 
ATOM      8  H   UNL     1      -2.085   5.889   0.053  0.00  0.00    +0.173 HD
BRANCH   5  12
ATOM      9  C   UNL     1      -0.018   1.479   0.010  0.00  0.00    -0.018 A 
ATOM     10  C   UNL     1      -1.236   2.159   0.020  0.00  0.00    +0.009 A 
ATOM     11  C   UNL     1      -1.256   3.535   0.033  0.00  0.00    +0.014 A 
ATOM     12  C   UNL     1      -0.056   4.251   0.025  0.00  0.00    +0.038 A 
ATOM     13  C   UNL     1       1.163   3.568   0.010  0.00  0.00    +0.014 A 
ATOM     14  C   UNL     1       1.181   2.192   0.003  0.00  0.00    +0.009 A 
BRANCH   9  18
ATOM     15  C   UNL     1       0.040  -2.772  -0.015  0.00  0.00    +0.000 A 
ATOM     16  C   UNL     1      -1.169  -2.100   0.002  0.00  0.00    +0.001 A 
ATOM     17  C   UNL     1      -1.194  -0.720   0.010  0.00  0.00    +0.008 A 
ATOM     18  C   UNL     1       0.002  -0.004   0.002  0.00  0.00    -0.018 A 
ATOM     19  C   UNL     1       1.217  -0.687  -0.019  0.00  0.00    +0.008 A 
ATOM     20  C   UNL     1       1.230  -2.067  -0.022  0.00  0.00    +0.001 A 
ENDBRANCH   9  18
ENDBRANCH   5  12
ENDBRANCH   1   7
BRANCH   2  21
ATOM     21  C   UNL     1      -2.467   9.951   0.078  0.00  0.00    +0.326 C 
BRANCH  21  22
ATOM     22  O   UNL     1      -3.821  10.409   0.093  0.00  0.00    -0.482 OA
BRANCH  22  23
ATOM     23  C   UNL     1      -4.017  11.754   0.102  0.00  0.00    +0.129 A 
ATOM     24  C   UNL     1      -2.932  12.615   0.096  0.00  0.00    +0.046 A 
ATOM     25  C   UNL     1      -3.132  13.982   0.104  0.00  0.00    +0.004 A 
ATOM     26  C   UNL     1      -4.416  14.499   0.119  0.00  0.00    +0.001 A 
ATOM     27  C   UNL     1      -5.506  13.653   0.125  0.00  0.00    +0.012 A 
ATOM     28  C   UNL     1      -5.315  12.273   0.111  0.00  0.00    +0.024 A 
BRANCH  28  29
ATOM     29  C   UNL     1      -6.483  11.359   0.112  0.00  0.00    -0.014 A 
ATOM     30  C   UNL     1      -6.564  10.327  -0.821  0.00  0.00    +0.008 A 
ATOM     31  C   UNL     1      -7.651   9.476  -0.812  0.00  0.00    +0.001 A 
ATOM     32  C   UNL     1      -8.664   9.654   0.112  0.00  0.00    +0.000 A 
ATOM     33  C   UNL     1      -8.592  10.680   1.037  0.00  0.00    +0.001 A 
ATOM     34  C   UNL     1      -7.507  11.533   1.041  0.00  0.00    +0.008 A 
ENDBRANCH  28  29
ENDBRANCH  22  23
ENDBRANCH  21  22
ENDBRANCH   2  21
TORSDOF 7
