REMARK  Name = ZINC14536471
REMARK  12 active torsions:
REMARK  status: ('A' for Active; 'I' for Inactive)
REMARK    1  A    between atoms: C_1  and  C_2
REMARK    2  A    between atoms: C_5  and  C_32
REMARK    3  A    between atoms: C_6  and  C_8
REMARK    4  A    between atoms: C_8  and  N_9
REMARK    5  A    between atoms: N_9  and  C_10
REMARK    6  A    between atoms: C_12  and  C_21
REMARK    7  A    between atoms: C_14  and  S_16
REMARK    8  A    between atoms: S_16  and  N_19
REMARK    9  A    between atoms: N_19  and  C_20
REMARK   10  A    between atoms: N_23  and  C_24
REMARK   11  A    between atoms: C_28  and  S_30
REMARK   12  A    between atoms: S_30  and  C_31
REMARK                            x       y       z     vdW  Elec       q    Type
REMARK                         _______ _______ _______ _____ _____    ______ ____
ROOT
ATOM      1  C   UNL     1       4.239   0.941  -1.836  0.00  0.00    +0.030 A 
ATOM      2  C   UNL     1       5.122   0.158  -1.108  0.00  0.00    +0.036 A 
ATOM      3  C   UNL     1       4.683  -1.040  -0.545  0.00  0.00    +0.041 A 
ATOM      4  C   UNL     1       3.357  -1.443  -0.719  0.00  0.00    +0.041 A 
ATOM      5  C   UNL     1       2.486  -0.656  -1.445  0.00  0.00    +0.108 A 
ATOM      6  C   UNL     1       2.923   0.529  -2.007  0.00  0.00    +0.051 A 
ENDROOT
BRANCH   3   7
ATOM      7  C   UNL     1       5.617  -1.881   0.233  0.00  0.00    +0.248 C 
ATOM      8  O   UNL     1       5.232  -2.924   0.723  0.00  0.00    -0.270 OA
ATOM      9  N   UNL     1       6.896  -1.489   0.400  0.00  0.00    -0.281 N 
ATOM     10  H   UNL     1       7.224  -0.697  -0.054  0.00  0.00    +0.155 HD
BRANCH   9  11
ATOM     11  C   UNL     1       7.750  -2.226   1.226  0.00  0.00    +0.035 A 
ATOM     12  C   UNL     1       9.104  -2.319   0.922  0.00  0.00    +0.023 A 
ATOM     13  C   UNL     1       9.949  -3.046   1.738  0.00  0.00    +0.003 A 
ATOM     14  C   UNL     1       9.453  -3.683   2.859  0.00  0.00    +0.015 A 
ATOM     15  C   UNL     1       8.101  -3.595   3.169  0.00  0.00    +0.009 A 
ATOM     16  C   UNL     1       7.250  -2.860   2.354  0.00  0.00    +0.038 A 
BRANCH  15  17
ATOM     17  S   UNL     1       7.468  -4.407   4.599  0.00  0.00    -0.129 S 
ATOM     18  C   UNL     1       8.924  -5.208   5.328  0.00  0.00    +0.090 C 
ENDBRANCH  15  17
ENDBRANCH   9  11
ENDBRANCH   3   7
BRANCH   5  19
ATOM     19  S   UNL     1       0.815  -1.168  -1.663  0.00  0.00    +0.058 S 
ATOM     20  O   UNL     1       0.798  -2.580  -1.506  0.00  0.00    -0.153 OA
ATOM     21  O   UNL     1       0.344  -0.527  -2.841  0.00  0.00    -0.153 OA
BRANCH  19  22
ATOM     22  N   UNL     1      -0.057  -0.541  -0.402  0.00  0.00    -0.193 NA
ATOM     23  C   UNL     1      -0.207   0.910  -0.265  0.00  0.00    +0.127 C 
ATOM     24  H   UNL     1      -0.469  -1.135   0.245  0.00  0.00    +0.148 HD
ENDBRANCH  19  22
ENDBRANCH   5  19
BRANCH   1  25
ATOM     25  N   UNL     1       4.674   2.143  -2.401  0.00  0.00    -0.340 N 
ATOM     26  H   UNL     1       4.056   2.690  -2.911  0.00  0.00    +0.146 HD
BRANCH  25  27
ATOM     27  C   UNL     1       6.063   2.575  -2.225  0.00  0.00    +0.137 C 
BRANCH  27  33
ATOM     28  C   UNL     1       7.716   5.165  -6.175  0.00  0.00    +0.044 C 
ATOM     29  C   UNL     1       7.063   5.131  -4.817  0.00  0.00    -0.050 A 
ATOM     30  C   UNL     1       6.657   6.308  -4.215  0.00  0.00    +0.003 A 
ATOM     31  C   UNL     1       6.058   6.276  -2.970  0.00  0.00    +0.004 A 
ATOM     32  C   UNL     1       5.865   5.068  -2.326  0.00  0.00    -0.046 A 
ATOM     33  C   UNL     1       6.272   3.892  -2.927  0.00  0.00    -0.027 A 
ATOM     34  C   UNL     1       6.875   3.924  -4.171  0.00  0.00    +0.008 A 
ATOM     35  C   UNL     1       5.213   5.034  -0.968  0.00  0.00    +0.044 C 
ENDBRANCH  27  33
ENDBRANCH  25  27
ENDBRANCH   1  25
TORSDOF 8
