REMARK  Name = ZINC65025278
REMARK  14 active torsions:
REMARK  status: ('A' for Active; 'I' for Inactive)
REMARK    1  A    between atoms: C_1  and  C_2
REMARK    2  A    between atoms: C_2  and  C_3
REMARK    3  A    between atoms: C_3  and  C_4
REMARK    4  A    between atoms: C_4  and  N_5
REMARK    5  A    between atoms: N_5  and  C_6
REMARK    6  A    between atoms: C_7  and  C_9
REMARK    7  A    between atoms: C_11  and  N_21
REMARK    8  A    between atoms: C_14  and  N_15
REMARK    9  A    between atoms: N_21  and  S_22
REMARK   10  A    between atoms: S_22  and  C_25
REMARK   11  A    between atoms: C_28  and  C_31
REMARK   12  A    between atoms: C_31  and  C_32
REMARK   13  A    between atoms: C_31  and  C_33
REMARK   14  A    between atoms: C_31  and  C_34
REMARK                            x       y       z     vdW  Elec       q    Type
REMARK                         _______ _______ _______ _____ _____    ______ ____
ROOT
ATOM      1  C   UNL     1       1.596  -3.081  -4.891  0.00  0.00    +0.078 A 
ATOM      2  C   UNL     1       2.919  -3.460  -4.635  0.00  0.00    +0.042 A 
ATOM      3  C   UNL     1       3.638  -4.071  -5.654  0.00  0.00    +0.067 A 
ATOM      4  C   UNL     1       3.029  -4.285  -6.884  0.00  0.00    +0.137 A 
ATOM      5  N   UNL     1       1.781  -3.918  -7.099  0.00  0.00    -0.238 NA
ATOM      6  C   UNL     1       1.051  -3.337  -6.160  0.00  0.00    +0.133 A 
ENDROOT
BRANCH   6   7
ATOM      7  N   UNL     1      -0.258  -2.975  -6.432  0.00  0.00    -0.318 N 
ATOM      8  C   UNL     1      -0.571  -1.673  -7.041  0.00  0.00    +0.087 C 
ATOM      9  C   UNL     1      -1.491  -1.908  -8.244  0.00  0.00    -0.063 C 
ATOM     10  N   UNL     1      -2.667  -2.676  -7.817  0.00  0.00    +0.381 N 
ATOM     11  C   UNL     1      -2.256  -4.012  -7.367  0.00  0.00    -0.063 C 
ATOM     12  C   UNL     1      -1.374  -3.884  -6.126  0.00  0.00    +0.087 C 
ATOM     13  H   UNL     1      -3.125  -2.194  -7.059  0.00  0.00    -0.086 HD
ATOM     14  H   UNL     1      -3.308  -2.766  -8.591  0.00  0.00    -0.086 HD
ENDBRANCH   6   7
BRANCH   1  17
ATOM     15  N   UNL     1       1.319  -1.443  -3.098  0.00  0.00    -0.300 N 
ATOM     16  C   UNL     1       2.660  -0.935  -3.402  0.00  0.00    +0.132 C 
ATOM     17  C   UNL     1       0.786  -2.429  -3.845  0.00  0.00    +0.250 C 
ATOM     18  O   UNL     1      -0.362  -2.781  -3.658  0.00  0.00    -0.270 OA
BRANCH  15  19
ATOM     19  C   UNL     1       0.559  -0.878  -1.980  0.00  0.00    +0.108 C 
BRANCH  19  20
ATOM     20  C   UNL     1      -0.280   0.301  -2.478  0.00  0.00    +0.019 C 
BRANCH  20  22
ATOM     21  C   UNL     1      -1.913   2.069  -1.808  0.00  0.00    +0.004 C 
ATOM     22  C   UNL     1      -1.074   0.890  -1.310  0.00  0.00    -0.002 C 
ENDBRANCH  20  22
ENDBRANCH  19  20
ENDBRANCH  15  19
ENDBRANCH   1  17
BRANCH   3  23
ATOM     23  N   UNL     1       4.965  -4.467  -5.444  0.00  0.00    -0.215 N 
ATOM     24  H   UNL     1       5.589  -3.863  -5.011  0.00  0.00    +0.174 HD
BRANCH  23  25
ATOM     25  S   UNL     1       5.469  -5.966  -5.934  0.00  0.00    +0.072 S 
ATOM     26  O   UNL     1       5.051  -6.114  -7.283  0.00  0.00    -0.150 OA
ATOM     27  O   UNL     1       6.830  -6.086  -5.541  0.00  0.00    -0.150 OA
BRANCH  25  28
ATOM     28  C   UNL     1       4.567  -7.152  -4.993  0.00  0.00    +0.109 A 
ATOM     29  C   UNL     1       5.007  -7.514  -3.734  0.00  0.00    +0.029 A 
ATOM     30  C   UNL     1       4.299  -8.445  -2.996  0.00  0.00    +0.006 A 
ATOM     31  C   UNL     1       3.152  -9.013  -3.517  0.00  0.00    -0.042 A 
ATOM     32  C   UNL     1       2.712  -8.650  -4.777  0.00  0.00    +0.006 A 
ATOM     33  C   UNL     1       3.417  -7.716  -5.513  0.00  0.00    +0.029 A 
BRANCH  31  34
ATOM     34  C   UNL     1       2.381 -10.028  -2.713  0.00  0.00    -0.013 C 
ATOM     35  C   UNL     1       1.915  -9.393  -1.402  0.00  0.00    +0.015 C 
ATOM     36  C   UNL     1       1.163 -10.495  -3.514  0.00  0.00    +0.015 C 
ATOM     37  C   UNL     1       3.281 -11.227  -2.408  0.00  0.00    +0.015 C 
ENDBRANCH  31  34
ENDBRANCH  25  28
ENDBRANCH  23  25
ENDBRANCH   3  23
TORSDOF 9
