REMARK  Name = ZINC20721699
REMARK  6 active torsions:
REMARK  status: ('A' for Active; 'I' for Inactive)
REMARK    1  A    between atoms: C_1  and  C_2
REMARK    2  A    between atoms: C_2  and  C_4
REMARK    3  A    between atoms: C_4  and  N_5
REMARK    4  A    between atoms: N_8  and  C_11
REMARK    5  A    between atoms: C_11  and  C_13
REMARK    6  A    between atoms: C_11  and  C_24
REMARK                            x       y       z     vdW  Elec       q    Type
REMARK                         _______ _______ _______ _____ _____    ______ ____
ROOT
ATOM      1  C   UNL     1      -4.542  -1.067   4.484  0.00  0.00    +0.080 C 
ENDROOT
BRANCH   1   2
ATOM      2  C   UNL     1      -5.624  -2.115   4.465  0.00  0.00    -0.025 A 
ATOM      3  C   UNL     1      -6.311  -2.534   3.390  0.00  0.00    +0.086 A 
ATOM      4  N   UNL     1      -7.212  -3.496   3.758  0.00  0.00    -0.360 N 
ATOM      5  H   UNL     1      -7.821  -3.949   3.154  0.00  0.00    +0.165 HD
ATOM      6  C   UNL     1      -7.125  -3.725   5.113  0.00  0.00    +0.048 A 
ATOM      7  C   UNL     1      -6.123  -2.874   5.614  0.00  0.00    +0.002 A 
ATOM      8  C   UNL     1      -5.808  -2.894   6.974  0.00  0.00    +0.011 A 
ATOM      9  C   UNL     1      -6.474  -3.743   7.813  0.00  0.00    +0.016 A 
ATOM     10  C   UNL     1      -7.463  -4.586   7.323  0.00  0.00    +0.020 A 
ATOM     11  C   UNL     1      -7.795  -4.577   5.985  0.00  0.00    +0.041 A 
ATOM     12 BR   UNL     1      -8.369  -5.752   8.505  0.00  0.00    -0.050 Br
ENDBRANCH   1   2
BRANCH   1  16
ATOM     13  N   UNL     1      -1.867  -0.948   1.235  0.00  0.00    -0.302 NA
ATOM     14  C   UNL     1      -2.405   0.327   1.731  0.00  0.00    +0.066 C 
ATOM     15  C   UNL     1      -2.950   0.130   3.147  0.00  0.00    -0.062 C 
ATOM     16  N   UNL     1      -4.006  -0.891   3.128  0.00  0.00    +0.393 N 
ATOM     17  C   UNL     1      -3.448  -2.165   2.654  0.00  0.00    -0.062 C 
ATOM     18  C   UNL     1      -2.906  -1.987   1.234  0.00  0.00    +0.066 C 
ATOM     19  H   UNL     1      -4.747  -0.598   2.509  0.00  0.00    -0.080 HD
BRANCH  13  20
ATOM     20  C   UNL     1      -1.281  -0.787  -0.102  0.00  0.00    +0.114 C 
BRANCH  20  22
ATOM     21  C   UNL     1       1.290  -0.745   0.343  0.00  0.00    +0.040 C 
ATOM     22  C   UNL     1       0.013  -0.022   0.004  0.00  0.00    -0.066 C 
ATOM     23  C   UNL     1       0.026   1.272  -0.197  0.00  0.00    +0.008 C 
ENDBRANCH  20  22
ENDBRANCH  13  20
ENDBRANCH   1  16
BRANCH   1  24
ATOM     24  C   UNL     1      -5.116   0.239   4.970  0.00  0.00    +0.347 C 
ATOM     25  O   UNL     1      -5.587   1.032   4.173  0.00  0.00    -0.248 OA
ATOM     26  O   UNL     1      -5.109   0.502   6.161  0.00  0.00    -0.248 OA
ENDBRANCH   1  24
TORSDOF 5
