REMARK  Name = ZINC63694815
REMARK  9 active torsions:
REMARK  status: ('A' for Active; 'I' for Inactive)
REMARK    1  A    between atoms: C_1  and  C_2
REMARK    2  A    between atoms: C_7  and  N_12
REMARK    3  A    between atoms: C_15  and  C_18
REMARK    4  A    between atoms: N_20  and  C_21
REMARK    5  A    between atoms: C_21  and  C_22
REMARK    6  A    between atoms: C_22  and  N_23
REMARK    7  A    between atoms: N_26  and  C_29
REMARK    8  A    between atoms: C_33  and  C_36
REMARK    9  A    between atoms: C_34  and  C_35
REMARK                            x       y       z     vdW  Elec       q    Type
REMARK                         _______ _______ _______ _____ _____    ______ ____
ROOT
ATOM      1  C   UNL     1      -4.739  -7.321   2.177  0.00  0.00    +0.216 C 
ATOM      2  O   UNL     1      -5.486  -6.764   2.953  0.00  0.00    -0.276 OA
ATOM      3  N   UNL     1      -4.948  -8.611   1.849  0.00  0.00    -0.314 N 
ATOM      4  H   UNL     1      -4.350  -9.056   1.228  0.00  0.00    +0.149 HD
ENDROOT
BRANCH   1   8
ATOM      5  N   UNL     1      -1.125  -5.092   1.948  0.00  0.00    -0.266 NA
ATOM      6  C   UNL     1      -2.353  -4.394   1.548  0.00  0.00    +0.089 C 
ATOM      7  C   UNL     1      -3.568  -5.134   2.111  0.00  0.00    +0.028 C 
ATOM      8  C   UNL     1      -3.578  -6.569   1.578  0.00  0.00    +0.077 C 
ATOM      9  C   UNL     1      -2.268  -7.259   1.967  0.00  0.00    +0.028 C 
ATOM     10  C   UNL     1      -1.090  -6.457   1.408  0.00  0.00    +0.089 C 
BRANCH   5  17
ATOM     11  C   UNL     1      -0.018   1.503   0.010  0.00  0.00    +0.044 C 
ATOM     12  C   UNL     1       0.002  -0.004   0.002  0.00  0.00    -0.048 A 
ATOM     13  C   UNL     1       0.005  -0.672  -1.235  0.00  0.00    +0.005 A 
ATOM     14  C   UNL     1       0.022  -2.017  -1.335  0.00  0.00    +0.028 A 
ATOM     15  C   UNL     1       0.040  -2.834  -0.114  0.00  0.00    +0.061 A 
ATOM     16  N   UNL     1       0.057  -4.120   0.090  0.00  0.00    -0.351 N 
ATOM     17  C   UNL     1       0.067  -4.335   1.542  0.00  0.00    +0.252 C 
ATOM     18  N   UNL     1       0.053  -3.002   2.159  0.00  0.00    -0.351 N 
ATOM     19  C   UNL     1       0.037  -2.127   1.195  0.00  0.00    +0.061 A 
ATOM     20  C   UNL     1       0.022  -0.657   1.181  0.00  0.00    +0.030 A 
ATOM     21  H   UNL     1       0.062  -4.809  -0.593  0.00  0.00    +0.163 HD
ATOM     22  H   UNL     1       0.055  -2.810   3.109  0.00  0.00    +0.163 HD
ENDBRANCH   5  17
ENDBRANCH   1   8
BRANCH   3  23
ATOM     23  C   UNL     1      -6.076  -9.342   2.431  0.00  0.00    +0.119 C 
BRANCH  23  24
ATOM     24  C   UNL     1      -6.085 -10.776   1.898  0.00  0.00    +0.103 C 
BRANCH  24  25
ATOM     25  N   UNL     1      -7.217 -11.508   2.481  0.00  0.00    -0.298 NA
ATOM     26  C   UNL     1      -7.049 -11.668   3.932  0.00  0.00    +0.103 C 
ATOM     27  C   UNL     1      -8.325 -12.272   4.527  0.00  0.00    +0.120 C 
ATOM     28  N   UNL     1      -8.641 -13.509   3.797  0.00  0.00    -0.327 N 
ATOM     29  C   UNL     1      -8.692 -13.457   2.328  0.00  0.00    +0.120 C 
ATOM     30  C   UNL     1      -7.401 -12.807   1.819  0.00  0.00    +0.103 C 
BRANCH  28  31
ATOM     31  C   UNL     1      -8.886 -14.702   4.481  0.00  0.00    +0.033 A 
ATOM     32  C   UNL     1     -10.180 -15.030   4.867  0.00  0.00    +0.023 A 
ATOM     33  C   UNL     1     -10.419 -16.211   5.543  0.00  0.00    +0.002 A 
ATOM     34  C   UNL     1      -9.372 -17.066   5.836  0.00  0.00    +0.004 A 
ATOM     35  C   UNL     1      -8.083 -16.742   5.453  0.00  0.00    -0.046 A 
ATOM     36  C   UNL     1      -7.838 -15.566   4.772  0.00  0.00    -0.027 A 
ATOM     37  C   UNL     1      -6.434 -15.217   4.350  0.00  0.00    +0.046 C 
ATOM     38  C   UNL     1      -6.946 -17.676   5.776  0.00  0.00    +0.044 C 
ENDBRANCH  28  31
ENDBRANCH  24  25
ENDBRANCH  23  24
ENDBRANCH   3  23
TORSDOF 6
