REMARK  Name = ZINC13276923
REMARK  10 active torsions:
REMARK  status: ('A' for Active; 'I' for Inactive)
REMARK    1  A    between atoms: C_1  and  C_2
REMARK    2  A    between atoms: C_2  and  C_3
REMARK    3  A    between atoms: C_2  and  C_4
REMARK    4  A    between atoms: C_2  and  N_5
REMARK    5  A    between atoms: N_5  and  C_6
REMARK    6  A    between atoms: C_9  and  S_15
REMARK    7  A    between atoms: C_11  and  N_12
REMARK    8  A    between atoms: S_15  and  N_18
REMARK    9  A    between atoms: N_18  and  C_19
REMARK   10  A    between atoms: C_23  and  C_25
REMARK                            x       y       z     vdW  Elec       q    Type
REMARK                         _______ _______ _______ _____ _____    ______ ____
ROOT
ATOM      1  C   UNL     1       3.356   1.290  -3.994  0.00  0.00    +0.058 A 
ATOM      2  C   UNL     1       3.385   0.330  -2.989  0.00  0.00    +0.027 A 
ATOM      3  C   UNL     1       2.669   0.530  -1.826  0.00  0.00    +0.031 A 
ATOM      4  C   UNL     1       1.915   1.678  -1.664  0.00  0.00    +0.111 A 
ATOM      5  C   UNL     1       1.885   2.635  -2.662  0.00  0.00    +0.063 A 
ATOM      6  C   UNL     1       2.603   2.444  -3.826  0.00  0.00    +0.149 A 
ENDROOT
BRANCH   6   7
ATOM      7  N   UNL     1       2.569   3.469  -4.893  0.00  0.00    +0.058 N 
ATOM      8  O   UNL     1       1.820   4.424  -4.797  0.00  0.00    -0.126 OA
ATOM      9  O   UNL     1       3.290   3.356  -5.869  0.00  0.00    -0.126 OA
ENDBRANCH   6   7
BRANCH   4  10
ATOM     10  S   UNL     1       0.997   1.925  -0.180  0.00  0.00    +0.072 S 
ATOM     11  O   UNL     1       0.815   3.328  -0.044  0.00  0.00    -0.150 OA
ATOM     12  O   UNL     1       1.626   1.138   0.822  0.00  0.00    -0.150 OA
BRANCH  10  13
ATOM     13  N   UNL     1      -0.506   1.274  -0.420  0.00  0.00    -0.216 N 
ATOM     14  H   UNL     1      -1.288   1.849  -0.430  0.00  0.00    +0.174 HD
BRANCH  13  15
ATOM     15  C   UNL     1      -0.649  -0.102  -0.614  0.00  0.00    +0.049 A 
ATOM     16  C   UNL     1       0.036  -0.994   0.204  0.00  0.00    +0.024 A 
ATOM     17  C   UNL     1      -0.102  -2.356   0.017  0.00  0.00    +0.003 A 
ATOM     18  C   UNL     1      -0.920  -2.841  -0.982  0.00  0.00    +0.015 A 
ATOM     19  C   UNL     1      -1.613  -1.954  -1.809  0.00  0.00    +0.065 A 
ATOM     20  C   UNL     1      -1.477  -0.579  -1.618  0.00  0.00    +0.039 A 
BRANCH  19  21
ATOM     21  C   UNL     1      -2.490  -2.471  -2.880  0.00  0.00    +0.387 C 
ATOM     22  O   UNL     1      -3.091  -1.698  -3.599  0.00  0.00    -0.241 OA
ATOM     23  O   UNL     1      -2.623  -3.799  -3.060  0.00  0.00    -0.241 OA
ENDBRANCH  19  21
ENDBRANCH  13  15
ENDBRANCH  10  13
ENDBRANCH   4  10
BRANCH   1  24
ATOM     24  N   UNL     1       4.083   1.093  -5.170  0.00  0.00    -0.337 N 
ATOM     25  H   UNL     1       4.068   1.767  -5.868  0.00  0.00    +0.147 HD
BRANCH  24  27
ATOM     26  C   UNL     1       3.944  -1.347  -5.270  0.00  0.00    +0.031 C 
ATOM     27  C   UNL     1       4.869  -0.130  -5.350  0.00  0.00    +0.024 C 
ATOM     28  C   UNL     1       5.554  -0.100  -6.718  0.00  0.00    +0.031 C 
ATOM     29  C   UNL     1       5.929  -0.222  -4.250  0.00  0.00    +0.031 C 
ENDBRANCH  24  27
ENDBRANCH   1  24
TORSDOF 7
