REMARK  Name = ZINC39694849
REMARK  8 active torsions:
REMARK  status: ('A' for Active; 'I' for Inactive)
REMARK    1  A    between atoms: C_1  and  C_2
REMARK    2  A    between atoms: C_4  and  C_33
REMARK    3  A    between atoms: C_6  and  C_8
REMARK    4  A    between atoms: C_8  and  N_9
REMARK    5  A    between atoms: C_10  and  C_12
REMARK    6  A    between atoms: C_23  and  C_25
REMARK    7  A    between atoms: C_29  and  O_30
REMARK    8  A    between atoms: O_30  and  C_31
REMARK                            x       y       z     vdW  Elec       q    Type
REMARK                         _______ _______ _______ _____ _____    ______ ____
ROOT
ATOM      1  C   UNL     1       3.145  -3.972   4.466  0.00  0.00    +0.100 C 
ATOM      2  C   UNL     1       3.888  -2.626   4.618  0.00  0.00    +0.121 C 
ATOM      3  N   UNL     1       3.767  -2.291   6.056  0.00  0.00    -0.296 N 
ATOM      4  C   UNL     1       3.934  -3.589   6.752  0.00  0.00    +0.115 C 
ATOM      5  C   UNL     1       3.180  -4.603   5.869  0.00  0.00    -0.004 C 
ATOM      6  C   UNL     1       3.930  -5.931   5.832  0.00  0.00    -0.010 C 
ATOM      7  C   UNL     1       3.901  -6.567   7.224  0.00  0.00    -0.082 C 
ATOM      8  N   UNL     1       2.509  -6.779   7.640  0.00  0.00    +0.379 N 
ATOM      9  C   UNL     1       1.822  -5.487   7.763  0.00  0.00    -0.082 C 
ATOM     10  C   UNL     1       1.762  -4.806   6.393  0.00  0.00    -0.010 C 
ATOM     11  C   UNL     1       3.553  -1.079   6.607  0.00  0.00    +0.251 C 
ATOM     12  O   UNL     1       3.339  -0.117   5.895  0.00  0.00    -0.270 OA
ATOM     13  H   UNL     1       2.037  -7.345   6.951  0.00  0.00    -0.086 HD
ATOM     14  H   UNL     1       2.494  -7.253   8.530  0.00  0.00    -0.086 HD
ENDROOT
BRANCH  11  15
ATOM     15  C   UNL     1       3.580  -0.921   8.069  0.00  0.00    +0.087 A 
ATOM     16  C   UNL     1       4.435  -1.658   8.859  0.00  0.00    +0.063 A 
ATOM     17  S   UNL     1       4.106  -1.140  10.420  0.00  0.00    -0.081 S 
ATOM     18  C   UNL     1       2.835   0.061  10.090  0.00  0.00    +0.120 A 
ATOM     19  C   UNL     1       2.714   0.018   8.744  0.00  0.00    +0.158 A 
ATOM     20 CL   UNL     1       1.966   1.051  11.221  0.00  0.00    -0.072 Cl
BRANCH  19  21
ATOM     21  O   UNL     1       1.831   0.805   8.070  0.00  0.00    -0.492 OA
ATOM     22  C   UNL     1       0.519   0.278   7.862  0.00  0.00    +0.277 C 
ENDBRANCH  19  21
ENDBRANCH  11  15
BRANCH   1  24
ATOM     23  N   UNL     1       1.088  -4.657   3.275  0.00  0.00    -0.311 N 
ATOM     24  C   UNL     1       1.721  -3.739   4.032  0.00  0.00    +0.218 C 
ATOM     25  O   UNL     1       1.144  -2.725   4.363  0.00  0.00    -0.275 OA
ATOM     26  H   UNL     1       1.549  -5.469   3.010  0.00  0.00    +0.149 HD
BRANCH  23  27
ATOM     27  C   UNL     1      -0.296  -4.431   2.853  0.00  0.00    +0.139 C 
BRANCH  27  33
ATOM     28  C   UNL     1      -0.832  -6.644  -1.603  0.00  0.00    +0.044 C 
ATOM     29  C   UNL     1      -1.023  -6.657  -0.108  0.00  0.00    -0.050 A 
ATOM     30  C   UNL     1      -1.629  -7.739   0.502  0.00  0.00    +0.006 A 
ATOM     31  C   UNL     1      -1.804  -7.750   1.873  0.00  0.00    -0.050 A 
ATOM     32  C   UNL     1      -1.373  -6.680   2.634  0.00  0.00    +0.008 A 
ATOM     33  C   UNL     1      -0.766  -5.598   2.024  0.00  0.00    -0.030 A 
ATOM     34  C   UNL     1      -0.587  -5.589   0.653  0.00  0.00    +0.008 A 
ATOM     35  C   UNL     1      -2.466  -8.930   2.538  0.00  0.00    +0.044 C 
ENDBRANCH  27  33
ENDBRANCH  23  27
ENDBRANCH   1  24
TORSDOF 5
