REMARK  Name = ZINC28794425
REMARK  5 active torsions:
REMARK  status: ('A' for Active; 'I' for Inactive)
REMARK    1  A    between atoms: C_1  and  C_2
REMARK    2  A    between atoms: C_9  and  N_14
REMARK    3  A    between atoms: C_15  and  C_17
REMARK    4  A    between atoms: C_17  and  C_18
REMARK    5  A    between atoms: C_18  and  C_19
REMARK                            x       y       z     vdW  Elec       q    Type
REMARK                         _______ _______ _______ _____ _____    ______ ____
ROOT
ATOM      1  N   UNL     1      -0.453   1.393   3.718  0.00  0.00    -0.285 N 
ATOM      2  C   UNL     1      -0.001   1.079   2.488  0.00  0.00    +0.218 C 
ATOM      3  O   UNL     1       0.988   0.388   2.363  0.00  0.00    -0.275 OA
ATOM      4  H   UNL     1      -1.304   2.080   3.832  0.00  0.00    +0.155 HD
ENDROOT
BRANCH   1  12
ATOM      5  C   UNL     1       3.849  -1.849   9.274  0.00  0.00    +0.062 C 
ATOM      6  C   UNL     1       3.102  -1.618   7.959  0.00  0.00    +0.256 C 
ATOM      7  C   UNL     1       4.026  -0.959   6.966  0.00  0.00    +0.258 C 
ATOM      8  O   UNL     1       5.222  -1.151   7.027  0.00  0.00    -0.271 OA
ATOM      9  N   UNL     1       3.517  -0.155   6.008  0.00  0.00    -0.279 N 
ATOM     10  C   UNL     1       2.134   0.078   5.980  0.00  0.00    +0.077 A 
ATOM     11  C   UNL     1       1.532   0.621   4.858  0.00  0.00    +0.050 A 
ATOM     12  C   UNL     1       0.161   0.844   4.851  0.00  0.00    +0.035 A 
ATOM     13  C   UNL     1      -0.600   0.529   5.969  0.00  0.00    +0.027 A 
ATOM     14  C   UNL     1       0.001  -0.017   7.088  0.00  0.00    +0.049 A 
ATOM     15  C   UNL     1       1.366  -0.242   7.099  0.00  0.00    +0.143 A 
ATOM     16  O   UNL     1       1.972  -0.775   8.195  0.00  0.00    -0.478 OA
ATOM     17  H   UNL     1       4.184   0.306   5.265  0.00  0.00    +0.155 HD
ENDBRANCH   1  12
BRANCH   2  18
ATOM     18  C   UNL     1      -0.725   1.585   1.267  0.00  0.00    +0.104 C 
BRANCH  18  19
ATOM     19  C   UNL     1      -0.011   1.088   0.008  0.00  0.00    +0.083 C 
BRANCH  19  20
ATOM     20  C   UNL     1      -0.736   1.595  -1.213  0.00  0.00    +0.109 A 
ATOM     21  N   UNL     1      -0.162   2.309  -2.218  0.00  0.00    -0.342 N 
ATOM     22  H   UNL     1       0.908   2.558  -2.175  0.00  0.00    +0.167 HD
ATOM     23  C   UNL     1      -1.150   2.581  -3.144  0.00  0.00    +0.066 A 
ATOM     24  C   UNL     1      -1.180   3.258  -4.356  0.00  0.00    +0.028 A 
ATOM     25  C   UNL     1      -2.363   3.352  -5.056  0.00  0.00    +0.002 A 
ATOM     26  C   UNL     1      -3.523   2.775  -4.559  0.00  0.00    +0.002 A 
ATOM     27  C   UNL     1      -3.513   2.104  -3.368  0.00  0.00    +0.030 A 
ATOM     28  C   UNL     1      -2.324   1.996  -2.641  0.00  0.00    +0.089 A 
ATOM     29  N   UNL     1      -1.999   1.407  -1.461  0.00  0.00    -0.232 NA
ENDBRANCH  19  20
ENDBRANCH  18  19
ENDBRANCH   2  18
TORSDOF 4
