REMARK  Name = ZINC17057643
REMARK  5 active torsions:
REMARK  status: ('A' for Active; 'I' for Inactive)
REMARK    1  A    between atoms: C_1  and  N_53
REMARK    2  A    between atoms: C_3  and  C_25
REMARK    3  A    between atoms: C_5  and  C_17
REMARK    4  A    between atoms: C_17  and  C_19
REMARK    5  A    between atoms: C_28  and  N_31
REMARK                            x       y       z     vdW  Elec       q    Type
REMARK                         _______ _______ _______ _____ _____    ______ ____
ROOT
ATOM      1  C   UNL     1       1.458   3.672  -1.455  0.00  0.00    -0.094 C 
ATOM      2  C   UNL     1       3.373   5.176  -1.396  0.00  0.00    -0.068 C 
ATOM      3  C   UNL     1       4.204   5.837  -0.266  0.00  0.00    +0.012 C 
ATOM      4  C   UNL     1       3.249   5.767   0.951  0.00  0.00    +0.068 C 
ATOM      5  C   UNL     1       2.265   4.641   0.615  0.00  0.00    +0.050 C 
ATOM      6  C   UNL     1       2.276   3.577   1.679  0.00  0.00    -0.027 A 
ATOM      7  C   UNL     1       3.255   2.747   2.175  0.00  0.00    +0.004 A 
ATOM      8  C   UNL     1       2.954   1.846   3.181  0.00  0.00    +0.000 A 
ATOM      9  C   UNL     1       1.668   1.782   3.686  0.00  0.00    +0.002 A 
ATOM     10  C   UNL     1       0.684   2.614   3.193  0.00  0.00    +0.023 A 
ATOM     11  C   UNL     1       0.979   3.524   2.180  0.00  0.00    +0.036 A 
ATOM     12  N   UNL     1       0.170   4.455   1.527  0.00  0.00    -0.286 N 
ATOM     13  C   UNL     1       0.848   5.152   0.595  0.00  0.00    +0.212 C 
ATOM     14  O   UNL     1       0.403   6.023  -0.122  0.00  0.00    -0.277 OA
ATOM     15  H   UNL     1      -0.771   4.586   1.721  0.00  0.00    +0.155 HD
ATOM     16  N   UNL     1       2.662   4.107  -0.683  0.00  0.00    +0.391 N 
ATOM     17  H   UNL     1       3.287   3.303  -0.552  0.00  0.00    -0.080 HD
ENDROOT
BRANCH   3  18
ATOM     18  C   UNL     1       4.528   7.268  -0.608  0.00  0.00    -0.045 A 
ATOM     19  C   UNL     1       4.336   7.730  -1.897  0.00  0.00    +0.006 A 
ATOM     20  C   UNL     1       4.630   9.044  -2.210  0.00  0.00    +0.033 A 
ATOM     21  C   UNL     1       5.123   9.893  -1.237  0.00  0.00    +0.126 A 
ATOM     22  C   UNL     1       5.319   9.430   0.050  0.00  0.00    +0.033 A 
ATOM     23  C   UNL     1       5.022   8.117   0.364  0.00  0.00    +0.006 A 
BRANCH  21  24
ATOM     24  N   UNL     1       5.442  11.299  -1.574  0.00  0.00    +0.056 N 
ATOM     25  O   UNL     1       5.877  12.047  -0.717  0.00  0.00    -0.126 OA
ATOM     26  O   UNL     1       5.269  11.708  -2.708  0.00  0.00    -0.126 OA
ENDBRANCH  21  24
ENDBRANCH   3  18
BRANCH   4  27
ATOM     27  C   UNL     1       2.515   7.073   1.116  0.00  0.00    +0.166 C 
ATOM     28  O   UNL     1       2.239   7.741   0.143  0.00  0.00    -0.292 OA
BRANCH  27  29
ATOM     29  C   UNL     1       2.134   7.538   2.460  0.00  0.00    +0.018 A 
ATOM     30  C   UNL     1       2.446   6.768   3.585  0.00  0.00    +0.011 A 
ATOM     31  C   UNL     1       2.091   7.213   4.840  0.00  0.00    +0.001 A 
ATOM     32  C   UNL     1       1.417   8.412   4.988  0.00  0.00    +0.000 A 
ATOM     33  C   UNL     1       1.099   9.177   3.880  0.00  0.00    +0.001 A 
ATOM     34  C   UNL     1       1.453   8.749   2.618  0.00  0.00    +0.011 A 
ENDBRANCH  27  29
ENDBRANCH   4  27
TORSDOF 4
