REMARK  Name = ZINC21050640
REMARK  4 active torsions:
REMARK  status: ('A' for Active; 'I' for Inactive)
REMARK    1  A    between atoms: C_8  and  C_14
REMARK    2  A    between atoms: N_16  and  C_17
REMARK    3  A    between atoms: C_20  and  O_23
REMARK    4  A    between atoms: O_23  and  C_24
REMARK                            x       y       z     vdW  Elec       q    Type
REMARK                         _______ _______ _______ _____ _____    ______ ____
ROOT
ATOM      1  C   UNL     1       2.663  -0.445   6.042  0.00  0.00    +0.254 C 
ATOM      2  O   UNL     1       2.938   0.640   5.574  0.00  0.00    -0.272 OA
ATOM      3  N   UNL     1       1.761  -1.235   5.426  0.00  0.00    -0.283 N 
ATOM      4  H   UNL     1       1.447  -2.179   5.894  0.00  0.00    +0.155 HD
ENDROOT
BRANCH   1  12
ATOM      5  C   UNL     1       6.586   2.744   7.329  0.00  0.00    +0.002 A 
ATOM      6  C   UNL     1       7.424   2.079   6.452  0.00  0.00    +0.002 A 
ATOM      7  C   UNL     1       7.122   0.789   6.056  0.00  0.00    +0.030 A 
ATOM      8  C   UNL     1       5.987   0.168   6.535  0.00  0.00    +0.126 A 
ATOM      9  C   UNL     1       5.147   0.820   7.427  0.00  0.00    +0.055 A 
ATOM     10  C   UNL     1       5.455   2.123   7.816  0.00  0.00    +0.025 A 
ATOM     11  N   UNL     1       4.007   0.215   7.949  0.00  0.00    -0.319 N 
ATOM     12  C   UNL     1       3.331  -0.911   7.310  0.00  0.00    +0.247 C 
ATOM     13  N   UNL     1       4.335  -1.946   6.990  0.00  0.00    -0.161 NA
ATOM     14  S   UNL     1       5.584  -1.467   5.995  0.00  0.00    +0.062 S 
ATOM     15  O   UNL     1       5.050  -1.351   4.684  0.00  0.00    -0.153 OA
ATOM     16  O   UNL     1       6.700  -2.292   6.301  0.00  0.00    -0.153 OA
ATOM     17  H   UNL     1       3.619   0.627   8.893  0.00  0.00    +0.148 HD
ATOM     18  H   UNL     1       4.325  -2.906   7.528  0.00  0.00    +0.151 HD
ENDBRANCH   1  12
BRANCH   3  19
ATOM     19  C   UNL     1       1.223  -0.852   4.190  0.00  0.00    +0.034 A 
ATOM     20  C   UNL     1       1.998  -0.139   3.286  0.00  0.00    +0.027 A 
ATOM     21  C   UNL     1       1.468   0.237   2.068  0.00  0.00    +0.048 A 
ATOM     22  C   UNL     1       0.160  -0.097   1.748  0.00  0.00    +0.130 A 
ATOM     23  C   UNL     1      -0.617  -0.805   2.653  0.00  0.00    +0.048 A 
ATOM     24  C   UNL     1      -0.086  -1.186   3.869  0.00  0.00    +0.027 A 
BRANCH  22  25
ATOM     25  O   UNL     1      -0.362   0.274   0.548  0.00  0.00    -0.406 OA
BRANCH  25  26
ATOM     26  C   UNL     1      -1.715  -0.104   0.285  0.00  0.00    +0.575 C 
ATOM     27  F   UNL     1      -2.554   0.461   1.251  0.00  0.00    -0.133 F 
ATOM     28  F   UNL     1      -1.826  -1.498   0.328  0.00  0.00    -0.133 F 
ATOM     29  F   UNL     1      -2.088   0.354  -0.983  0.00  0.00    -0.133 F 
ENDBRANCH  25  26
ENDBRANCH  22  25
ENDBRANCH   3  19
TORSDOF 4
