REMARK  Name = ZINC64002359
REMARK  10 active torsions:
REMARK  status: ('A' for Active; 'I' for Inactive)
REMARK    1  A    between atoms: C_1  and  C_2
REMARK    2  A    between atoms: C_5  and  C_38
REMARK    3  A    between atoms: C_8  and  C_13
REMARK    4  A    between atoms: C_10  and  C_12
REMARK    5  A    between atoms: N_15  and  C_16
REMARK    6  A    between atoms: C_16  and  C_17
REMARK    7  A    between atoms: C_18  and  C_37
REMARK    8  A    between atoms: C_20  and  C_22
REMARK    9  A    between atoms: C_27  and  N_28
REMARK   10  A    between atoms: C_29  and  C_31
REMARK                            x       y       z     vdW  Elec       q    Type
REMARK                         _______ _______ _______ _____ _____    ______ ____
ROOT
ATOM      1  C   UNL     1       2.426  -0.106   6.698  0.00  0.00    +0.100 A 
ATOM      2  C   UNL     1       2.766   1.192   6.795  0.00  0.00    +0.127 A 
ATOM      3  O   UNL     1       2.572   1.562   8.077  0.00  0.00    -0.440 OA
ATOM      4  C   UNL     1       2.117   0.489   8.748  0.00  0.00    +0.229 A 
ATOM      5  N   UNL     1       2.024  -0.518   7.910  0.00  0.00    -0.212 NA
ATOM      6  C   UNL     1       3.271   2.069   5.678  0.00  0.00    +0.088 C 
ENDROOT
BRANCH   4   7
ATOM      7  C   UNL     1       1.774   0.452  10.183  0.00  0.00    +0.058 A 
ATOM      8  C   UNL     1       1.413  -0.753  10.787  0.00  0.00    +0.015 A 
ATOM      9  C   UNL     1       1.095  -0.782  12.129  0.00  0.00    +0.001 A 
ATOM     10  C   UNL     1       1.130   0.380  12.881  0.00  0.00    +0.002 A 
ATOM     11  C   UNL     1       1.484   1.580  12.295  0.00  0.00    +0.024 A 
ATOM     12  C   UNL     1       1.814   1.626  10.948  0.00  0.00    +0.046 A 
BRANCH  12  13
ATOM     13  N   UNL     1       2.178   2.837  10.357  0.00  0.00    -0.283 N 
ATOM     14  C   UNL     1       1.594   3.984  10.755  0.00  0.00    +0.246 C 
ATOM     15  O   UNL     1       0.815   3.977  11.684  0.00  0.00    -0.273 OA
ATOM     16  H   UNL     1       2.851   2.852   9.658  0.00  0.00    +0.155 HD
BRANCH  14  17
ATOM     17  C   UNL     1       1.911   5.276  10.047  0.00  0.00    +0.204 C 
ATOM     18  C   UNL     1       1.380   5.236   8.592  0.00  0.00    +0.043 C 
ATOM     19  C   UNL     1       1.210   6.751   8.298  0.00  0.00    +0.031 C 
ATOM     20  C   UNL     1       0.790   7.308   9.675  0.00  0.00    +0.161 C 
ATOM     21  O   UNL     1       1.218   6.369  10.671  0.00  0.00    -0.367 OA
ENDBRANCH  14  17
ENDBRANCH  12  13
ENDBRANCH   4   7
BRANCH   1  22
ATOM     22  C   UNL     1       2.479  -0.947   5.448  0.00  0.00    +0.163 C 
BRANCH  22  25
ATOM     23  C   UNL     1       1.017  -1.524   3.587  0.00  0.00    +0.240 C 
ATOM     24  O   UNL     1       1.910  -2.209   3.136  0.00  0.00    -0.273 OA
ATOM     25  N   UNL     1       1.201  -0.850   4.740  0.00  0.00    -0.308 N 
ATOM     26  H   UNL     1       0.486  -0.302   5.100  0.00  0.00    +0.149 HD
BRANCH  23  34
ATOM     27  C   UNL     1      -0.544   1.668  -0.548  0.00  0.00    +0.044 C 
ATOM     28  C   UNL     1      -0.596   0.162  -0.527  0.00  0.00    -0.041 A 
ATOM     29  C   UNL     1      -0.742  -0.535  -1.677  0.00  0.00    +0.004 A 
ATOM     30  C   UNL     1      -0.794  -1.936  -1.688  0.00  0.00    +0.005 A 
ATOM     31  C   UNL     1      -0.703  -2.678  -0.564  0.00  0.00    -0.027 A 
ATOM     32  C   UNL     1      -0.547  -2.048   0.702  0.00  0.00    +0.047 A 
ATOM     33  N   UNL     1      -0.438  -2.538   1.913  0.00  0.00    -0.370 N 
ATOM     34  C   UNL     1      -0.298  -1.425   2.858  0.00  0.00    +0.193 C 
ATOM     35  C   UNL     1      -0.340  -0.165   2.022  0.00  0.00    -0.032 C 
ATOM     36  C   UNL     1      -0.483  -0.570   0.740  0.00  0.00    +0.003 A 
ATOM     37  C   UNL     1      -0.236   1.255   2.518  0.00  0.00    +0.042 C 
ATOM     38  C   UNL     1      -0.768  -4.181  -0.650  0.00  0.00    +0.046 C 
ATOM     39  H   UNL     1      -0.449  -3.480   2.146  0.00  0.00    +0.161 HD
ENDBRANCH  23  34
ENDBRANCH  22  25
ENDBRANCH   1  22
TORSDOF 6
