REMARK  Name = ZINC21970492
REMARK  10 active torsions:
REMARK  status: ('A' for Active; 'I' for Inactive)
REMARK    1  A    between atoms: C_1  and  C_2
REMARK    2  A    between atoms: C_2  and  O_3
REMARK    3  A    between atoms: O_3  and  C_4
REMARK    4  A    between atoms: C_9  and  N_12
REMARK    5  A    between atoms: C_13  and  C_15
REMARK    6  A    between atoms: C_15  and  C_17
REMARK    7  A    between atoms: C_15  and  N_20
REMARK    8  A    between atoms: C_17  and  C_18
REMARK    9  A    between atoms: C_17  and  C_19
REMARK   10  A    between atoms: C_21  and  C_23
REMARK                            x       y       z     vdW  Elec       q    Type
REMARK                         _______ _______ _______ _____ _____    ______ ____
ROOT
ATOM      1  C   UNL     1      -2.127   7.243  -0.940  0.00  0.00    +0.161 C 
ENDROOT
BRANCH   1   3
ATOM      2  N   UNL     1      -1.929   9.187  -2.457  0.00  0.00    -0.311 N 
ATOM      3  C   UNL     1      -2.098   7.857  -2.316  0.00  0.00    +0.234 C 
ATOM      4  O   UNL     1      -2.227   7.155  -3.296  0.00  0.00    -0.274 OA
ATOM      5  H   UNL     1      -1.885   9.833  -1.569  0.00  0.00    +0.149 HD
BRANCH   2  11
ATOM      6  C   UNL     1      -0.044  12.661  -6.125  0.00  0.00    +0.403 C 
ATOM      7  O   UNL     1      -0.512  13.783  -6.120  0.00  0.00    -0.226 OA
ATOM      8  N   UNL     1      -0.774  11.625  -5.668  0.00  0.00    -0.267 N 
ATOM      9  C   UNL     1      -2.137  11.835  -5.161  0.00  0.00    +0.113 C 
ATOM     10  C   UNL     1      -2.238  11.237  -3.754  0.00  0.00    +0.041 C 
ATOM     11  C   UNL     1      -1.802   9.771  -3.795  0.00  0.00    +0.076 C 
ATOM     12  C   UNL     1      -0.345   9.683  -4.254  0.00  0.00    +0.041 C 
ATOM     13  C   UNL     1      -0.223  10.263  -5.667  0.00  0.00    +0.113 C 
BRANCH   6  14
ATOM     14  O   UNL     1       1.204  12.454  -6.586  0.00  0.00    -0.451 OA
BRANCH  14  16
ATOM     15  C   UNL     1       3.319  13.187  -7.544  0.00  0.00    +0.048 C 
ATOM     16  C   UNL     1       1.932  13.616  -7.063  0.00  0.00    +0.230 C 
ENDBRANCH  14  16
ENDBRANCH   6  14
ENDBRANCH   2  11
ENDBRANCH   1   3
BRANCH   1  17
ATOM     17  N   UNL     1      -1.973   5.791  -1.050  0.00  0.00    -0.303 N 
ATOM     18  C   UNL     1      -1.473   5.086  -0.015  0.00  0.00    +0.220 C 
ATOM     19  O   UNL     1      -1.152   5.654   1.007  0.00  0.00    -0.275 OA
ATOM     20  H   UNL     1      -2.264   5.275  -1.977  0.00  0.00    +0.149 HD
BRANCH  18  21
ATOM     21  C   UNL     1      -1.314   3.592  -0.128  0.00  0.00    +0.048 C 
ATOM     22  C   UNL     1      -0.370   3.265  -1.288  0.00  0.00    +0.019 C 
ATOM     23  C   UNL     1      -0.209   1.748  -1.402  0.00  0.00    -0.009 C 
ATOM     24  C   UNL     1       0.374   1.198  -0.099  0.00  0.00    +0.007 C 
ATOM     25  C   UNL     1      -0.570   1.524   1.060  0.00  0.00    -0.009 C 
ATOM     26  C   UNL     1      -0.731   3.041   1.175  0.00  0.00    +0.019 C 
ATOM     27  C   UNL     1      -1.935   0.883   0.801  0.00  0.00    +0.007 C 
ATOM     28  C   UNL     1      -2.518   1.434  -0.501  0.00  0.00    -0.009 C 
ATOM     29  C   UNL     1      -1.574   1.108  -1.661  0.00  0.00    +0.007 C 
ATOM     30  C   UNL     1      -2.680   2.951  -0.387  0.00  0.00    +0.019 C 
ENDBRANCH  18  21
ENDBRANCH   1  17
BRANCH   1  31
ATOM     31  C   UNL     1      -3.463   7.564  -0.267  0.00  0.00    +0.012 C 
ATOM     32  C   UNL     1      -4.597   6.874  -1.028  0.00  0.00    +0.009 C 
ATOM     33  C   UNL     1      -3.440   7.063   1.178  0.00  0.00    +0.009 C 
ENDBRANCH   1  31
TORSDOF 7
