REMARK  Name = ZINC39276691
REMARK  5 active torsions:
REMARK  status: ('A' for Active; 'I' for Inactive)
REMARK    1  A    between atoms: C_7  and  C_10
REMARK    2  A    between atoms: C_10  and  C_11
REMARK    3  A    between atoms: C_11  and  N_12
REMARK    4  A    between atoms: C_13  and  C_32
REMARK    5  A    between atoms: C_17  and  C_25
REMARK                            x       y       z     vdW  Elec       q    Type
REMARK                         _______ _______ _______ _____ _____    ______ ____
ROOT
ATOM      1  N   UNL     1      -5.005   4.907  -1.381  0.00  0.00    -0.290 N 
ATOM      2  C   UNL     1      -6.412   5.418  -1.447  0.00  0.00    +0.133 C 
ATOM      3  C   UNL     1      -6.194   6.800  -1.934  0.00  0.00    +0.079 C 
ATOM      4  C   UNL     1      -6.889   8.105  -1.791  0.00  0.00    +0.136 C 
ATOM      5  N   UNL     1      -5.714   9.024  -1.939  0.00  0.00    -0.305 N 
ATOM      6  N   UNL     1      -4.655   8.469  -1.535  0.00  0.00    -0.203 NA
ATOM      7  C   UNL     1      -4.987   7.171  -0.959  0.00  0.00    +0.218 C 
ATOM      8  C   UNL     1      -4.141   5.963  -1.235  0.00  0.00    +0.243 C 
ATOM      9  O   UNL     1      -2.931   5.928  -1.314  0.00  0.00    -0.273 OA
ATOM     10  H   UNL     1      -5.761   9.924  -2.297  0.00  0.00    +0.183 HD
ENDROOT
BRANCH   4  11
ATOM     11  C   UNL     1      -7.897   8.317  -2.892  0.00  0.00    -0.023 A 
ATOM     12  C   UNL     1      -7.478   8.738  -4.140  0.00  0.00    +0.007 A 
ATOM     13  C   UNL     1      -8.401   8.932  -5.150  0.00  0.00    +0.015 A 
ATOM     14  C   UNL     1      -9.745   8.704  -4.912  0.00  0.00    +0.018 A 
ATOM     15  C   UNL     1     -10.163   8.282  -3.662  0.00  0.00    +0.015 A 
ATOM     16  C   UNL     1      -9.239   8.084  -2.655  0.00  0.00    +0.007 A 
ATOM     17 BR   UNL     1     -11.008   8.969  -6.293  0.00  0.00    -0.050 Br
ENDBRANCH   4  11
BRANCH   2  18
ATOM     18  C   UNL     1      -7.053   5.418  -0.083  0.00  0.00    +0.062 A 
ATOM     19  C   UNL     1      -8.429   5.492   0.025  0.00  0.00    +0.025 A 
ATOM     20  C   UNL     1      -9.008   5.491   1.284  0.00  0.00    +0.003 A 
ATOM     21  C   UNL     1      -8.178   5.415   2.393  0.00  0.00    +0.020 A 
ATOM     22  C   UNL     1      -6.811   5.344   2.207  0.00  0.00    +0.111 A 
ATOM     23  N   UNL     1      -6.295   5.342   0.993  0.00  0.00    -0.258 NA
ENDBRANCH   2  18
BRANCH   1  24
ATOM     24  C   UNL     1      -4.612   3.498  -1.456  0.00  0.00    +0.113 C 
BRANCH  24  25
ATOM     25  C   UNL     1      -4.587   2.900  -0.048  0.00  0.00    +0.056 C 
BRANCH  25  32
ATOM     26  C   UNL     1      -0.434   0.730  -0.187  0.00  0.00    +0.001 A 
ATOM     27  C   UNL     1      -0.548  -0.651  -0.257  0.00  0.00    +0.002 A 
ATOM     28  C   UNL     1      -1.787  -1.254  -0.279  0.00  0.00    +0.026 A 
ATOM     29  C   UNL     1      -2.937  -0.473  -0.232  0.00  0.00    +0.047 A 
ATOM     30  N   UNL     1      -4.282  -0.764  -0.238  0.00  0.00    -0.360 N 
ATOM     31  C   UNL     1      -5.009   0.393  -0.174  0.00  0.00    +0.087 A 
ATOM     32  C   UNL     1      -4.184   1.450  -0.125  0.00  0.00    -0.021 A 
ATOM     33  C   UNL     1      -2.816   0.927  -0.160  0.00  0.00    +0.003 A 
ATOM     34  C   UNL     1      -1.551   1.517  -0.133  0.00  0.00    +0.010 A 
ATOM     35  H   UNL     1      -4.659  -1.657  -0.282  0.00  0.00    +0.165 HD
ENDBRANCH  25  32
ENDBRANCH  24  25
ENDBRANCH   1  24
TORSDOF 5
