REMARK  Name = ZINC03840965
REMARK  10 active torsions:
REMARK  status: ('A' for Active; 'I' for Inactive)
REMARK    1  A    between atoms: C_1  and  C_2
REMARK    2  A    between atoms: C_10  and  C_12
REMARK    3  A    between atoms: C_12  and  N_70
REMARK    4  A    between atoms: C_13  and  N_70
REMARK    5  A    between atoms: C_14  and  N_70
REMARK    6  A    between atoms: C_16  and  C_36
REMARK    7  A    between atoms: C_19  and  O_35
REMARK    8  A    between atoms: C_21  and  C_25
REMARK    9  A    between atoms: C_25  and  C_27
REMARK   10  A    between atoms: C_25  and  C_28
REMARK                            x       y       z     vdW  Elec       q    Type
REMARK                         _______ _______ _______ _____ _____    ______ ____
ROOT
ATOM      1  C   UNL     1      -2.720   2.024   2.078  0.00  0.00    +0.014 C 
ATOM      2  C   UNL     1      -1.244   1.685   1.861  0.00  0.00    +0.042 C 
ATOM      3  C   UNL     1      -0.430   2.970   1.812  0.00  0.00    +0.057 A 
ATOM      4  C   UNL     1       0.573   3.113   0.907  0.00  0.00    +0.015 A 
ATOM      5  S   UNL     1       1.187   4.738   1.258  0.00  0.00    -0.057 S 
ATOM      6  C   UNL     1       0.090   5.104   2.556  0.00  0.00    +0.165 A 
ATOM      7  N   UNL     1      -0.634   4.006   2.623  0.00  0.00    -0.229 NA
ATOM      8  N   UNL     1       0.000   6.258   3.325  0.00  0.00    -0.266 N 
ATOM      9  C   UNL     1       0.843   7.286   3.099  0.00  0.00    +0.202 C 
ATOM     10  O   UNL     1       1.679   7.203   2.225  0.00  0.00    -0.277 OA
ATOM     11  C   UNL     1       1.008   2.138  -0.106  0.00  0.00    +0.051 C 
ATOM     12  C   UNL     1       0.405   0.765   0.203  0.00  0.00    -0.022 C 
ATOM     13  C   UNL     1      -1.083   0.929   0.537  0.00  0.00    +0.033 C 
ATOM     14  C   UNL     1      -1.677  -0.477   0.722  0.00  0.00    +0.123 C 
ATOM     15  C   UNL     1      -0.980  -1.151   1.906  0.00  0.00    +0.029 C 
ATOM     16  C   UNL     1       0.519  -1.270   1.633  0.00  0.00    +0.007 C 
ATOM     17  C   UNL     1       1.115   0.120   1.392  0.00  0.00    +0.008 C 
ATOM     18  C   UNL     1       0.550  -0.138  -1.023  0.00  0.00    +0.012 C 
ATOM     19  H   UNL     1      -0.669   6.325   4.024  0.00  0.00    +0.157 HD
ENDROOT
BRANCH  15  20
ATOM     20  C   UNL     1      -1.570  -2.548   2.115  0.00  0.00    +0.078 C 
ATOM     21  C   UNL     1      -3.071  -2.431   2.389  0.00  0.00    +0.017 C 
BRANCH  20  22
ATOM     22  C   UNL     1      -0.895  -3.208   3.289  0.00  0.00    +0.219 C 
ATOM     23  O   UNL     1      -0.519  -2.538   4.228  0.00  0.00    -0.275 OA
ATOM     24  N   UNL     1      -0.710  -4.543   3.297  0.00  0.00    -0.301 N 
ATOM     25  C   UNL     1       0.032  -5.299   4.317  0.00  0.00    +0.108 C 
ATOM     26  C   UNL     1       0.000  -6.784   3.899  0.00  0.00    +0.020 C 
ATOM     27  C   UNL     1      -0.265  -6.708   2.372  0.00  0.00    +0.020 C 
ATOM     28  C   UNL     1      -1.212  -5.486   2.281  0.00  0.00    +0.108 C 
ENDBRANCH  20  22
ENDBRANCH  15  20
BRANCH  14  29
ATOM     29  O   UNL     1      -1.465  -1.250  -0.462  0.00  0.00    -0.391 OA
ATOM     30  H   UNL     1      -1.806  -2.153  -0.408  0.00  0.00    +0.210 HD
ENDBRANCH  14  29
BRANCH   9  31
ATOM     31  C   UNL     1       0.745   8.537   3.933  0.00  0.00    +0.018 C 
BRANCH  31  34
ATOM     32  C   UNL     1       1.494   9.967   2.128  0.00  0.00    -0.096 C 
ATOM     33  C   UNL     1       1.861  10.629   4.428  0.00  0.00    -0.096 C 
ATOM     34  N   UNL     1       1.790   9.486   3.493  0.00  0.00    +0.382 N 
ATOM     35  H   UNL     1       2.697   9.004   3.487  0.00  0.00    -0.082 HD
ENDBRANCH  31  34
ENDBRANCH   9  31
TORSDOF 5
