REMARK  Name = ZINC20709814
REMARK  6 active torsions:
REMARK  status: ('A' for Active; 'I' for Inactive)
REMARK    1  A    between atoms: C_2  and  C_3
REMARK    2  A    between atoms: C_3  and  O_4
REMARK    3  A    between atoms: O_4  and  C_5
REMARK    4  A    between atoms: C_18  and  C_21
REMARK    5  A    between atoms: C_23  and  N_28
REMARK    6  A    between atoms: C_26  and  O_27
REMARK                            x       y       z     vdW  Elec       q    Type
REMARK                         _______ _______ _______ _____ _____    ______ ____
ROOT
ATOM      1  C   UNL     1      -2.413   3.867  -0.289  0.00  0.00    +0.121 A 
ATOM      2  C   UNL     1      -1.677   2.692  -0.328  0.00  0.00    +0.047 A 
ATOM      3  C   UNL     1      -0.299   2.748  -0.264  0.00  0.00    +0.027 A 
ATOM      4  C   UNL     1       0.345   3.974  -0.156  0.00  0.00    +0.032 A 
ATOM      5  C   UNL     1      -0.385   5.152  -0.112  0.00  0.00    -0.016 A 
ATOM      6  C   UNL     1      -1.771   5.088  -0.177  0.00  0.00    +0.051 A 
ATOM      7  C   UNL     1       0.266   6.494  -0.001  0.00  0.00    +0.049 C 
ATOM      8  C   UNL     1       0.125   7.062   1.392  0.00  0.00    -0.023 C 
ATOM      9  C   UNL     1       1.186   7.735   1.726  0.00  0.00    -0.030 C 
ATOM     10  C   UNL     1       2.209   7.695   0.608  0.00  0.00    +0.033 C 
ATOM     11  C   UNL     1       1.791   6.442  -0.218  0.00  0.00    +0.029 C 
ATOM     12  C   UNL     1       2.377   5.216   0.487  0.00  0.00    +0.108 C 
ATOM     13  N   UNL     1       1.744   4.011  -0.088  0.00  0.00    -0.336 N 
ATOM     14  H   UNL     1       2.369   3.180  -0.446  0.00  0.00    +0.147 HD
ENDROOT
BRANCH  12  15
ATOM     15  C   UNL     1       2.107   5.308   1.967  0.00  0.00    +0.017 A 
ATOM     16  C   UNL     1       0.902   4.869   2.479  0.00  0.00    +0.041 A 
ATOM     17  C   UNL     1       0.656   4.948   3.837  0.00  0.00    +0.127 A 
ATOM     18  C   UNL     1       1.611   5.478   4.685  0.00  0.00    +0.036 A 
ATOM     19  C   UNL     1       2.816   5.923   4.178  0.00  0.00    +0.048 A 
ATOM     20  C   UNL     1       3.067   5.839   2.816  0.00  0.00    +0.122 A 
BRANCH  17  21
ATOM     21  N   UNL     1      -0.634   4.471   4.384  0.00  0.00    +0.056 N 
ATOM     22  O   UNL     1      -0.854   4.546   5.579  0.00  0.00    -0.126 OA
ATOM     23  O   UNL     1      -1.476   4.005   3.638  0.00  0.00    -0.126 OA
ENDBRANCH  17  21
BRANCH  20  24
ATOM     24  O   UNL     1       4.252   6.277   2.314  0.00  0.00    -0.506 OA
ATOM     25  H   UNL     1       5.013   6.698   2.988  0.00  0.00    +0.292 HD
ENDBRANCH  20  24
ENDBRANCH  12  15
BRANCH   1  26
ATOM     26  O   UNL     1      -3.771   3.819  -0.357  0.00  0.00    -0.488 OA
BRANCH  26  27
ATOM     27  C   UNL     1      -4.369   2.526  -0.467  0.00  0.00    +0.256 C 
BRANCH  27  29
ATOM     28  C   UNL     1      -6.556   1.986  -1.410  0.00  0.00    +0.007 C 
ATOM     29  C   UNL     1      -5.868   2.670  -0.530  0.00  0.00    +0.006 C 
ENDBRANCH  27  29
ENDBRANCH  26  27
ENDBRANCH   1  26
TORSDOF 6
