REMARK  Name = ZINC20284231
REMARK  11 active torsions:
REMARK  status: ('A' for Active; 'I' for Inactive)
REMARK    1  A    between atoms: C_1  and  C_2
REMARK    2  A    between atoms: C_4  and  N_9
REMARK    3  A    between atoms: C_10  and  C_12
REMARK    4  A    between atoms: C_12  and  C_14
REMARK    5  A    between atoms: C_12  and  N_18
REMARK    6  A    between atoms: C_14  and  C_15
REMARK    7  A    between atoms: C_15  and  C_16
REMARK    8  A    between atoms: C_15  and  C_17
REMARK    9  A    between atoms: N_18  and  S_19
REMARK   10  A    between atoms: S_19  and  C_22
REMARK   11  A    between atoms: N_31  and  C_32
REMARK                            x       y       z     vdW  Elec       q    Type
REMARK                         _______ _______ _______ _____ _____    ______ ____
ROOT
ATOM      1  C   UNL     1      -1.154   0.024   2.480  0.00  0.00    +0.163 C 
ENDROOT
BRANCH   1   3
ATOM      2  N   UNL     1      -1.874   0.766   4.727  0.00  0.00    -0.284 N 
ATOM      3  C   UNL     1      -0.861   0.475   3.888  0.00  0.00    +0.236 C 
ATOM      4  O   UNL     1       0.288   0.577   4.265  0.00  0.00    -0.274 OA
ATOM      5  H   UNL     1      -2.914   0.595   4.414  0.00  0.00    +0.155 HD
BRANCH   2   9
ATOM      6  C   UNL     1       1.011   0.930   8.705  0.00  0.00    +0.045 C 
ATOM      7  C   UNL     1      -0.211   1.384   7.948  0.00  0.00    -0.035 A 
ATOM      8  C   UNL     1      -0.477   0.868   6.695  0.00  0.00    +0.027 A 
ATOM      9  C   UNL     1      -1.602   1.287   5.998  0.00  0.00    +0.034 A 
ATOM     10  C   UNL     1      -2.455   2.227   6.562  0.00  0.00    +0.024 A 
ATOM     11  C   UNL     1      -2.188   2.734   7.818  0.00  0.00    +0.017 A 
ATOM     12  C   UNL     1      -1.065   2.316   8.510  0.00  0.00    +0.021 A 
ATOM     13 BR   UNL     1      -0.699   3.018  10.227  0.00  0.00    -0.050 Br
ENDBRANCH   2   9
ENDBRANCH   1   3
BRANCH   1  14
ATOM     14  N   UNL     1       0.034   0.223   1.646  0.00  0.00    -0.178 NA
ATOM     15  H   UNL     1       1.034   0.221   2.103  0.00  0.00    +0.149 HD
BRANCH  14  16
ATOM     16  S   UNL     1      -0.133   0.695   0.067  0.00  0.00    +0.059 S 
ATOM     17  O   UNL     1      -1.078  -0.188  -0.523  0.00  0.00    -0.153 OA
ATOM     18  O   UNL     1       1.181   0.860  -0.448  0.00  0.00    -0.153 OA
BRANCH  16  19
ATOM     19  C   UNL     1      -0.875   2.293   0.077  0.00  0.00    +0.109 A 
ATOM     20  C   UNL     1      -0.076   3.423   0.117  0.00  0.00    +0.031 A 
ATOM     21  C   UNL     1      -0.650   4.679   0.125  0.00  0.00    +0.031 A 
ATOM     22  C   UNL     1      -2.030   4.807   0.093  0.00  0.00    +0.090 A 
ATOM     23  C   UNL     1      -2.836   3.670   0.053  0.00  0.00    +0.159 A 
ATOM     24  C   UNL     1      -2.251   2.413   0.039  0.00  0.00    +0.077 A 
ATOM     25  O   UNL     1      -4.124   4.089   0.028  0.00  0.00    -0.407 OA
ATOM     26  C   UNL     1      -4.151   5.431   0.052  0.00  0.00    +0.421 A 
ATOM     27  O   UNL     1      -5.158   6.114   0.040  0.00  0.00    -0.223 OA
ATOM     28  N   UNL     1      -2.890   5.905   0.091  0.00  0.00    -0.277 N 
ATOM     29  C   UNL     1      -2.495   7.315   0.127  0.00  0.00    +0.156 C 
ENDBRANCH  16  19
ENDBRANCH  14  16
ENDBRANCH   1  14
BRANCH   1  30
ATOM     30  C   UNL     1      -1.529  -1.459   2.488  0.00  0.00    +0.032 C 
BRANCH  30  31
ATOM     31  C   UNL     1      -2.835  -1.651   3.262  0.00  0.00    -0.015 C 
ATOM     32  C   UNL     1      -3.982  -0.985   2.499  0.00  0.00    +0.007 C 
ATOM     33  C   UNL     1      -3.123  -3.146   3.413  0.00  0.00    +0.007 C 
ENDBRANCH  30  31
ENDBRANCH   1  30
TORSDOF 7
