REMARK  Name = ZINC67535636
REMARK  13 active torsions:
REMARK  status: ('A' for Active; 'I' for Inactive)
REMARK    1  A    between atoms: C_1  and  C_2
REMARK    2  A    between atoms: C_3  and  C_9
REMARK    3  A    between atoms: C_4  and  C_8
REMARK    4  A    between atoms: N_5  and  C_7
REMARK    5  A    between atoms: C_9  and  C_11
REMARK    6  A    between atoms: C_9  and  N_12
REMARK    7  A    between atoms: N_15  and  C_16
REMARK    8  A    between atoms: C_16  and  C_17
REMARK    9  A    between atoms: C_24  and  O_26
REMARK   10  A    between atoms: O_26  and  C_27
REMARK   11  A    between atoms: C_27  and  C_28
REMARK   12  A    between atoms: C_27  and  C_29
REMARK   13  A    between atoms: C_27  and  C_30
REMARK                            x       y       z     vdW  Elec       q    Type
REMARK                         _______ _______ _______ _____ _____    ______ ____
ROOT
ATOM      1  N   UNL     1       0.996   0.725  -2.710  0.00  0.00    -0.293 N 
ATOM      2  C   UNL     1       1.526   0.982  -3.922  0.00  0.00    +0.300 C 
ATOM      3  O   UNL     1       1.214   0.300  -4.879  0.00  0.00    -0.253 OA
ATOM      4  N   UNL     1       2.403   1.994  -4.074  0.00  0.00    -0.298 N 
ATOM      5  H   UNL     1       1.246   1.269  -1.947  0.00  0.00    +0.151 HD
ATOM      6  H   UNL     1       2.653   2.538  -3.311  0.00  0.00    +0.150 HD
ENDROOT
BRANCH   1   7
ATOM      7  C   UNL     1       0.043  -0.375  -2.545  0.00  0.00    +0.105 C 
ATOM      8  C   UNL     1      -1.364   0.113  -2.895  0.00  0.00    +0.033 C 
BRANCH   7  11
ATOM      9  C   UNL     1       0.035   1.467   0.034  0.00  0.00    +0.068 C 
ATOM     10  C   UNL     1       0.065  -0.040   0.023  0.00  0.00    +0.065 A 
ATOM     11  C   UNL     1       0.069  -0.852  -1.116  0.00  0.00    +0.016 A 
ATOM     12  C   UNL     1       0.099  -2.142  -0.707  0.00  0.00    +0.041 A 
ATOM     13  N   UNL     1       0.114  -2.145   0.642  0.00  0.00    -0.271 N 
ATOM     14  N   UNL     1       0.097  -0.814   1.077  0.00  0.00    -0.176 NA
ATOM     15  C   UNL     1       0.146  -3.332   1.500  0.00  0.00    +0.172 C 
ATOM     16  C   UNL     1       0.113  -3.356  -1.599  0.00  0.00    +0.065 C 
ENDBRANCH   7  11
ENDBRANCH   1   7
BRANCH   4  17
ATOM     17  C   UNL     1       2.979   2.273  -5.392  0.00  0.00    +0.128 C 
BRANCH  17  18
ATOM     18  C   UNL     1       3.838   3.537  -5.316  0.00  0.00    +0.096 C 
ATOM     19  C   UNL     1       2.967   4.725  -4.893  0.00  0.00    +0.024 C 
ATOM     20  C   UNL     1       3.798   6.008  -4.954  0.00  0.00    +0.003 C 
ATOM     21  C   UNL     1       4.272   6.244  -6.390  0.00  0.00    +0.019 C 
ATOM     22  C   UNL     1       5.157   5.074  -6.829  0.00  0.00    +0.111 C 
ATOM     23  N   UNL     1       4.418   3.819  -6.636  0.00  0.00    -0.263 N 
ATOM     24  C   UNL     1       4.271   2.944  -7.651  0.00  0.00    +0.404 C 
ATOM     25  O   UNL     1       3.572   1.960  -7.509  0.00  0.00    -0.226 OA
BRANCH  24  26
ATOM     26  O   UNL     1       4.899   3.161  -8.822  0.00  0.00    -0.445 OA
BRANCH  26  27
ATOM     27  C   UNL     1       4.699   2.193  -9.854  0.00  0.00    +0.107 C 
ATOM     28  C   UNL     1       3.210   2.112 -10.195  0.00  0.00    +0.055 C 
ATOM     29  C   UNL     1       5.486   2.605 -11.100  0.00  0.00    +0.055 C 
ATOM     30  C   UNL     1       5.187   0.825  -9.373  0.00  0.00    +0.055 C 
ENDBRANCH  26  27
ENDBRANCH  24  26
ENDBRANCH  17  18
ENDBRANCH   4  17
TORSDOF 6
