REMARK  Name = ZINC49151991
REMARK  8 active torsions:
REMARK  status: ('A' for Active; 'I' for Inactive)
REMARK    1  A    between atoms: C_1  and  C_2
REMARK    2  A    between atoms: C_2  and  C_3
REMARK    3  A    between atoms: C_3  and  C_4
REMARK    4  A    between atoms: C_4  and  C_5
REMARK    5  A    between atoms: C_5  and  N_6
REMARK    6  A    between atoms: N_9  and  N_10
REMARK    7  A    between atoms: N_10  and  S_11
REMARK    8  A    between atoms: S_11  and  C_14
REMARK                            x       y       z     vdW  Elec       q    Type
REMARK                         _______ _______ _______ _____ _____    ______ ____
ROOT
ATOM      1  N   UNL     1       1.489  -6.708  -2.507  0.00  0.00    -0.107 NA
ATOM      2  H   UNL     1       1.761  -6.535  -1.592  0.00  0.00    +0.172 HD
ENDROOT
BRANCH   1   6
ATOM      3  N   UNL     1       1.475  -3.986  -2.532  0.00  0.00    -0.298 N 
ATOM      4  C   UNL     1       2.058  -4.646  -3.552  0.00  0.00    +0.315 C 
ATOM      5  O   UNL     1       2.567  -4.026  -4.465  0.00  0.00    -0.251 OA
ATOM      6  N   UNL     1       2.076  -5.994  -3.559  0.00  0.00    -0.216 N 
ATOM      7  H   UNL     1       1.069  -4.480  -1.803  0.00  0.00    +0.150 HD
ATOM      8  H   UNL     1       2.496  -6.469  -4.294  0.00  0.00    +0.172 HD
BRANCH   3   9
ATOM      9  C   UNL     1       1.455  -2.521  -2.524  0.00  0.00    +0.106 C 
BRANCH   9  10
ATOM     10  C   UNL     1       0.739  -2.027  -1.265  0.00  0.00    +0.019 C 
BRANCH  10  11
ATOM     11  C   UNL     1       0.718  -0.497  -1.257  0.00  0.00    +0.001 C 
BRANCH  11  13
ATOM     12  C   UNL     1      -0.019   1.526   0.010  0.00  0.00    +0.004 C 
ATOM     13  C   UNL     1       0.002  -0.004   0.002  0.00  0.00    -0.003 C 
ENDBRANCH  11  13
ENDBRANCH  10  11
ENDBRANCH   9  10
ENDBRANCH   3   9
ENDBRANCH   1   6
BRANCH   1  14
ATOM     14  S   UNL     1       0.331  -7.848  -2.825  0.00  0.00    +0.074 S 
ATOM     15  O   UNL     1       0.042  -8.489  -1.589  0.00  0.00    -0.152 OA
ATOM     16  O   UNL     1      -0.670  -7.205  -3.602  0.00  0.00    -0.152 OA
BRANCH  14  17
ATOM     17  C   UNL     1       1.070  -9.066  -3.862  0.00  0.00    +0.107 A 
ATOM     18  C   UNL     1       1.022  -8.924  -5.236  0.00  0.00    +0.029 A 
ATOM     19  C   UNL     1       1.602  -9.879  -6.051  0.00  0.00    +0.016 A 
ATOM     20  C   UNL     1       2.229 -10.976  -5.490  0.00  0.00    +0.013 A 
ATOM     21  C   UNL     1       2.277 -11.118  -4.116  0.00  0.00    +0.016 A 
ATOM     22  C   UNL     1       1.702 -10.160  -3.302  0.00  0.00    +0.029 A 
ATOM     23  I   UNL     1       3.107 -12.424  -6.724  0.00  0.00    -0.044 I 
ENDBRANCH  14  17
ENDBRANCH   1  14
TORSDOF 7
