REMARK  Name = ZINC23564288
REMARK  9 active torsions:
REMARK  status: ('A' for Active; 'I' for Inactive)
REMARK    1  A    between atoms: C_1  and  C_2
REMARK    2  A    between atoms: C_5  and  C_34
REMARK    3  A    between atoms: C_6  and  N_8
REMARK    4  A    between atoms: C_18  and  S_19
REMARK    5  A    between atoms: S_19  and  C_20
REMARK    6  A    between atoms: C_20  and  C_21
REMARK    7  A    between atoms: N_23  and  C_24
REMARK    8  A    between atoms: C_25  and  C_33
REMARK    9  A    between atoms: C_29  and  N_30
REMARK                            x       y       z     vdW  Elec       q    Type
REMARK                         _______ _______ _______ _____ _____    ______ ____
ROOT
ATOM      1  N   UNL     1      -0.231  -2.053   2.149  0.00  0.00    -0.255 N 
ATOM      2  C   UNL     1       1.003  -1.527   1.974  0.00  0.00    +0.267 A 
ATOM      3  O   UNL     1       1.965  -1.958   2.584  0.00  0.00    -0.267 OA
ATOM      4  C   UNL     1       1.141  -0.417   1.023  0.00  0.00    +0.065 A 
ATOM      5  C   UNL     1       2.370   0.192   0.774  0.00  0.00    +0.015 A 
ATOM      6  C   UNL     1       2.442   1.223  -0.122  0.00  0.00    +0.001 A 
ATOM      7  C   UNL     1       1.305   1.668  -0.785  0.00  0.00    +0.002 A 
ATOM      8  C   UNL     1       0.088   1.089  -0.560  0.00  0.00    +0.028 A 
ATOM      9  C   UNL     1      -0.018   0.034   0.350  0.00  0.00    +0.079 A 
ATOM     10  N   UNL     1      -1.204  -0.568   0.603  0.00  0.00    -0.223 NA
ATOM     11  C   UNL     1      -1.302  -1.557   1.457  0.00  0.00    +0.177 A 
ENDROOT
BRANCH   1  17
ATOM     12  C   UNL     1      -1.221  -3.623   6.703  0.00  0.00    +0.044 C 
ATOM     13  C   UNL     1      -0.895  -3.903   5.259  0.00  0.00    -0.048 A 
ATOM     14  C   UNL     1      -0.777  -5.208   4.817  0.00  0.00    +0.004 A 
ATOM     15  C   UNL     1      -0.479  -5.469   3.492  0.00  0.00    +0.005 A 
ATOM     16  C   UNL     1      -0.302  -4.425   2.605  0.00  0.00    -0.026 A 
ATOM     17  C   UNL     1      -0.415  -3.114   3.046  0.00  0.00    +0.055 A 
ATOM     18  C   UNL     1      -0.715  -2.855   4.377  0.00  0.00    +0.030 A 
ATOM     19  C   UNL     1       0.017  -4.710   1.160  0.00  0.00    +0.046 C 
ENDBRANCH   1  17
BRANCH  11  20
ATOM     20  S   UNL     1      -2.885  -2.281   1.727  0.00  0.00    -0.078 S 
BRANCH  20  21
ATOM     21  C   UNL     1      -3.886  -1.277   0.601  0.00  0.00    +0.173 C 
BRANCH  21  22
ATOM     22  C   UNL     1      -5.322  -1.730   0.665  0.00  0.00    +0.228 C 
ATOM     23  O   UNL     1      -5.637  -2.642   1.400  0.00  0.00    -0.275 OA
ATOM     24  N   UNL     1      -6.255  -1.122  -0.094  0.00  0.00    -0.283 N 
ATOM     25  H   UNL     1      -5.984  -0.245  -0.700  0.00  0.00    +0.155 HD
BRANCH  24  26
ATOM     26  C   UNL     1      -7.567  -1.607  -0.111  0.00  0.00    +0.067 A 
ATOM     27  C   UNL     1      -7.810  -2.950  -0.370  0.00  0.00    -0.027 A 
ATOM     28  C   UNL     1      -9.106  -3.425  -0.385  0.00  0.00    +0.005 A 
ATOM     29  C   UNL     1     -10.163  -2.566  -0.143  0.00  0.00    +0.003 A 
ATOM     30  C   UNL     1      -9.924  -1.228   0.115  0.00  0.00    +0.034 A 
ATOM     31  C   UNL     1      -8.630  -0.748   0.137  0.00  0.00    +0.148 A 
ATOM     32  C   UNL     1      -6.660  -3.887  -0.634  0.00  0.00    +0.046 C 
BRANCH  31  33
ATOM     33  N   UNL     1      -8.375   0.683   0.420  0.00  0.00    +0.058 N 
ATOM     34  O   UNL     1      -9.309   1.457   0.529  0.00  0.00    -0.126 OA
ATOM     35  O   UNL     1      -7.232   1.085   0.543  0.00  0.00    -0.126 OA
ENDBRANCH  31  33
ENDBRANCH  24  26
ENDBRANCH  21  22
ENDBRANCH  20  21
ENDBRANCH  11  20
TORSDOF 6
