REMARK  Name = ZINC36367446
REMARK  12 active torsions:
REMARK  status: ('A' for Active; 'I' for Inactive)
REMARK    1  A    between atoms: C_1  and  N_2
REMARK    2  A    between atoms: N_2  and  C_3
REMARK    3  A    between atoms: C_9  and  O_34
REMARK    4  A    between atoms: C_10  and  O_32
REMARK    5  A    between atoms: C_11  and  O_30
REMARK    6  A    between atoms: C_18  and  N_21
REMARK    7  A    between atoms: N_21  and  C_22
REMARK    8  A    between atoms: C_22  and  C_23
REMARK    9  A    between atoms: C_23  and  N_24
REMARK   10  A    between atoms: O_30  and  C_31
REMARK   11  A    between atoms: O_32  and  C_33
REMARK   12  A    between atoms: O_34  and  C_35
REMARK                            x       y       z     vdW  Elec       q    Type
REMARK                         _______ _______ _______ _____ _____    ______ ____
ROOT
ATOM      1  C   UNL     1      -1.303  -0.511  -0.140  0.00  0.00    -0.040 C 
ATOM      2  C   UNL     1      -1.321  -2.017  -0.308  0.00  0.00    -0.007 C 
ATOM      3  C   UNL     1      -2.655  -2.604   0.142  0.00  0.00    +0.035 C 
ATOM      4  C   UNL     1      -3.786  -1.761  -0.391  0.00  0.00    -0.033 A 
ATOM      5  C   UNL     1      -4.530  -2.199  -1.467  0.00  0.00    +0.054 A 
ATOM      6  C   UNL     1      -5.578  -1.425  -1.948  0.00  0.00    +0.165 A 
ATOM      7  C   UNL     1      -5.884  -0.208  -1.350  0.00  0.00    +0.204 A 
ATOM      8  C   UNL     1      -5.137   0.241  -0.269  0.00  0.00    +0.173 A 
ATOM      9  C   UNL     1      -4.080  -0.541   0.207  0.00  0.00    +0.031 A 
ATOM     10  C   UNL     1      -3.256  -0.052   1.353  0.00  0.00    -0.012 A 
ATOM     11  C   UNL     1      -1.870  -0.089   1.201  0.00  0.00    -0.050 A 
ATOM     12  C   UNL     1      -0.975   0.219   2.156  0.00  0.00    +0.055 A 
ATOM     13  C   UNL     1      -1.102   0.654   3.444  0.00  0.00    +0.200 A 
ATOM     14  O   UNL     1      -0.058   0.768   4.072  0.00  0.00    -0.286 OA
ATOM     15  C   UNL     1      -2.265   0.986   4.135  0.00  0.00    +0.074 A 
ATOM     16  C   UNL     1      -3.533   0.859   3.653  0.00  0.00    +0.027 A 
ATOM     17  C   UNL     1      -3.938   0.399   2.455  0.00  0.00    +0.011 A 
ENDROOT
BRANCH   1  19
ATOM     18  C   UNL     1       0.589  -0.297  -1.599  0.00  0.00    -0.100 C 
ATOM     19  N   UNL     1       0.082  -0.033  -0.245  0.00  0.00    +0.382 N 
ATOM     20  H   UNL     1       0.656  -0.516   0.429  0.00  0.00    -0.085 HD
ATOM     21  H   UNL     1       0.111   0.959  -0.063  0.00  0.00    -0.085 HD
ENDBRANCH   1  19
BRANCH  15  22
ATOM     22  N   UNL     1      -2.120   1.486   5.418  0.00  0.00    -0.340 N 
ATOM     23  H   UNL     1      -1.234   1.592   5.800  0.00  0.00    +0.146 HD
BRANCH  22  24
ATOM     24  C   UNL     1      -3.303   1.854   6.199  0.00  0.00    +0.117 C 
BRANCH  24  25
ATOM     25  C   UNL     1      -2.868   2.374   7.571  0.00  0.00    +0.103 C 
BRANCH  25  26
ATOM     26  N   UNL     1      -4.055   2.743   8.354  0.00  0.00    -0.297 NA
ATOM     27  C   UNL     1      -4.745   3.894   7.753  0.00  0.00    +0.112 C 
ATOM     28  C   UNL     1      -6.005   4.207   8.565  0.00  0.00    +0.175 C 
ATOM     29  O   UNL     1      -5.642   4.444   9.928  0.00  0.00    -0.377 OA
ATOM     30  C   UNL     1      -4.968   3.343  10.544  0.00  0.00    +0.175 C 
ATOM     31  C   UNL     1      -3.698   3.022   9.752  0.00  0.00    +0.112 C 
ENDBRANCH  25  26
ENDBRANCH  24  25
ENDBRANCH  22  24
ENDBRANCH  15  22
BRANCH   8  32
ATOM     32  O   UNL     1      -5.430   1.430   0.321  0.00  0.00    -0.491 OA
ATOM     33  C   UNL     1      -4.854   2.602  -0.260  0.00  0.00    +0.277 C 
ENDBRANCH   8  32
BRANCH   7  34
ATOM     34  O   UNL     1      -6.915   0.544  -1.824  0.00  0.00    -0.488 OA
ATOM     35  C   UNL     1      -8.204   0.310  -1.254  0.00  0.00    +0.277 C 
ENDBRANCH   7  34
BRANCH   6  36
ATOM     36  O   UNL     1      -6.308  -1.860  -3.009  0.00  0.00    -0.491 OA
ATOM     37  C   UNL     1      -5.941  -3.119  -3.577  0.00  0.00    +0.277 C 
ENDBRANCH   6  36
TORSDOF 8
