REMARK  Name = ZINC28372522
REMARK  8 active torsions:
REMARK  status: ('A' for Active; 'I' for Inactive)
REMARK    1  A    between atoms: C_1  and  C_2
REMARK    2  A    between atoms: C_6  and  N_8
REMARK    3  A    between atoms: C_9  and  C_11
REMARK    4  A    between atoms: C_11  and  S_12
REMARK    5  A    between atoms: S_12  and  C_13
REMARK    6  A    between atoms: C_16  and  C_25
REMARK    7  A    between atoms: N_17  and  C_18
REMARK    8  A    between atoms: C_18  and  C_19
REMARK                            x       y       z     vdW  Elec       q    Type
REMARK                         _______ _______ _______ _____ _____    ______ ____
ROOT
ATOM      1  C   UNL     1      -4.321   0.127  -0.224  0.00  0.00    +0.192 A 
ATOM      2  N   UNL     1      -4.659   1.380  -0.028  0.00  0.00    -0.122 NA
ATOM      3  N   UNL     1      -3.616   2.084   0.233  0.00  0.00    -0.128 NA
ATOM      4  C   UNL     1      -2.545   1.324   0.212  0.00  0.00    +0.167 A 
ATOM      5  N   UNL     1      -2.963   0.046  -0.078  0.00  0.00    -0.300 N 
ENDROOT
BRANCH   4   6
ATOM      6  C   UNL     1      -1.155   1.759   0.459  0.00  0.00    +0.044 A 
ATOM      7  C   UNL     1      -0.060   1.430  -0.274  0.00  0.00    +0.095 A 
ATOM      8  N   UNL     1       1.046   2.027   0.258  0.00  0.00    -0.360 N 
ATOM      9  H   UNL     1       2.031   1.876  -0.209  0.00  0.00    +0.165 HD
ATOM     10  C   UNL     1       0.701   2.765   1.370  0.00  0.00    +0.047 A 
ATOM     11  C   UNL     1      -0.686   2.631   1.550  0.00  0.00    +0.010 A 
ATOM     12  C   UNL     1      -1.319   3.277   2.610  0.00  0.00    +0.011 A 
ATOM     13  C   UNL     1      -0.577   4.047   3.479  0.00  0.00    +0.001 A 
ATOM     14  C   UNL     1       0.793   4.181   3.302  0.00  0.00    +0.002 A 
ATOM     15  C   UNL     1       1.431   3.547   2.258  0.00  0.00    +0.026 A 
ENDBRANCH   4   6
BRANCH   1  16
ATOM     16  S   UNL     1      -5.412  -1.203  -0.603  0.00  0.00    -0.077 S 
BRANCH  16  17
ATOM     17  C   UNL     1      -6.991  -0.318  -0.624  0.00  0.00    +0.173 C 
BRANCH  17  19
ATOM     18  N   UNL     1      -9.377  -0.847  -1.006  0.00  0.00    -0.285 N 
ATOM     19  C   UNL     1      -8.104  -1.284  -0.937  0.00  0.00    +0.227 C 
ATOM     20  O   UNL     1      -7.855  -2.456  -1.128  0.00  0.00    -0.275 OA
ATOM     21  H   UNL     1      -9.595   0.227  -0.911  0.00  0.00    +0.155 HD
BRANCH  18  27
ATOM     22  C   UNL     1     -11.059  -4.986  -3.056  0.00  0.00    +0.044 C 
ATOM     23  C   UNL     1     -11.264  -3.774  -2.185  0.00  0.00    -0.049 A 
ATOM     24  C   UNL     1     -12.486  -3.561  -1.574  0.00  0.00    +0.003 A 
ATOM     25  C   UNL     1     -12.678  -2.449  -0.775  0.00  0.00    +0.002 A 
ATOM     26  C   UNL     1     -11.649  -1.547  -0.584  0.00  0.00    +0.023 A 
ATOM     27  C   UNL     1     -10.421  -1.758  -1.196  0.00  0.00    +0.034 A 
ATOM     28  C   UNL     1     -10.233  -2.873  -2.003  0.00  0.00    +0.026 A 
ENDBRANCH  18  27
ENDBRANCH  17  19
ENDBRANCH  16  17
ENDBRANCH   1  16
BRANCH   5  29
ATOM     29  C   UNL     1      -2.128  -1.151  -0.205  0.00  0.00    +0.157 C 
BRANCH  29  30
ATOM     30  C   UNL     1      -1.894  -1.759   1.180  0.00  0.00    +0.138 C 
ATOM     31  C   UNL     1      -0.918  -2.950   1.071  0.00  0.00    +0.035 C 
ATOM     32  C   UNL     1      -1.528  -3.967   2.076  0.00  0.00    +0.031 C 
ATOM     33  C   UNL     1      -3.041  -3.675   1.909  0.00  0.00    +0.160 C 
ATOM     34  O   UNL     1      -3.129  -2.256   1.708  0.00  0.00    -0.375 OA
ENDBRANCH  29  30
ENDBRANCH   5  29
TORSDOF 7
