REMARK  Name = ZINC52636824
REMARK  10 active torsions:
REMARK  status: ('A' for Active; 'I' for Inactive)
REMARK    1  A    between atoms: C_1  and  C_2
REMARK    2  A    between atoms: C_2  and  C_38
REMARK    3  A    between atoms: N_20  and  C_21
REMARK    4  A    between atoms: C_21  and  C_23
REMARK    5  A    between atoms: C_21  and  C_28
REMARK    6  A    between atoms: C_23  and  C_24
REMARK    7  A    between atoms: C_24  and  C_25
REMARK    8  A    between atoms: C_28  and  O_30
REMARK    9  A    between atoms: O_30  and  C_31
REMARK   10  A    between atoms: C_31  and  C_32
REMARK                            x       y       z     vdW  Elec       q    Type
REMARK                         _______ _______ _______ _____ _____    ______ ____
ROOT
ATOM      1  C   UNL     1      -0.019   1.526   0.010  0.00  0.00    +0.049 C 
ATOM      2  C   UNL     1       0.002  -0.004   0.002  0.00  0.00    +0.087 C 
ATOM      3  N   UNL     1      -1.363  -0.542   0.122  0.00  0.00    -0.268 NA
ATOM      4  C   UNL     1      -2.409   0.130  -0.641  0.00  0.00    +0.116 C 
ATOM      5  C   UNL     1      -3.689  -0.693  -0.437  0.00  0.00    +0.120 C 
ATOM      6  C   UNL     1      -3.876  -0.887   1.062  0.00  0.00    -0.035 C 
ATOM      7  C   UNL     1      -5.115  -0.503   1.336  0.00  0.00    -0.001 A 
ATOM      8  C   UNL     1      -5.907  -0.549   2.575  0.00  0.00    +0.010 A 
ATOM      9  C   UNL     1      -7.166  -0.043   2.501  0.00  0.00    +0.001 A 
ATOM     10  C   UNL     1      -7.711   0.498   1.333  0.00  0.00    +0.002 A 
ATOM     11  C   UNL     1      -7.058   0.573   0.145  0.00  0.00    +0.026 A 
ATOM     12  C   UNL     1      -5.727   0.066   0.096  0.00  0.00    +0.043 A 
ATOM     13  N   UNL     1      -4.888  -0.011  -0.915  0.00  0.00    -0.376 N 
ATOM     14  C   UNL     1      -2.744  -1.323   1.974  0.00  0.00    +0.062 C 
ATOM     15  C   UNL     1      -1.585  -0.400   1.587  0.00  0.00    +0.149 C 
ATOM     16  C   UNL     1      -0.254  -0.801   2.160  0.00  0.00    +0.235 C 
ATOM     17  O   UNL     1      -0.053  -1.279   3.257  0.00  0.00    -0.274 OA
ATOM     18  N   UNL     1       0.684  -0.524   1.212  0.00  0.00    -0.269 N 
ATOM     19  C   UNL     1       0.681  -0.525  -1.266  0.00  0.00    +0.049 C 
ATOM     20  H   UNL     1      -5.031   0.325  -1.814  0.00  0.00    +0.160 HD
ENDROOT
BRANCH  18  21
ATOM     21  C   UNL     1       2.129  -0.710   1.362  0.00  0.00    +0.187 C 
BRANCH  21  22
ATOM     22  C   UNL     1       2.422  -2.162   1.639  0.00  0.00    +0.328 C 
ATOM     23  O   UNL     1       1.517  -2.960   1.704  0.00  0.00    -0.249 OA
BRANCH  22  24
ATOM     24  O   UNL     1       3.689  -2.570   1.813  0.00  0.00    -0.459 OA
BRANCH  24  25
ATOM     25  C   UNL     1       3.894  -3.960   2.072  0.00  0.00    +0.267 C 
BRANCH  25  26
ATOM     26  C   UNL     1       5.368  -4.229   2.239  0.00  0.00    -0.010 A 
ATOM     27  C   UNL     1       6.140  -4.551   1.139  0.00  0.00    +0.007 A 
ATOM     28  C   UNL     1       7.492  -4.797   1.292  0.00  0.00    +0.000 A 
ATOM     29  C   UNL     1       8.071  -4.721   2.545  0.00  0.00    +0.000 A 
ATOM     30  C   UNL     1       7.298  -4.397   3.645  0.00  0.00    +0.000 A 
ATOM     31  C   UNL     1       5.948  -4.147   3.491  0.00  0.00    +0.007 A 
ENDBRANCH  25  26
ENDBRANCH  24  25
ENDBRANCH  22  24
ENDBRANCH  21  22
BRANCH  21  32
ATOM     32  C   UNL     1       2.635   0.143   2.527  0.00  0.00    +0.043 C 
BRANCH  32  33
ATOM     33  C   UNL     1       2.451   1.625   2.191  0.00  0.00    +0.098 C 
BRANCH  33  34
ATOM     34  C   UNL     1       2.949   2.465   3.338  0.00  0.00    +0.211 C 
ATOM     35  O   UNL     1       3.407   1.932   4.327  0.00  0.00    -0.276 OA
ATOM     36  N   UNL     1       2.886   3.810   3.265  0.00  0.00    -0.329 N 
ATOM     37  H   UNL     1       2.520   4.236   2.475  0.00  0.00    +0.145 HD
ATOM     38  H   UNL     1       3.207   4.351   4.004  0.00  0.00    +0.145 HD
ENDBRANCH  33  34
ENDBRANCH  32  33
ENDBRANCH  21  32
ENDBRANCH  18  21
TORSDOF 8
