REMARK  Name = ZINC39676905
REMARK  11 active torsions:
REMARK  status: ('A' for Active; 'I' for Inactive)
REMARK    1  A    between atoms: C_1  and  C_2
REMARK    2  A    between atoms: C_5  and  C_36
REMARK    3  A    between atoms: C_6  and  C_8
REMARK    4  A    between atoms: C_8  and  C_9
REMARK    5  A    between atoms: C_9  and  N_10
REMARK    6  A    between atoms: C_11  and  C_13
REMARK    7  A    between atoms: C_24  and  C_26
REMARK    8  A    between atoms: C_29  and  O_34
REMARK    9  A    between atoms: C_30  and  O_32
REMARK   10  A    between atoms: O_32  and  C_33
REMARK   11  A    between atoms: O_34  and  C_35
REMARK                            x       y       z     vdW  Elec       q    Type
REMARK                         _______ _______ _______ _____ _____    ______ ____
ROOT
ATOM      1  C   UNL     1       2.454  -5.392   6.515  0.00  0.00    +0.100 C 
ATOM      2  C   UNL     1       1.643  -6.622   6.051  0.00  0.00    +0.121 C 
ATOM      3  N   UNL     1       2.667  -7.623   5.667  0.00  0.00    -0.296 N 
ATOM      4  C   UNL     1       3.728  -7.475   6.691  0.00  0.00    +0.115 C 
ATOM      5  C   UNL     1       3.821  -5.956   6.938  0.00  0.00    -0.004 C 
ATOM      6  C   UNL     1       4.074  -5.675   8.416  0.00  0.00    -0.010 C 
ATOM      7  C   UNL     1       5.463  -6.194   8.799  0.00  0.00    -0.082 C 
ATOM      8  N   UNL     1       6.479  -5.531   7.973  0.00  0.00    +0.379 N 
ATOM      9  C   UNL     1       6.284  -5.882   6.561  0.00  0.00    -0.082 C 
ATOM     10  C   UNL     1       4.930  -5.350   6.084  0.00  0.00    -0.010 C 
ATOM     11  C   UNL     1       2.639  -8.474   4.623  0.00  0.00    +0.247 C 
ATOM     12  O   UNL     1       1.754  -8.390   3.793  0.00  0.00    -0.270 OA
ATOM     13  H   UNL     1       6.401  -4.531   8.084  0.00  0.00    -0.086 HD
ATOM     14  H   UNL     1       7.397  -5.828   8.269  0.00  0.00    -0.086 HD
ENDROOT
BRANCH  11  15
ATOM     15  C   UNL     1       3.683  -9.509   4.486  0.00  0.00    +0.041 A 
ATOM     16  C   UNL     1       4.422  -9.909   5.602  0.00  0.00    +0.017 A 
ATOM     17  C   UNL     1       5.396 -10.875   5.473  0.00  0.00    +0.050 A 
ATOM     18  C   UNL     1       5.646 -11.453   4.236  0.00  0.00    +0.162 A 
ATOM     19  C   UNL     1       4.912 -11.057   3.118  0.00  0.00    +0.162 A 
ATOM     20  C   UNL     1       3.930 -10.094   3.242  0.00  0.00    +0.062 A 
BRANCH  19  21
ATOM     21  O   UNL     1       5.160 -11.624   1.907  0.00  0.00    -0.491 OA
ATOM     22  C   UNL     1       4.371 -11.172   0.805  0.00  0.00    +0.277 C 
ENDBRANCH  19  21
BRANCH  18  23
ATOM     23  O   UNL     1       6.607 -12.404   4.114  0.00  0.00    -0.491 OA
ATOM     24  C   UNL     1       7.321 -12.761   5.299  0.00  0.00    +0.277 C 
ENDBRANCH  18  23
ENDBRANCH  11  15
BRANCH   1  26
ATOM     25  N   UNL     1       2.849  -3.112   5.641  0.00  0.00    -0.315 N 
ATOM     26  C   UNL     1       2.619  -4.414   5.380  0.00  0.00    +0.218 C 
ATOM     27  O   UNL     1       2.544  -4.798   4.232  0.00  0.00    -0.275 OA
ATOM     28  H   UNL     1       2.908  -2.804   6.559  0.00  0.00    +0.149 HD
BRANCH  25  29
ATOM     29  C   UNL     1       3.009  -2.161   4.538  0.00  0.00    +0.109 C 
BRANCH  29  30
ATOM     30  C   UNL     1       3.258  -0.761   5.103  0.00  0.00    +0.054 C 
BRANCH  30  36
ATOM     31  C   UNL     1       6.217   1.785   1.971  0.00  0.00    +0.044 C 
ATOM     32  C   UNL     1       4.838   1.435   2.471  0.00  0.00    -0.050 A 
ATOM     33  C   UNL     1       3.725   2.012   1.888  0.00  0.00    +0.003 A 
ATOM     34  C   UNL     1       2.461   1.692   2.346  0.00  0.00    +0.004 A 
ATOM     35  C   UNL     1       2.310   0.794   3.387  0.00  0.00    -0.047 A 
ATOM     36  C   UNL     1       3.423   0.217   3.969  0.00  0.00    -0.043 A 
ATOM     37  C   UNL     1       4.687   0.534   3.508  0.00  0.00    +0.007 A 
ATOM     38  C   UNL     1       0.932   0.446   3.887  0.00  0.00    +0.044 C 
ENDBRANCH  30  36
ENDBRANCH  29  30
ENDBRANCH  25  29
ENDBRANCH   1  26
TORSDOF 7
