REMARK  Name = ZINC39711134
REMARK  10 active torsions:
REMARK  status: ('A' for Active; 'I' for Inactive)
REMARK    1  A    between atoms: C_1  and  C_2
REMARK    2  A    between atoms: C_4  and  C_41
REMARK    3  A    between atoms: C_7  and  C_14
REMARK    4  A    between atoms: C_14  and  C_16
REMARK    5  A    between atoms: C_14  and  N_27
REMARK    6  A    between atoms: N_21  and  C_22
REMARK    7  A    between atoms: N_27  and  C_28
REMARK    8  A    between atoms: N_27  and  C_35
REMARK    9  A    between atoms: C_28  and  C_29
REMARK   10  A    between atoms: C_35  and  C_36
REMARK                            x       y       z     vdW  Elec       q    Type
REMARK                         _______ _______ _______ _____ _____    ______ ____
ROOT
ATOM      1  C   UNL     1       1.224  -6.022   1.020  0.00  0.00    -0.010 C 
ENDROOT
BRANCH   1   8
ATOM      2  C   UNL     1      -5.392  -3.897   3.836  0.00  0.00    +0.044 C 
ATOM      3  C   UNL     1      -3.982  -3.966   3.307  0.00  0.00    -0.048 A 
ATOM      4  C   UNL     1      -2.982  -3.255   3.971  0.00  0.00    +0.007 A 
ATOM      5  C   UNL     1      -1.694  -3.278   3.542  0.00  0.00    -0.042 A 
ATOM      6  C   UNL     1      -1.359  -4.069   2.357  0.00  0.00    -0.004 A 
ATOM      7  C   UNL     1      -0.079  -4.123   1.891  0.00  0.00    -0.006 C 
ATOM      8  C   UNL     1       0.177  -4.967   0.658  0.00  0.00    +0.088 C 
ATOM      9  C   UNL     1      -1.008  -5.681   0.046  0.00  0.00    +0.223 C 
ATOM     10  O   UNL     1      -0.860  -6.373  -0.943  0.00  0.00    -0.275 OA
ATOM     11  N   UNL     1      -2.205  -5.551   0.592  0.00  0.00    -0.285 N 
ATOM     12  C   UNL     1      -2.435  -4.810   1.676  0.00  0.00    +0.041 A 
ATOM     13  C   UNL     1      -3.735  -4.722   2.205  0.00  0.00    +0.027 A 
ATOM     14  C   UNL     1      -0.628  -2.503   4.273  0.00  0.00    +0.044 C 
ATOM     15  H   UNL     1      -2.952  -6.018   0.185  0.00  0.00    +0.155 HD
ENDBRANCH   1   8
BRANCH   1  16
ATOM     16  C   UNL     1       2.501  -5.330   1.499  0.00  0.00    +0.183 C 
ATOM     17  N   UNL     1       3.059  -4.471   0.437  0.00  0.00    -0.229 N 
ATOM     18  N   UNL     1       4.327  -4.991   0.150  0.00  0.00    -0.064 NA
ATOM     19  N   UNL     1       4.602  -5.972   0.835  0.00  0.00    -0.061 NA
ATOM     20  N   UNL     1       3.575  -6.315   1.729  0.00  0.00    -0.213 N 
ATOM     21  H   UNL     1       2.634  -3.704   0.022  0.00  0.00    +0.172 HD
BRANCH  20  22
ATOM     22  C   UNL     1       3.567  -7.421   2.690  0.00  0.00    +0.096 C 
ATOM     23  C   UNL     1       4.858  -7.395   3.535  0.00  0.00    +0.024 C 
ATOM     24  C   UNL     1       5.213  -8.889   3.731  0.00  0.00    +0.002 C 
ATOM     25  C   UNL     1       4.842  -9.512   2.363  0.00  0.00    +0.002 C 
ATOM     26  C   UNL     1       3.558  -8.767   1.944  0.00  0.00    +0.024 C 
ENDBRANCH  20  22
ENDBRANCH   1  16
BRANCH   1  27
ATOM     27  N   UNL     1       0.702  -6.882   2.092  0.00  0.00    +0.392 N 
ATOM     28  H   UNL     1       1.442  -7.473   2.439  0.00  0.00    -0.080 HD
BRANCH  27  29
ATOM     29  C   UNL     1       0.190  -6.045   3.185  0.00  0.00    -0.042 C 
BRANCH  29  30
ATOM     30  C   UNL     1       0.215  -6.829   4.472  0.00  0.00    -0.064 A 
ATOM     31  C   UNL     1      -0.880  -7.588   4.841  0.00  0.00    +0.002 A 
ATOM     32  C   UNL     1      -0.857  -8.307   6.021  0.00  0.00    +0.000 A 
ATOM     33  C   UNL     1       0.262  -8.268   6.832  0.00  0.00    +0.000 A 
ATOM     34  C   UNL     1       1.357  -7.510   6.463  0.00  0.00    +0.000 A 
ATOM     35  C   UNL     1       1.336  -6.795   5.280  0.00  0.00    +0.002 A 
ENDBRANCH  29  30
ENDBRANCH  27  29
BRANCH  27  36
ATOM     36  C   UNL     1      -0.385  -7.717   1.564  0.00  0.00    -0.002 C 
BRANCH  36  37
ATOM     37  C   UNL     1       0.158  -8.630   0.494  0.00  0.00    +0.089 A 
ATOM     38  C   UNL     1       0.552  -9.903   0.672  0.00  0.00    +0.042 A 
ATOM     39  C   UNL     1       0.986 -10.377  -0.588  0.00  0.00    +0.041 A 
ATOM     40  C   UNL     1       0.832  -9.365  -1.460  0.00  0.00    +0.195 A 
ATOM     41  O   UNL     1       0.324  -8.311  -0.800  0.00  0.00    -0.470 OA
ENDBRANCH  36  37
ENDBRANCH  27  36
ENDBRANCH   1  27
TORSDOF 8
