REMARK  Name = ZINC08917316
REMARK  9 active torsions:
REMARK  status: ('A' for Active; 'I' for Inactive)
REMARK    1  A    between atoms: C_2  and  C_3
REMARK    2  A    between atoms: C_3  and  O_4
REMARK    3  A    between atoms: O_4  and  C_5
REMARK    4  A    between atoms: C_8  and  C_11
REMARK    5  A    between atoms: C_16  and  O_25
REMARK    6  A    between atoms: C_20  and  N_24
REMARK    7  A    between atoms: C_21  and  C_22
REMARK    8  A    between atoms: O_25  and  C_26
REMARK    9  A    between atoms: C_26  and  C_28
REMARK                            x       y       z     vdW  Elec       q    Type
REMARK                         _______ _______ _______ _____ _____    ______ ____
ROOT
ATOM      1  C   UNL     1       2.453   0.978  -0.046  0.00  0.00    +0.098 C 
ATOM      2  C   UNL     1       1.156   1.743  -0.021  0.00  0.00    +0.008 A 
ATOM      3  C   UNL     1      -0.042   1.054  -0.101  0.00  0.00    +0.012 A 
ATOM      4  C   UNL     1      -1.241   1.739  -0.085  0.00  0.00    +0.047 A 
ATOM      5  C   UNL     1      -1.248   3.122   0.025  0.00  0.00    +0.135 A 
ATOM      6  C   UNL     1      -0.051   3.815   0.105  0.00  0.00    +0.093 A 
ATOM      7  C   UNL     1       1.155   3.125   0.083  0.00  0.00    +0.138 A 
ATOM      8  O   UNL     1       2.318   3.817   0.162  0.00  0.00    -0.441 OA
ATOM      9  C   UNL     1       3.466   3.246  -0.238  0.00  0.00    +0.199 C 
ATOM     10  C   UNL     1       3.595   1.904  -0.357  0.00  0.00    +0.098 C 
ENDROOT
BRANCH   1  14
ATOM     11  C   UNL     1       3.101  -0.837   3.768  0.00  0.00    +0.121 A 
ATOM     12  C   UNL     1       3.004  -1.625   2.631  0.00  0.00    +0.046 A 
ATOM     13  C   UNL     1       2.795  -1.036   1.399  0.00  0.00    +0.008 A 
ATOM     14  C   UNL     1       2.681   0.338   1.299  0.00  0.00    -0.034 A 
ATOM     15  C   UNL     1       2.783   1.127   2.430  0.00  0.00    +0.008 A 
ATOM     16  C   UNL     1       2.986   0.542   3.665  0.00  0.00    +0.046 A 
BRANCH  11  17
ATOM     17  O   UNL     1       3.306  -1.414   4.981  0.00  0.00    -0.488 OA
BRANCH  17  18
ATOM     18  C   UNL     1       3.395  -0.541   6.109  0.00  0.00    +0.256 C 
BRANCH  18  20
ATOM     19  C   UNL     1       4.525  -0.976   8.229  0.00  0.00    +0.007 C 
ATOM     20  C   UNL     1       3.623  -1.353   7.357  0.00  0.00    +0.006 C 
ENDBRANCH  18  20
ENDBRANCH  17  18
ENDBRANCH  11  17
ENDBRANCH   1  14
BRANCH   9  21
ATOM     21  N   UNL     1       4.540   4.048  -0.535  0.00  0.00    -0.328 N 
ATOM     22  H   UNL     1       5.376   3.650  -0.825  0.00  0.00    +0.145 HD
ATOM     23  H   UNL     1       4.464   5.011  -0.454  0.00  0.00    +0.145 HD
ENDBRANCH   9  21
BRANCH  10  24
ATOM     24  C   UNL     1       4.846   1.355  -0.789  0.00  0.00    +0.101 C 
ATOM     25  N   UNL     1       5.837   0.919  -1.131  0.00  0.00    -0.191 NA
ENDBRANCH  10  24
BRANCH   5  26
ATOM     26  O   UNL     1      -2.427   3.797   0.046  0.00  0.00    -0.422 OA
BRANCH  26  27
ATOM     27  C   UNL     1      -3.199   3.647   1.141  0.00  0.00    +0.346 C 
ATOM     28  O   UNL     1      -2.784   3.018   2.094  0.00  0.00    -0.244 OA
BRANCH  27  29
ATOM     29  C   UNL     1      -4.548   4.245   1.181  0.00  0.00    +0.073 A 
ATOM     30  C   UNL     1      -5.028   4.968   0.087  0.00  0.00    +0.016 A 
ATOM     31  C   UNL     1      -6.288   5.525   0.131  0.00  0.00    +0.001 A 
ATOM     32  C   UNL     1      -7.079   5.369   1.257  0.00  0.00    +0.001 A 
ATOM     33  C   UNL     1      -6.611   4.654   2.345  0.00  0.00    +0.016 A 
ATOM     34  C   UNL     1      -5.352   4.087   2.312  0.00  0.00    +0.032 A 
ATOM     35 BR   UNL     1      -4.717   3.103   3.797  0.00  0.00    -0.049 Br
ENDBRANCH  27  29
ENDBRANCH  26  27
ENDBRANCH   5  26
TORSDOF 9
