REMARK  Name = ZINC09097137
REMARK  6 active torsions:
REMARK  status: ('A' for Active; 'I' for Inactive)
REMARK    1  A    between atoms: C_6  and  N_7
REMARK    2  A    between atoms: N_10  and  N_11
REMARK    3  A    between atoms: N_11  and  C_12
REMARK    4  A    between atoms: C_15  and  N_27
REMARK    5  A    between atoms: C_17  and  S_18
REMARK    6  A    between atoms: S_18  and  N_21
REMARK                            x       y       z     vdW  Elec       q    Type
REMARK                         _______ _______ _______ _____ _____    ______ ____
ROOT
ATOM      1  C   UNL     1       2.091   3.937  -0.363  0.00  0.00    +0.071 A 
ATOM      2  C   UNL     1       2.976   3.111  -1.044  0.00  0.00    +0.028 A 
ATOM      3  C   UNL     1       4.159   3.626  -1.537  0.00  0.00    +0.035 A 
ATOM      4  C   UNL     1       4.461   4.963  -1.355  0.00  0.00    +0.128 A 
ATOM      5  C   UNL     1       3.582   5.788  -0.677  0.00  0.00    +0.063 A 
ATOM      6  C   UNL     1       2.395   5.280  -0.186  0.00  0.00    +0.130 A 
ENDROOT
BRANCH   6   7
ATOM      7  S   UNL     1       1.272   6.334   0.670  0.00  0.00    +0.063 S 
ATOM      8  O   UNL     1       0.024   6.229  -0.002  0.00  0.00    -0.153 OA
ATOM      9  O   UNL     1       1.419   6.046   2.054  0.00  0.00    -0.153 OA
BRANCH   7  10
ATOM     10  N   UNL     1       1.797   7.889   0.452  0.00  0.00    -0.172 NA
ATOM     11  C   UNL     1       2.639   8.553   1.460  0.00  0.00    +0.137 C 
ATOM     12  C   UNL     1       3.862   9.149   0.745  0.00  0.00    +0.177 C 
ATOM     13  O   UNL     1       3.418   9.961  -0.345  0.00  0.00    -0.377 OA
ATOM     14  C   UNL     1       2.707   9.244  -1.357  0.00  0.00    +0.177 C 
ATOM     15  C   UNL     1       1.430   8.651  -0.752  0.00  0.00    +0.137 C 
ENDBRANCH   7  10
ENDBRANCH   6   7
BRANCH   4  16
ATOM     16  N   UNL     1       5.729   5.513  -1.886  0.00  0.00    +0.056 N 
ATOM     17  O   UNL     1       6.504   4.788  -2.483  0.00  0.00    -0.126 OA
ATOM     18  O   UNL     1       5.996   6.690  -1.726  0.00  0.00    -0.126 OA
ENDBRANCH   4  16
BRANCH   1  19
ATOM     19  N   UNL     1       0.894   3.418   0.138  0.00  0.00    -0.261 N 
ATOM     20  H   UNL     1       0.298   3.985   0.652  0.00  0.00    +0.170 HD
BRANCH  19  24
ATOM     21  N   UNL     1      -1.477   2.393   1.002  0.00  0.00    -0.268 N 
ATOM     22  C   UNL     1      -0.642   1.607   0.294  0.00  0.00    +0.320 C 
ATOM     23  O   UNL     1      -0.972   0.472   0.009  0.00  0.00    -0.251 OA
ATOM     24  N   UNL     1       0.556   2.080  -0.102  0.00  0.00    -0.220 N 
ATOM     25  H   UNL     1      -1.239   3.316   1.181  0.00  0.00    +0.156 HD
ATOM     26  H   UNL     1       1.184   1.494  -0.553  0.00  0.00    +0.174 HD
BRANCH  21  32
ATOM     27  C   UNL     1      -2.768   0.551   1.885  0.00  0.00    +0.026 A 
ATOM     28  C   UNL     1      -3.962   0.046   2.361  0.00  0.00    +0.040 A 
ATOM     29  C   UNL     1      -5.082   0.858   2.424  0.00  0.00    +0.124 A 
ATOM     30  C   UNL     1      -5.006   2.179   2.016  0.00  0.00    +0.040 A 
ATOM     31  C   UNL     1      -3.812   2.689   1.544  0.00  0.00    +0.026 A 
ATOM     32  C   UNL     1      -2.688   1.877   1.480  0.00  0.00    +0.035 A 
ATOM     33  F   UNL     1      -6.250   0.360   2.885  0.00  0.00    -0.205 F 
ENDBRANCH  21  32
ENDBRANCH  19  24
ENDBRANCH   1  19
TORSDOF 6
