REMARK  Name = ZINC43250908
REMARK  6 active torsions:
REMARK  status: ('A' for Active; 'I' for Inactive)
REMARK    1  A    between atoms: C_3  and  C_9
REMARK    2  A    between atoms: C_11  and  C_14
REMARK    3  A    between atoms: C_17  and  C_19
REMARK    4  A    between atoms: C_19  and  C_21
REMARK    5  A    between atoms: C_19  and  N_28
REMARK    6  A    between atoms: C_21  and  C_22
REMARK                            x       y       z     vdW  Elec       q    Type
REMARK                         _______ _______ _______ _____ _____    ______ ____
ROOT
ATOM      1  C   UNL     1       7.321   2.504   0.076  0.00  0.00    +0.116 A 
ATOM      2  C   UNL     1       7.939   1.278   0.069  0.00  0.00    +0.078 A 
ATOM      3  S   UNL     1       9.652   1.773   0.152  0.00  0.00    -0.081 S 
ATOM      4  C   UNL     1       9.415   3.438   0.185  0.00  0.00    +0.065 A 
ATOM      5  N   UNL     1       8.116   3.564   0.130  0.00  0.00    -0.243 NA
ENDROOT
BRANCH   1   8
ATOM      6  C   UNL     1       3.659   2.168  -0.022  0.00  0.00    +0.115 A 
ATOM      7  C   UNL     1       4.954   1.613   0.057  0.00  0.00    +0.082 A 
ATOM      8  C   UNL     1       5.851   2.635   0.018  0.00  0.00    +0.186 A 
ATOM      9  O   UNL     1       5.162   3.787  -0.080  0.00  0.00    -0.352 OA
ATOM     10  N   UNL     1       3.782   3.472  -0.109  0.00  0.00    -0.078 NA
BRANCH   6  13
ATOM     11  C   UNL     1       1.209  -0.683  -0.019  0.00  0.00    +0.021 A 
ATOM     12  C   UNL     1       2.398   0.017  -0.028  0.00  0.00    +0.013 A 
ATOM     13  C   UNL     1       2.383   1.410  -0.013  0.00  0.00    +0.022 A 
ATOM     14  C   UNL     1       1.166   2.090   0.011  0.00  0.00    +0.052 A 
ATOM     15  C   UNL     1      -0.018   1.379   0.019  0.00  0.00    +0.040 A 
ATOM     16  C   UNL     1       0.002  -0.004   0.004  0.00  0.00    +0.042 A 
ATOM     17 CL   UNL     1      -1.490  -0.892   0.014  0.00  0.00    -0.083 Cl
ATOM     18 CL   UNL     1       1.139   3.826   0.030  0.00  0.00    -0.083 Cl
ENDBRANCH   6  13
ENDBRANCH   1   8
BRANCH   4  19
ATOM     19  C   UNL     1      10.456   4.527   0.256  0.00  0.00    -0.018 C 
BRANCH  19  20
ATOM     20  N   UNL     1      11.461   4.178   1.268  0.00  0.00    +0.384 N 
ATOM     21  H   UNL     1      11.903   3.306   1.018  0.00  0.00    -0.089 HD
ATOM     22  H   UNL     1      12.157   4.906   1.316  0.00  0.00    -0.089 HD
ATOM     23  H   UNL     1      11.013   4.081   2.168  0.00  0.00    -0.089 HD
ENDBRANCH  19  20
BRANCH  19  24
ATOM     24  C   UNL     1      11.134   4.673  -1.107  0.00  0.00    -0.006 C 
BRANCH  24  25
ATOM     25  C   UNL     1      12.101   5.859  -1.071  0.00  0.00    -0.012 C 
ATOM     26  C   UNL     1      11.312   7.154  -0.871  0.00  0.00    +0.003 C 
ATOM     27  C   UNL     1      12.278   8.339  -0.835  0.00  0.00    +0.000 C 
ATOM     28  C   UNL     1      13.048   8.410  -2.155  0.00  0.00    +0.000 C 
ATOM     29  C   UNL     1      13.837   7.115  -2.356  0.00  0.00    +0.000 C 
ATOM     30  C   UNL     1      12.871   5.929  -2.392  0.00  0.00    +0.003 C 
ENDBRANCH  24  25
ENDBRANCH  19  24
ENDBRANCH   4  19
TORSDOF 6
