REMARK  Name = ZINC05089072
REMARK  6 active torsions:
REMARK  status: ('A' for Active; 'I' for Inactive)
REMARK    1  A    between atoms: C_3  and  C_8
REMARK    2  A    between atoms: N_11  and  C_13
REMARK    3  A    between atoms: C_13  and  C_14
REMARK    4  A    between atoms: N_16  and  C_17
REMARK    5  A    between atoms: C_17  and  C_18
REMARK    6  A    between atoms: N_20  and  C_21
REMARK                            x       y       z     vdW  Elec       q    Type
REMARK                         _______ _______ _______ _____ _____    ______ ____
ROOT
ATOM      1  C   UNL     1       1.705   3.619   1.423  0.00  0.00    +0.237 C 
ATOM      2  O   UNL     1       1.496   2.857   2.343  0.00  0.00    -0.274 OA
ATOM      3  N   UNL     1       2.075   4.891   1.673  0.00  0.00    -0.305 N 
ATOM      4  H   UNL     1       2.241   5.501   0.937  0.00  0.00    +0.149 HD
ENDROOT
BRANCH   1   5
ATOM      5  C   UNL     1       1.550   3.145   0.001  0.00  0.00    +0.263 C 
BRANCH   5   9
ATOM      6  C   UNL     1       1.217  -0.368  -0.016  0.00  0.00    +0.205 A 
ATOM      7  N   UNL     1      -0.065   0.023   0.000  0.00  0.00    -0.108 NA
ATOM      8  N   UNL     1      -0.072   1.313   0.008  0.00  0.00    -0.045 NA
ATOM      9  N   UNL     1       1.144   1.737  -0.002  0.00  0.00    -0.154 N 
ATOM     10  N   UNL     1       1.947   0.730  -0.017  0.00  0.00    -0.130 NA
BRANCH   6  13
ATOM     11  C   UNL     1       1.289  -4.128  -0.039  0.00  0.00    +0.003 A 
ATOM     12  C   UNL     1       0.819  -2.830  -0.027  0.00  0.00    +0.012 A 
ATOM     13  C   UNL     1       1.718  -1.766  -0.030  0.00  0.00    +0.025 A 
ATOM     14  C   UNL     1       3.088  -2.017  -0.051  0.00  0.00    +0.050 A 
ATOM     15  C   UNL     1       3.548  -3.320  -0.059  0.00  0.00    +0.124 A 
ATOM     16  C   UNL     1       2.649  -4.374  -0.056  0.00  0.00    +0.038 A 
ATOM     17  F   UNL     1       4.877  -3.567  -0.075  0.00  0.00    -0.205 F 
ENDBRANCH   6  13
ENDBRANCH   5   9
ENDBRANCH   1   5
BRANCH   3  18
ATOM     18  C   UNL     1       2.225   5.352   3.055  0.00  0.00    +0.200 C 
BRANCH  18  19
ATOM     19  C   UNL     1       2.643   6.800   3.059  0.00  0.00    +0.234 C 
ATOM     20  O   UNL     1       2.799   7.389   2.010  0.00  0.00    -0.274 OA
ATOM     21  N   UNL     1       2.843   7.441   4.228  0.00  0.00    -0.282 N 
ATOM     22  H   UNL     1       2.655   6.990   5.066  0.00  0.00    +0.155 HD
BRANCH  21  23
ATOM     23  C   UNL     1       3.321   8.758   4.232  0.00  0.00    +0.072 A 
ATOM     24  C   UNL     1       2.942   9.638   3.227  0.00  0.00    +0.029 A 
ATOM     25  C   UNL     1       3.410  10.938   3.234  0.00  0.00    +0.043 A 
ATOM     26  C   UNL     1       4.265  11.363   4.237  0.00  0.00    +0.161 A 
ATOM     27  C   UNL     1       4.651  10.486   5.239  0.00  0.00    +0.195 A 
ATOM     28  C   UNL     1       4.180   9.184   5.238  0.00  0.00    +0.182 A 
ATOM     29  F   UNL     1       4.554   8.328   6.214  0.00  0.00    -0.200 F 
ATOM     30  F   UNL     1       5.486  10.902   6.216  0.00  0.00    -0.199 F 
ATOM     31  F   UNL     1       4.725  12.633   4.238  0.00  0.00    -0.202 F 
ENDBRANCH  21  23
ENDBRANCH  18  19
ENDBRANCH   3  18
TORSDOF 6
