REMARK  Name = ZINC39364386
REMARK  9 active torsions:
REMARK  status: ('A' for Active; 'I' for Inactive)
REMARK    1  A    between atoms: C_1  and  C_2
REMARK    2  A    between atoms: C_2  and  O_3
REMARK    3  A    between atoms: O_3  and  C_4
REMARK    4  A    between atoms: C_4  and  C_6
REMARK    5  A    between atoms: N_9  and  C_25
REMARK    6  A    between atoms: C_10  and  C_12
REMARK    7  A    between atoms: C_12  and  N_13
REMARK    8  A    between atoms: N_13  and  C_14
REMARK    9  A    between atoms: C_14  and  C_15
REMARK                            x       y       z     vdW  Elec       q    Type
REMARK                         _______ _______ _______ _____ _____    ______ ____
ROOT
ATOM      1  C   UNL     1      -2.737  -2.336   0.059  0.00  0.00    +0.072 C 
ATOM      2  C   UNL     1      -2.882  -3.580  -0.439  0.00  0.00    +0.100 C 
ATOM      3  N   UNL     1      -4.189  -3.937  -0.525  0.00  0.00    -0.270 N 
ATOM      4  N   UNL     1      -5.021  -2.906  -0.070  0.00  0.00    -0.248 N 
ATOM      5  C   UNL     1      -4.128  -1.811   0.343  0.00  0.00    +0.115 C 
ATOM      6  H   UNL     1      -4.505  -4.791  -0.859  0.00  0.00    +0.169 HD
ENDROOT
BRANCH   4   7
ATOM      7  C   UNL     1      -6.417  -2.918  -0.012  0.00  0.00    +0.051 A 
ATOM      8  C   UNL     1      -7.143  -1.837  -0.498  0.00  0.00    +0.025 A 
ATOM      9  C   UNL     1      -8.522  -1.851  -0.441  0.00  0.00    +0.005 A 
ATOM     10  C   UNL     1      -9.183  -2.938   0.100  0.00  0.00    +0.038 A 
ATOM     11  C   UNL     1      -8.464  -4.018   0.585  0.00  0.00    +0.125 A 
ATOM     12  C   UNL     1      -7.082  -4.012   0.525  0.00  0.00    +0.063 A 
ATOM     13  F   UNL     1      -9.112  -5.079   1.113  0.00  0.00    -0.205 F 
ENDBRANCH   4   7
BRANCH   1  14
ATOM     14  C   UNL     1      -1.520  -1.656   0.281  0.00  0.00    +0.338 C 
ATOM     15  O   UNL     1      -0.463  -2.195   0.009  0.00  0.00    -0.245 OA
BRANCH  14  16
ATOM     16  O   UNL     1      -1.528  -0.408   0.795  0.00  0.00    -0.462 OA
BRANCH  16  18
ATOM     17  C   UNL     1      -0.469   1.618   1.579  0.00  0.00    +0.048 C 
ATOM     18  C   UNL     1      -0.260   0.220   0.993  0.00  0.00    +0.229 C 
ENDBRANCH  16  18
ENDBRANCH  14  16
ENDBRANCH   1  14
BRANCH   5  19
ATOM     19  C   UNL     1      -4.294  -1.513   1.834  0.00  0.00    -0.053 C 
BRANCH  19  20
ATOM     20  N   UNL     1      -5.670  -1.068   2.094  0.00  0.00    +0.384 N 
ATOM     21  H   UNL     1      -5.890  -0.287   1.495  0.00  0.00    -0.085 HD
ATOM     22  H   UNL     1      -6.309  -1.826   1.907  0.00  0.00    -0.085 HD
BRANCH  20  23
ATOM     23  C   UNL     1      -5.794  -0.658   3.499  0.00  0.00    -0.028 C 
BRANCH  23  24
ATOM     24  C   UNL     1      -7.205  -0.202   3.766  0.00  0.00    -0.000 A 
ATOM     25  H   UNL     1      -7.156   1.797   3.182  0.00  0.00    +0.166 HD
ATOM     26  C   UNL     1      -8.183  -0.973   4.268  0.00  0.00    +0.029 A 
ATOM     27  C   UNL     1      -9.382  -0.137   4.364  0.00  0.00    -0.000 A 
ATOM     28  C   UNL     1     -10.689  -0.361   4.800  0.00  0.00    +0.010 A 
ATOM     29  C   UNL     1     -11.600   0.656   4.763  0.00  0.00    +0.001 A 
ATOM     30  C   UNL     1     -11.237   1.911   4.294  0.00  0.00    +0.002 A 
ATOM     31  C   UNL     1      -9.953   2.154   3.859  0.00  0.00    +0.026 A 
ATOM     32  C   UNL     1      -9.009   1.133   3.888  0.00  0.00    +0.047 A 
ATOM     33  N   UNL     1      -7.679   1.062   3.539  0.00  0.00    -0.360 N 
ENDBRANCH  23  24
ENDBRANCH  20  23
ENDBRANCH  19  20
ENDBRANCH   5  19
TORSDOF 8
