REMARK  Name = ZINC39664744
REMARK  9 active torsions:
REMARK  status: ('A' for Active; 'I' for Inactive)
REMARK    1  A    between atoms: C_1  and  C_2
REMARK    2  A    between atoms: C_5  and  C_10
REMARK    3  A    between atoms: C_14  and  C_23
REMARK    4  A    between atoms: N_25  and  C_26
REMARK    5  A    between atoms: C_26  and  C_28
REMARK    6  A    between atoms: C_26  and  C_32
REMARK    7  A    between atoms: C_28  and  N_29
REMARK    8  A    between atoms: N_29  and  C_30
REMARK    9  A    between atoms: N_29  and  C_31
REMARK                            x       y       z     vdW  Elec       q    Type
REMARK                         _______ _______ _______ _____ _____    ______ ____
ROOT
ATOM      1  C   UNL     1      -0.299  -2.271  -0.621  0.00  0.00    +0.250 C 
ATOM      2  O   UNL     1      -0.294  -2.259   0.595  0.00  0.00    -0.270 OA
ATOM      3  N   UNL     1      -0.467  -3.433  -1.282  0.00  0.00    -0.296 N 
ATOM      4  C   UNL     1      -0.400  -3.664  -2.744  0.00  0.00    +0.121 C 
ATOM      5  C   UNL     1       0.323  -5.021  -2.893  0.00  0.00    +0.100 C 
ATOM      6  C   UNL     1       0.080  -5.743  -1.556  0.00  0.00    -0.004 C 
ATOM      7  C   UNL     1      -0.755  -4.770  -0.711  0.00  0.00    +0.115 C 
ATOM      8  C   UNL     1      -0.690  -7.039  -1.788  0.00  0.00    -0.010 C 
ATOM      9  C   UNL     1      -0.869  -7.767  -0.453  0.00  0.00    -0.082 C 
ATOM     10  N   UNL     1       0.448  -8.054   0.131  0.00  0.00    +0.379 N 
ATOM     11  C   UNL     1       1.144  -6.798   0.436  0.00  0.00    -0.082 C 
ATOM     12  C   UNL     1       1.408  -6.030  -0.862  0.00  0.00    -0.010 C 
ATOM     13  H   UNL     1       0.329  -8.587   0.979  0.00  0.00    -0.086 HD
ATOM     14  H   UNL     1       0.995  -8.590  -0.526  0.00  0.00    -0.086 HD
ENDROOT
BRANCH   1  19
ATOM     15  C   UNL     1       0.390   2.634  -3.555  0.00  0.00    +0.047 C 
ATOM     16  C   UNL     1       0.211   1.350  -2.785  0.00  0.00    -0.012 A 
ATOM     17  C   UNL     1      -0.677   0.392  -3.241  0.00  0.00    +0.007 A 
ATOM     18  C   UNL     1      -0.848  -0.785  -2.543  0.00  0.00    +0.016 A 
ATOM     19  C   UNL     1      -0.120  -1.012  -1.373  0.00  0.00    +0.075 A 
ATOM     20  C   UNL     1       0.777  -0.043  -0.916  0.00  0.00    +0.171 A 
ATOM     21  C   UNL     1       0.941   1.133  -1.630  0.00  0.00    +0.162 A 
ATOM     22  F   UNL     1       1.811   2.071  -1.195  0.00  0.00    -0.202 F 
ATOM     23  F   UNL     1       1.484  -0.253   0.216  0.00  0.00    -0.202 F 
ENDBRANCH   1  19
BRANCH   5  24
ATOM     24  C   UNL     1       1.798  -4.809  -3.116  0.00  0.00    +0.219 C 
ATOM     25  O   UNL     1       2.364  -5.387  -4.020  0.00  0.00    -0.275 OA
ATOM     26  N   UNL     1       2.489  -3.977  -2.312  0.00  0.00    -0.310 N 
ATOM     27  H   UNL     1       2.026  -3.466  -1.630  0.00  0.00    +0.149 HD
BRANCH  26  28
ATOM     28  C   UNL     1       3.939  -3.843  -2.469  0.00  0.00    +0.087 C 
BRANCH  28  29
ATOM     29  C   UNL     1       4.601  -3.941  -1.118  0.00  0.00    -0.029 A 
ATOM     30  C   UNL     1       4.020  -3.338  -0.018  0.00  0.00    +0.005 A 
ATOM     31  C   UNL     1       4.627  -3.427   1.220  0.00  0.00    +0.000 A 
ATOM     32  C   UNL     1       5.815  -4.120   1.359  0.00  0.00    +0.000 A 
ATOM     33  C   UNL     1       6.396  -4.724   0.260  0.00  0.00    +0.000 A 
ATOM     34  C   UNL     1       5.786  -4.638  -0.978  0.00  0.00    +0.005 A 
ENDBRANCH  28  29
BRANCH  28  35
ATOM     35  C   UNL     1       4.262  -2.486  -3.098  0.00  0.00    -0.052 C 
BRANCH  35  36
ATOM     36  N   UNL     1       3.549  -2.357  -4.376  0.00  0.00    +0.377 N 
ATOM     37  C   UNL     1       3.752  -1.006  -4.915  0.00  0.00    -0.097 C 
ATOM     38  C   UNL     1       4.068  -3.348  -5.328  0.00  0.00    -0.097 C 
ATOM     39  H   UNL     1       2.563  -2.516  -4.228  0.00  0.00    -0.083 HD
ENDBRANCH  35  36
ENDBRANCH  28  35
ENDBRANCH  26  28
ENDBRANCH   5  24
TORSDOF 6
