REMARK  Name = ZINC63270321
REMARK  6 active torsions:
REMARK  status: ('A' for Active; 'I' for Inactive)
REMARK    1  A    between atoms: C_4  and  C_7
REMARK    2  A    between atoms: C_7  and  N_8
REMARK    3  A    between atoms: C_16  and  S_18
REMARK    4  A    between atoms: S_18  and  C_19
REMARK    5  A    between atoms: C_19  and  C_20
REMARK    6  A    between atoms: C_26  and  N_30
REMARK                            x       y       z     vdW  Elec       q    Type
REMARK                         _______ _______ _______ _____ _____    ______ ____
ROOT
ATOM      1  N   UNL     1       4.189  -0.987   1.136  0.00  0.00    -0.297 N 
ATOM      2  C   UNL     1       4.892   0.064   1.741  0.00  0.00    +0.053 A 
ATOM      3  C   UNL     1       5.314   1.283   1.223  0.00  0.00    +0.025 A 
ATOM      4  C   UNL     1       6.004   2.174   2.023  0.00  0.00    +0.002 A 
ATOM      5  C   UNL     1       6.277   1.857   3.340  0.00  0.00    +0.002 A 
ATOM      6  C   UNL     1       5.861   0.648   3.863  0.00  0.00    +0.025 A 
ATOM      7  C   UNL     1       5.166  -0.255   3.067  0.00  0.00    +0.050 A 
ATOM      8  N   UNL     1       4.651  -1.524   3.367  0.00  0.00    -0.316 N 
ATOM      9  C   UNL     1       4.005  -2.031   2.151  0.00  0.00    +0.220 C 
ATOM     10  H   UNL     1       4.707  -1.980   4.221  0.00  0.00    +0.149 HD
ENDROOT
BRANCH   1  11
ATOM     11  C   UNL     1       3.719  -1.032  -0.251  0.00  0.00    +0.143 C 
BRANCH  11  15
ATOM     12  C   UNL     1      -0.058   0.942  -0.542  0.00  0.00    +0.000 A 
ATOM     13  C   UNL     1       1.112   1.676  -0.600  0.00  0.00    +0.000 A 
ATOM     14  C   UNL     1       2.334   1.037  -0.505  0.00  0.00    +0.005 A 
ATOM     15  C   UNL     1       2.386  -0.336  -0.353  0.00  0.00    -0.030 A 
ATOM     16  C   UNL     1       1.216  -1.070  -0.294  0.00  0.00    +0.005 A 
ATOM     17  C   UNL     1      -0.006  -0.431  -0.390  0.00  0.00    +0.000 A 
ENDBRANCH  11  15
ENDBRANCH   1  11
BRANCH   9  18
ATOM     18  S   UNL     1       2.237  -2.313   2.446  0.00  0.00    -0.115 S 
BRANCH  18  19
ATOM     19  C   UNL     1       2.188  -3.886   3.347  0.00  0.00    +0.119 C 
BRANCH  19  20
ATOM     20  C   UNL     1       0.750  -4.185   3.774  0.00  0.00    +0.184 C 
ATOM     21  N   UNL     1      -0.117  -4.282   2.592  0.00  0.00    -0.363 N 
ATOM     22  C   UNL     1      -1.026  -3.357   2.697  0.00  0.00    +0.060 A 
ATOM     23  C   UNL     1      -2.154  -2.962   1.842  0.00  0.00    +0.029 A 
ATOM     24  C   UNL     1      -2.947  -1.939   2.216  0.00  0.00    +0.035 A 
ATOM     25  C   UNL     1      -2.743  -1.219   3.407  0.00  0.00    +0.128 A 
ATOM     26  C   UNL     1      -1.739  -1.498   4.263  0.00  0.00    +0.060 A 
ATOM     27  C   UNL     1      -0.810  -2.595   3.958  0.00  0.00    +0.062 A 
ATOM     28  N   UNL     1       0.224  -3.079   4.584  0.00  0.00    -0.363 N 
ATOM     29  H   UNL     1       0.582  -2.767   5.430  0.00  0.00    +0.162 HD
ATOM     30  H   UNL     1      -0.028  -4.919   1.866  0.00  0.00    +0.162 HD
BRANCH  25  31
ATOM     31  N   UNL     1      -3.667  -0.110   3.733  0.00  0.00    +0.056 N 
ATOM     32  O   UNL     1      -4.575   0.161   2.983  0.00  0.00    -0.126 OA
ATOM     33  O   UNL     1      -3.514   0.525   4.751  0.00  0.00    -0.126 OA
ENDBRANCH  25  31
ENDBRANCH  19  20
ENDBRANCH  18  19
ENDBRANCH   9  18
TORSDOF 6
