REMARK  Name = ZINC63067987
REMARK  7 active torsions:
REMARK  status: ('A' for Active; 'I' for Inactive)
REMARK    1  A    between atoms: C_1  and  C_2
REMARK    2  A    between atoms: C_2  and  O_3
REMARK    3  A    between atoms: O_3  and  C_4
REMARK    4  A    between atoms: C_6  and  C_11
REMARK    5  A    between atoms: C_9  and  O_10
REMARK    6  A    between atoms: C_28  and  C_30
REMARK    7  A    between atoms: C_28  and  C_31
REMARK                            x       y       z     vdW  Elec       q    Type
REMARK                         _______ _______ _______ _____ _____    ______ ____
ROOT
ATOM      1  C   UNL     1      -0.229  -4.969   0.477  0.00  0.00    +0.073 C 
ATOM      2  C   UNL     1      -1.291  -5.853  -0.179  0.00  0.00    +0.148 C 
ATOM      3  C   UNL     1      -0.570  -6.894  -1.002  0.00  0.00    +0.106 C 
ATOM      4  N   UNL     1      -0.783  -7.045  -2.272  0.00  0.00    -0.151 NA
ATOM      5  C   UNL     1      -1.642  -6.274  -2.956  0.00  0.00    +0.331 C 
ATOM      6  O   UNL     1      -1.815  -6.487  -4.141  0.00  0.00    -0.250 OA
ATOM      7  N   UNL     1      -2.314  -5.274  -2.365  0.00  0.00    -0.238 N 
ATOM      8  C   UNL     1      -2.189  -5.022  -1.047  0.00  0.00    +0.231 C 
ATOM      9  O   UNL     1      -2.809  -4.105  -0.552  0.00  0.00    -0.275 OA
ATOM     10  N   UNL     1       0.342  -7.668  -0.338  0.00  0.00    -0.307 N 
ATOM     11  C   UNL     1       1.114  -7.075   0.636  0.00  0.00    +0.016 C 
ATOM     12  C   UNL     1       0.875  -5.822   1.058  0.00  0.00    +0.021 C 
ATOM     13  C   UNL     1       1.660  -5.248   2.079  0.00  0.00    +0.162 C 
ATOM     14  O   UNL     1       1.425  -4.112   2.440  0.00  0.00    -0.292 OA
ATOM     15  C   UNL     1       2.780  -6.009   2.730  0.00  0.00    +0.086 C 
ATOM     16  C   UNL     1       2.467  -7.507   2.668  0.00  0.00    -0.023 C 
ATOM     17  C   UNL     1       2.249  -7.888   1.212  0.00  0.00    +0.058 C 
ATOM     18  C   UNL     1       3.643  -8.304   3.238  0.00  0.00    +0.011 C 
ATOM     19  C   UNL     1       1.203  -7.803   3.477  0.00  0.00    +0.011 C 
ATOM     20  H   UNL     1      -2.907  -4.722  -2.897  0.00  0.00    +0.159 HD
ATOM     21  H   UNL     1       0.442  -8.610  -0.548  0.00  0.00    +0.153 HD
ENDROOT
BRANCH   1  24
ATOM     22  C   UNL     1       0.777  -1.811  -1.336  0.00  0.00    +0.162 A 
ATOM     23  C   UNL     1       0.243  -2.669  -0.388  0.00  0.00    +0.053 A 
ATOM     24  C   UNL     1       0.352  -4.037  -0.555  0.00  0.00    -0.035 A 
ATOM     25  C   UNL     1       0.992  -4.552  -1.667  0.00  0.00    +0.008 A 
ATOM     26  C   UNL     1       1.526  -3.702  -2.616  0.00  0.00    +0.049 A 
ATOM     27  C   UNL     1       1.416  -2.330  -2.458  0.00  0.00    +0.158 A 
BRANCH  27  28
ATOM     28  O   UNL     1       1.936  -1.492  -3.394  0.00  0.00    -0.503 OA
ATOM     29  H   UNL     1       2.856  -1.241  -3.231  0.00  0.00    +0.292 HD
ENDBRANCH  27  28
BRANCH  22  30
ATOM     30  O   UNL     1       0.671  -0.465  -1.174  0.00  0.00    -0.489 OA
BRANCH  30  32
ATOM     31  C   UNL     1      -0.019   1.526   0.010  0.00  0.00    +0.048 C 
ATOM     32  C   UNL     1       0.002  -0.004   0.002  0.00  0.00    +0.226 C 
ENDBRANCH  30  32
ENDBRANCH  22  30
ENDBRANCH   1  24
TORSDOF 4
