REMARK  Name = ZINC44858536
REMARK  5 active torsions:
REMARK  status: ('A' for Active; 'I' for Inactive)
REMARK    1  A    between atoms: C_1  and  C_2
REMARK    2  A    between atoms: C_2  and  C_4
REMARK    3  A    between atoms: C_2  and  C_7
REMARK    4  A    between atoms: C_4  and  N_6
REMARK    5  A    between atoms: C_14  and  C_16
REMARK                            x       y       z     vdW  Elec       q    Type
REMARK                         _______ _______ _______ _____ _____    ______ ____
ROOT
ATOM      1  C   UNL     1       0.556  -0.593  -1.355  0.00  0.00    +0.225 C 
ATOM      2  O   UNL     1       1.535  -1.307  -1.387  0.00  0.00    -0.275 OA
ATOM      3  N   UNL     1       0.098  -0.026  -2.489  0.00  0.00    -0.289 N 
ATOM      4  C   UNL     1      -1.153   0.744  -2.489  0.00  0.00    +0.108 C 
ATOM      5  C   UNL     1      -0.881   2.128  -3.086  0.00  0.00    +0.019 C 
ATOM      6  C   UNL     1      -0.242   1.967  -4.467  0.00  0.00    +0.004 C 
ATOM      7  C   UNL     1       1.091   1.228  -4.332  0.00  0.00    +0.032 C 
ATOM      8  C   UNL     1       0.844  -0.161  -3.748  0.00  0.00    +0.162 C 
ENDROOT
BRANCH   8   9
ATOM      9  C   UNL     1       2.165  -0.837  -3.482  0.00  0.00    +0.231 C 
ATOM     10  O   UNL     1       2.969  -0.324  -2.734  0.00  0.00    -0.274 OA
ATOM     11  N   UNL     1       2.451  -2.013  -4.076  0.00  0.00    -0.328 N 
ATOM     12  H   UNL     1       1.808  -2.424  -4.674  0.00  0.00    +0.145 HD
ATOM     13  H   UNL     1       3.301  -2.448  -3.905  0.00  0.00    +0.145 HD
ENDBRANCH   8   9
BRANCH   1  15
ATOM     14  C   UNL     1       0.828  -0.556   1.109  0.00  0.00    +0.024 C 
ATOM     15  C   UNL     1      -0.149  -0.338  -0.048  0.00  0.00    +0.123 C 
BRANCH  15  16
ATOM     16  C   UNL     1      -1.311  -1.288   0.090  0.00  0.00    +0.058 C 
ATOM     17  S   UNL     1      -1.387  -2.595  -0.828  0.00  0.00    -0.040 S 
BRANCH  16  18
ATOM     18  N   UNL     1      -2.285  -1.036   0.986  0.00  0.00    -0.355 N 
ATOM     19  H   UNL     1      -2.239  -0.243   1.543  0.00  0.00    +0.143 HD
ATOM     20  H   UNL     1      -3.033  -1.647   1.074  0.00  0.00    +0.143 HD
ENDBRANCH  16  18
ENDBRANCH  15  16
ENDBRANCH   1  15
TORSDOF 4
