REMARK  Name = ZINC49112160
REMARK  6 active torsions:
REMARK  status: ('A' for Active; 'I' for Inactive)
REMARK    1  A    between atoms: C_3  and  C_8
REMARK    2  A    between atoms: C_5  and  O_7
REMARK    3  A    between atoms: C_9  and  C_33
REMARK    4  A    between atoms: C_16  and  C_17
REMARK    5  A    between atoms: C_20  and  N_23
REMARK    6  A    between atoms: N_23  and  C_24
REMARK                            x       y       z     vdW  Elec       q    Type
REMARK                         _______ _______ _______ _____ _____    ______ ____
ROOT
ATOM      1  C   UNL     1       3.657   2.169  -0.022  0.00  0.00    +0.054 A 
ATOM      2  C   UNL     1       4.117   3.019  -1.047  0.00  0.00    +0.103 A 
ATOM      3  N   UNL     1       5.287   3.513  -0.690  0.00  0.00    -0.164 NA
ATOM      4  N   UNL     1       5.632   3.010   0.569  0.00  0.00    -0.213 N 
ATOM      5  C   UNL     1       4.624   2.182   0.990  0.00  0.00    +0.164 A 
ATOM      6  N   UNL     1       4.694   1.565   2.174  0.00  0.00    -0.236 NA
ATOM      7  C   UNL     1       5.726   1.734   2.972  0.00  0.00    +0.115 A 
ATOM      8  C   UNL     1       6.780   2.568   2.597  0.00  0.00    +0.048 A 
ATOM      9  C   UNL     1       6.729   3.208   1.374  0.00  0.00    +0.076 A 
ENDROOT
BRANCH   1  12
ATOM     10  C   UNL     1      -0.017   1.378   0.010  0.00  0.00    +0.004 A 
ATOM     11  C   UNL     1       1.167   2.089   0.002  0.00  0.00    +0.009 A 
ATOM     12  C   UNL     1       2.386   1.411  -0.013  0.00  0.00    -0.009 A 
ATOM     13  C   UNL     1       2.404   0.016  -0.021  0.00  0.00    +0.054 A 
ATOM     14  C   UNL     1       1.211  -0.687  -0.013  0.00  0.00    +0.117 A 
ATOM     15  C   UNL     1       0.002  -0.004   0.002  0.00  0.00    +0.045 A 
BRANCH  14  16
ATOM     16  O   UNL     1       1.224  -2.046  -0.021  0.00  0.00    -0.507 OA
ATOM     17  H   UNL     1       1.236  -2.444   0.860  0.00  0.00    +0.292 HD
ENDBRANCH  14  16
ENDBRANCH   1  12
BRANCH   9  18
ATOM     18  C   UNL     1       7.824   4.100   0.946  0.00  0.00    +0.001 A 
ATOM     19  C   UNL     1       7.593   5.469   0.790  0.00  0.00    +0.012 A 
ATOM     20  C   UNL     1       8.617   6.298   0.391  0.00  0.00    +0.023 A 
ATOM     21  C   UNL     1       9.882   5.774   0.142  0.00  0.00    +0.027 A 
ATOM     22  C   UNL     1      10.116   4.411   0.296  0.00  0.00    +0.023 A 
ATOM     23  C   UNL     1       9.097   3.577   0.701  0.00  0.00    +0.012 A 
BRANCH  21  24
ATOM     24  N   UNL     1      10.916   6.615  -0.263  0.00  0.00    -0.342 N 
ATOM     25  H   UNL     1      10.754   7.566  -0.371  0.00  0.00    +0.146 HD
BRANCH  24  26
ATOM     26  C   UNL     1      12.248   6.065  -0.525  0.00  0.00    +0.057 C 
ATOM     27  C   UNL     1      13.035   5.981   0.785  0.00  0.00    -0.056 C 
ATOM     28  N   UNL     1      14.248   6.797   0.694  0.00  0.00    +0.381 N 
ATOM     29  C   UNL     1      13.908   8.205   0.476  0.00  0.00    -0.078 C 
ATOM     30  C   UNL     1      13.149   8.363  -0.844  0.00  0.00    -0.014 C 
ATOM     31  C   UNL     1      13.000   6.981  -1.500  0.00  0.00    +0.004 C 
ATOM     32  C   UNL     1      14.402   6.400  -1.726  0.00  0.00    -0.014 C 
ATOM     33  C   UNL     1      15.121   6.306  -0.375  0.00  0.00    -0.078 C 
ATOM     34  H   UNL     1      14.746   6.728   1.569  0.00  0.00    -0.082 HD
ENDBRANCH  24  26
ENDBRANCH  21  24
ENDBRANCH   9  18
BRANCH   2  35
ATOM     35  C   UNL     1       3.405   3.309  -2.315  0.00  0.00    +0.006 A 
ATOM     36  C   UNL     1       2.638   2.328  -2.949  0.00  0.00    +0.030 A 
ATOM     37  C   UNL     1       1.993   2.640  -4.128  0.00  0.00    +0.111 A 
ATOM     38  N   UNL     1       2.092   3.845  -4.655  0.00  0.00    -0.263 NA
ATOM     39  C   UNL     1       2.806   4.800  -4.089  0.00  0.00    +0.111 A 
ATOM     40  C   UNL     1       3.479   4.574  -2.906  0.00  0.00    +0.030 A 
ENDBRANCH   2  35
TORSDOF 6
