REMARK  Name = ZINC06193202
REMARK  17 active torsions:
REMARK  status: ('A' for Active; 'I' for Inactive)
REMARK    1  A    between atoms: C_1  and  C_2
REMARK    2  A    between atoms: C_2  and  N_73
REMARK    3  A    between atoms: C_3  and  C_4
REMARK    4  A    between atoms: C_3  and  N_73
REMARK    5  A    between atoms: C_5  and  C_6
REMARK    6  A    between atoms: C_5  and  N_73
REMARK    7  A    between atoms: C_6  and  C_7
REMARK    8  A    between atoms: C_7  and  N_8
REMARK    9  A    between atoms: N_8  and  C_9
REMARK   10  A    between atoms: C_9  and  N_11
REMARK   11  A    between atoms: N_11  and  C_12
REMARK   12  A    between atoms: N_11  and  C_22
REMARK   13  A    between atoms: C_12  and  C_13
REMARK   14  A    between atoms: C_22  and  C_23
REMARK   15  A    between atoms: C_27  and  O_35
REMARK   16  A    between atoms: O_35  and  C_36
REMARK   17  A    between atoms: C_36  and  C_37
REMARK                            x       y       z     vdW  Elec       q    Type
REMARK                         _______ _______ _______ _____ _____    ______ ____
ROOT
ATOM      1  N   UNL     1      -4.184  -0.306   0.248  0.00  0.00    -0.304 N 
ENDROOT
BRANCH   1   2
ATOM      2  C   UNL     1      -3.679  -1.292   1.016  0.00  0.00    +0.133 C 
ATOM      3  S   UNL     1      -4.383  -1.637   2.538  0.00  0.00    -0.019 S 
BRANCH   2   4
ATOM      4  N   UNL     1      -2.620  -2.005   0.586  0.00  0.00    -0.326 N 
ATOM      5  H   UNL     1      -2.220  -1.809  -0.276  0.00  0.00    +0.148 HD
BRANCH   4   6
ATOM      6  C   UNL     1      -2.071  -3.077   1.421  0.00  0.00    +0.101 C 
BRANCH   6   7
ATOM      7  C   UNL     1      -0.883  -3.723   0.705  0.00  0.00    +0.000 C 
BRANCH   7   8
ATOM      8  C   UNL     1      -0.310  -4.842   1.577  0.00  0.00    -0.077 C 
BRANCH   8   9
ATOM      9  N   UNL     1       0.823  -5.470   0.864  0.00  0.00    +0.379 N 
ATOM     10  H   UNL     1       0.518  -5.730  -0.082  0.00  0.00    -0.082 HD
BRANCH   9  12
ATOM     11  C   UNL     1       2.413  -4.083   2.152  0.00  0.00    -0.017 C 
ATOM     12  C   UNL     1       1.946  -4.515   0.761  0.00  0.00    -0.082 C 
ENDBRANCH   9  12
BRANCH   9  13
ATOM     13  C   UNL     1       1.258  -6.687   1.580  0.00  0.00    -0.082 C 
ATOM     14  C   UNL     1       2.161  -7.505   0.654  0.00  0.00    -0.017 C 
ENDBRANCH   9  13
ENDBRANCH   8   9
ENDBRANCH   7   8
ENDBRANCH   6   7
ENDBRANCH   4   6
ENDBRANCH   2   4
ENDBRANCH   1   2
BRANCH   1  15
ATOM     15  C   UNL     1      -3.581  -0.010  -1.054  0.00  0.00    +0.142 C 
BRANCH  15  16
ATOM     16  C   UNL     1      -2.496   1.022  -0.882  0.00  0.00    -0.026 A 
ATOM     17  C   UNL     1      -1.197   0.623  -0.630  0.00  0.00    +0.009 A 
ATOM     18  C   UNL     1      -0.198   1.565  -0.478  0.00  0.00    +0.050 A 
ATOM     19  C   UNL     1      -0.497   2.915  -0.572  0.00  0.00    +0.166 A 
ATOM     20  C   UNL     1      -1.807   3.318  -0.821  0.00  0.00    +0.167 A 
ATOM     21  C   UNL     1      -2.804   2.367  -0.972  0.00  0.00    +0.054 A 
ATOM     22  O   UNL     1      -1.842   4.681  -0.868  0.00  0.00    -0.453 OA
ATOM     23  C   UNL     1      -0.475   5.095  -1.053  0.00  0.00    +0.466 C 
ATOM     24  O   UNL     1       0.288   4.026  -0.464  0.00  0.00    -0.453 OA
ENDBRANCH  15  16
ENDBRANCH   1  15
BRANCH   1  25
ATOM     25  C   UNL     1      -5.335   0.470   0.716  0.00  0.00    +0.147 C 
BRANCH  25  26
ATOM     26  C   UNL     1      -6.608  -0.195   0.258  0.00  0.00    +0.035 A 
ATOM     27  C   UNL     1      -7.258  -1.050   1.084  0.00  0.00    +0.020 A 
ATOM     28  C   UNL     1      -8.492  -1.680   0.610  0.00  0.00    +0.002 A 
ATOM     29  C   UNL     1      -9.206  -2.570   1.419  0.00  0.00    +0.055 A 
ATOM     30  C   UNL     1     -10.365  -3.146   0.941  0.00  0.00    +0.121 A 
ATOM     31  C   UNL     1     -10.825  -2.843  -0.339  0.00  0.00    +0.047 A 
ATOM     32  C   UNL     1     -10.131  -1.968  -1.145  0.00  0.00    +0.030 A 
ATOM     33  C   UNL     1      -8.960  -1.377  -0.682  0.00  0.00    +0.049 A 
ATOM     34  N   UNL     1      -8.251  -0.497  -1.474  0.00  0.00    -0.322 N 
ATOM     35  H   UNL     1      -8.581  -0.286  -2.394  0.00  0.00    +0.169 HD
ATOM     36  C   UNL     1      -7.122   0.080  -1.028  0.00  0.00    +0.254 A 
ATOM     37  O   UNL     1      -6.524   0.857  -1.753  0.00  0.00    -0.268 OA
BRANCH  30  38
ATOM     38  O   UNL     1     -11.063  -4.012   1.723  0.00  0.00    -0.492 OA
BRANCH  38  39
ATOM     39  C   UNL     1     -12.254  -4.572   1.167  0.00  0.00    +0.225 C 
ATOM     40  C   UNL     1     -12.897  -5.516   2.186  0.00  0.00    +0.048 C 
ENDBRANCH  38  39
ENDBRANCH  30  38
ENDBRANCH  25  26
ENDBRANCH   1  25
TORSDOF 14
