REMARK  Name = ZINC39210899
REMARK  5 active torsions:
REMARK  status: ('A' for Active; 'I' for Inactive)
REMARK    1  A    between atoms: C_6  and  C_7
REMARK    2  A    between atoms: C_11  and  C_13
REMARK    3  A    between atoms: C_17  and  C_27
REMARK    4  A    between atoms: C_22  and  N_26
REMARK    5  A    between atoms: C_23  and  C_24
REMARK                            x       y       z     vdW  Elec       q    Type
REMARK                         _______ _______ _______ _____ _____    ______ ____
ROOT
ATOM      1  C   UNL     1      -0.711  -4.816  -0.219  0.00  0.00    +0.067 C 
ATOM      2  C   UNL     1      -1.283  -5.612   0.960  0.00  0.00    +0.137 C 
ATOM      3  C   UNL     1      -2.462  -4.893   1.573  0.00  0.00    +0.083 C 
ATOM      4  N   UNL     1      -2.107  -4.587   2.792  0.00  0.00    -0.150 NA
ATOM      5  N   UNL     1      -0.799  -4.982   3.076  0.00  0.00    -0.115 NA
ATOM      6  C   UNL     1      -0.225  -5.550   2.058  0.00  0.00    +0.227 C 
ATOM      7  O   UNL     1       1.040  -5.968   1.837  0.00  0.00    -0.425 OA
ATOM      8  C   UNL     1       1.520  -5.670   0.602  0.00  0.00    +0.200 C 
ATOM      9  C   UNL     1       0.750  -5.146  -0.375  0.00  0.00    +0.091 C 
ENDROOT
BRANCH   3  10
ATOM     10  C   UNL     1      -3.751  -4.597   0.927  0.00  0.00    -0.001 A 
ATOM     11  C   UNL     1      -4.295  -5.493   0.001  0.00  0.00    +0.011 A 
ATOM     12  C   UNL     1      -5.503  -5.209  -0.600  0.00  0.00    +0.016 A 
ATOM     13  C   UNL     1      -6.177  -4.040  -0.290  0.00  0.00    +0.018 A 
ATOM     14  C   UNL     1      -5.644  -3.148   0.626  0.00  0.00    +0.016 A 
ATOM     15  C   UNL     1      -4.440  -3.421   1.240  0.00  0.00    +0.011 A 
ATOM     16 BR   UNL     1      -7.832  -3.659  -1.121  0.00  0.00    -0.050 Br
ENDBRANCH   3  10
BRANCH   1  21
ATOM     17  C   UNL     1      -0.883  -6.451  -2.108  0.00  0.00    +0.080 C 
ATOM     18  N   UNL     1      -0.444  -6.109  -3.288  0.00  0.00    -0.153 NA
ATOM     19  N   UNL     1      -0.649  -4.759  -3.553  0.00  0.00    -0.161 NA
ATOM     20  C   UNL     1      -1.228  -4.144  -2.574  0.00  0.00    +0.118 C 
ATOM     21  C   UNL     1      -1.460  -5.188  -1.500  0.00  0.00    +0.092 C 
BRANCH  17  27
ATOM     22  C   UNL     1       0.245  -8.640  -1.754  0.00  0.00    +0.012 A 
ATOM     23  C   UNL     1       0.285  -9.891  -1.178  0.00  0.00    +0.039 A 
ATOM     24  C   UNL     1      -0.742 -10.306  -0.343  0.00  0.00    +0.123 A 
ATOM     25  C   UNL     1      -1.815  -9.467  -0.084  0.00  0.00    +0.039 A 
ATOM     26  C   UNL     1      -1.867  -8.213  -0.653  0.00  0.00    +0.012 A 
ATOM     27  C   UNL     1      -0.834  -7.788  -1.496  0.00  0.00    -0.001 A 
ATOM     28  F   UNL     1      -0.697 -11.534   0.218  0.00  0.00    -0.205 F 
ENDBRANCH  17  27
ENDBRANCH   1  21
BRANCH   8  29
ATOM     29  N   UNL     1       2.845  -5.909   0.336  0.00  0.00    -0.328 N 
ATOM     30  H   UNL     1       3.417  -6.284   1.023  0.00  0.00    +0.145 HD
ATOM     31  H   UNL     1       3.209  -5.703  -0.539  0.00  0.00    +0.145 HD
ENDBRANCH   8  29
BRANCH   9  32
ATOM     32  C   UNL     1       1.360  -4.889  -1.645  0.00  0.00    +0.100 C 
ATOM     33  N   UNL     1       1.845  -4.686  -2.652  0.00  0.00    -0.191 NA
ENDBRANCH   9  32
TORSDOF 5
