REMARK  Name = ZINC41583973
REMARK  10 active torsions:
REMARK  status: ('A' for Active; 'I' for Inactive)
REMARK    1  A    between atoms: C_1  and  C_2
REMARK    2  A    between atoms: C_5  and  C_36
REMARK    3  A    between atoms: N_8  and  C_10
REMARK    4  A    between atoms: C_10  and  C_11
REMARK    5  A    between atoms: C_12  and  O_35
REMARK    6  A    between atoms: C_18  and  C_31
REMARK    7  A    between atoms: C_19  and  O_22
REMARK    8  A    between atoms: O_22  and  C_23
REMARK    9  A    between atoms: C_26  and  O_29
REMARK   10  A    between atoms: O_29  and  C_30
REMARK                            x       y       z     vdW  Elec       q    Type
REMARK                         _______ _______ _______ _____ _____    ______ ____
ROOT
ATOM      1  C   UNL     1       0.847  -2.322   3.588  0.00  0.00    +0.020 A 
ATOM      2  C   UNL     1       1.175  -1.106   4.165  0.00  0.00    +0.122 A 
ATOM      3  C   UNL     1       0.453  -0.620   5.253  0.00  0.00    +0.046 A 
ATOM      4  C   UNL     1      -0.591  -1.336   5.766  0.00  0.00    +0.019 A 
ATOM      5  C   UNL     1      -0.934  -2.563   5.196  0.00  0.00    +0.068 A 
ATOM      6  C   UNL     1      -0.214  -3.059   4.094  0.00  0.00    +0.144 A 
ATOM      7  O   UNL     1      -0.559  -4.243   3.548  0.00  0.00    -0.447 OA
ATOM      8  C   UNL     1      -1.577  -4.979   4.013  0.00  0.00    +0.254 A 
ATOM      9  C   UNL     1      -2.336  -4.596   5.059  0.00  0.00    +0.222 A 
ATOM     10  C   UNL     1      -2.052  -3.367   5.720  0.00  0.00    +0.235 A 
ATOM     11  O   UNL     1      -2.716  -2.988   6.670  0.00  0.00    -0.283 OA
ENDROOT
BRANCH   8  12
ATOM     12  C   UNL     1      -1.887  -6.290   3.338  0.00  0.00    +0.454 C 
ATOM     13  F   UNL     1      -2.887  -6.958   4.053  0.00  0.00    -0.163 F 
ATOM     14  F   UNL     1      -2.329  -6.050   2.033  0.00  0.00    -0.163 F 
ATOM     15  F   UNL     1      -0.733  -7.080   3.301  0.00  0.00    -0.163 F 
ENDBRANCH   8  12
BRANCH   2  16
ATOM     16  O   UNL     1       2.210  -0.383   3.667  0.00  0.00    -0.506 OA
ATOM     17  H   UNL     1       1.956   0.238   2.970  0.00  0.00    +0.292 HD
ENDBRANCH   2  16
BRANCH   1  18
ATOM     18  C   UNL     1       1.635  -2.839   2.413  0.00  0.00    -0.036 C 
BRANCH  18  24
ATOM     19  C   UNL     1       0.549   1.145  -0.217  0.00  0.00    +0.005 C 
ATOM     20  C   UNL     1       0.432  -0.379  -0.154  0.00  0.00    -0.031 C 
ATOM     21  C   UNL     1       1.094  -0.994  -1.390  0.00  0.00    +0.003 C 
ATOM     22  C   UNL     1       1.041  -2.521  -1.279  0.00  0.00    -0.031 C 
ATOM     23  C   UNL     1       1.722  -2.956   0.020  0.00  0.00    -0.075 C 
ATOM     24  N   UNL     1       1.027  -2.356   1.165  0.00  0.00    +0.383 N 
ATOM     25  C   UNL     1       1.134  -0.894   1.104  0.00  0.00    -0.075 C 
ATOM     26  C   UNL     1      -0.418  -2.982  -1.272  0.00  0.00    +0.005 C 
ATOM     27  H   UNL     1       0.053  -2.622   1.144  0.00  0.00    -0.081 HD
ENDBRANCH  18  24
ENDBRANCH   1  18
BRANCH   9  28
ATOM     28  O   UNL     1      -3.359  -5.384   5.488  0.00  0.00    -0.448 OA
BRANCH  28  29
ATOM     29  C   UNL     1      -4.628  -4.919   5.339  0.00  0.00    +0.129 A 
ATOM     30  C   UNL     1      -4.857  -3.733   4.658  0.00  0.00    +0.050 A 
ATOM     31  C   UNL     1      -6.146  -3.261   4.507  0.00  0.00    +0.049 A 
ATOM     32  C   UNL     1      -7.212  -3.973   5.037  0.00  0.00    +0.120 A 
ATOM     33  C   UNL     1      -6.984  -5.159   5.718  0.00  0.00    +0.049 A 
ATOM     34  C   UNL     1      -5.695  -5.635   5.864  0.00  0.00    +0.050 A 
BRANCH  32  35
ATOM     35  O   UNL     1      -8.481  -3.508   4.888  0.00  0.00    -0.495 OA
ATOM     36  C   UNL     1      -9.531  -4.292   5.459  0.00  0.00    +0.277 C 
ENDBRANCH  32  35
ENDBRANCH  28  29
ENDBRANCH   9  28
TORSDOF 7
