REMARK  Name = ZINC39355692
REMARK  5 active torsions:
REMARK  status: ('A' for Active; 'I' for Inactive)
REMARK    1  A    between atoms: C_4  and  C_7
REMARK    2  A    between atoms: C_17  and  N_19
REMARK    3  A    between atoms: C_23  and  C_26
REMARK    4  A    between atoms: N_28  and  C_29
REMARK    5  A    between atoms: C_29  and  C_30
REMARK                            x       y       z     vdW  Elec       q    Type
REMARK                         _______ _______ _______ _____ _____    ______ ____
ROOT
ATOM      1  C   UNL     1       5.158  -2.595  -0.193  0.00  0.00    -0.036 C 
ATOM      2  C   UNL     1       5.658  -3.471   0.775  0.00  0.00    +0.000 A 
ATOM      3  C   UNL     1       6.962  -3.998   0.665  0.00  0.00    +0.030 A 
ATOM      4  C   UNL     1       7.425  -4.848   1.621  0.00  0.00    +0.042 A 
ATOM      5  C   UNL     1       6.636  -5.210   2.712  0.00  0.00    +0.022 A 
ATOM      6  C   UNL     1       5.370  -4.735   2.871  0.00  0.00    +0.025 A 
ATOM      7  C   UNL     1       4.827  -3.851   1.921  0.00  0.00    +0.041 A 
ATOM      8  N   UNL     1       3.583  -3.385   2.081  0.00  0.00    -0.286 N 
ATOM      9  C   UNL     1       3.002  -2.555   1.236  0.00  0.00    +0.208 C 
ATOM     10  O   UNL     1       1.867  -2.172   1.445  0.00  0.00    -0.277 OA
ATOM     11  C   UNL     1       3.748  -2.075   0.013  0.00  0.00    +0.052 C 
ATOM     12 CL   UNL     1       9.030  -5.494   1.481  0.00  0.00    -0.084 Cl
ATOM     13  H   UNL     1       3.082  -3.672   2.860  0.00  0.00    +0.155 HD
ENDROOT
BRANCH  11  14
ATOM     14  N   UNL     1       2.955  -2.444  -1.167  0.00  0.00    +0.391 N 
ATOM     15  C   UNL     1       1.638  -1.800  -1.090  0.00  0.00    -0.077 C 
ATOM     16  C   UNL     1       0.837  -2.116  -2.355  0.00  0.00    -0.018 C 
ATOM     17  C   UNL     1       0.659  -3.632  -2.475  0.00  0.00    +0.009 C 
ATOM     18  C   UNL     1       2.037  -4.299  -2.479  0.00  0.00    +0.058 C 
ATOM     19  C   UNL     1       2.794  -3.902  -1.210  0.00  0.00    -0.065 C 
ATOM     20  H   UNL     1       3.430  -2.135  -2.002  0.00  0.00    -0.080 HD
BRANCH  18  21
ATOM     21  C   UNL     1       1.872  -5.796  -2.520  0.00  0.00    +0.214 C 
ATOM     22  O   UNL     1       2.318  -6.481  -1.623  0.00  0.00    -0.276 OA
ATOM     23  N   UNL     1       1.227  -6.375  -3.552  0.00  0.00    -0.313 N 
ATOM     24  H   UNL     1       0.870  -5.828  -4.269  0.00  0.00    +0.149 HD
BRANCH  23  25
ATOM     25  C   UNL     1       1.066  -7.831  -3.592  0.00  0.00    +0.135 C 
BRANCH  25  26
ATOM     26  C   UNL     1       0.305  -8.225  -4.859  0.00  0.00    +0.135 C 
ATOM     27  C   UNL     1       0.025  -9.743  -4.851  0.00  0.00    +0.035 C 
ATOM     28  C   UNL     1       0.251 -10.129  -6.338  0.00  0.00    +0.031 C 
ATOM     29  C   UNL     1       1.391  -9.154  -6.725  0.00  0.00    +0.160 C 
ATOM     30  O   UNL     1       1.102  -7.937  -6.014  0.00  0.00    -0.375 OA
ENDBRANCH  25  26
ENDBRANCH  23  25
ENDBRANCH  18  21
ENDBRANCH  11  14
BRANCH   1  34
ATOM     31  C   UNL     1       7.453  -1.448  -3.505  0.00  0.00    +0.000 A 
ATOM     32  C   UNL     1       7.086  -2.774  -3.349  0.00  0.00    +0.001 A 
ATOM     33  C   UNL     1       6.332  -3.162  -2.264  0.00  0.00    +0.008 A 
ATOM     34  C   UNL     1       5.935  -2.207  -1.313  0.00  0.00    -0.022 A 
ATOM     35  C   UNL     1       6.313  -0.865  -1.481  0.00  0.00    +0.008 A 
ATOM     36  C   UNL     1       7.067  -0.498  -2.573  0.00  0.00    +0.001 A 
ENDBRANCH   1  34
TORSDOF 5
