REMARK  Name = ZINC20462876
REMARK  7 active torsions:
REMARK  status: ('A' for Active; 'I' for Inactive)
REMARK    1  A    between atoms: C_4  and  N_7
REMARK    2  A    between atoms: C_13  and  C_29
REMARK    3  A    between atoms: C_15  and  C_18
REMARK    4  A    between atoms: C_18  and  C_19
REMARK    5  A    between atoms: C_19  and  N_20
REMARK    6  A    between atoms: C_23  and  C_26
REMARK    7  A    between atoms: C_29  and  C_30
REMARK                            x       y       z     vdW  Elec       q    Type
REMARK                         _______ _______ _______ _____ _____    ______ ____
ROOT
ATOM      1  N   UNL     1       3.692   2.309   2.465  0.00  0.00    -0.296 N 
ATOM      2  C   UNL     1       2.520   1.656   2.588  0.00  0.00    +0.302 C 
ATOM      3  O   UNL     1       2.510   0.458   2.793  0.00  0.00    -0.253 OA
ATOM      4  N   UNL     1       1.358   2.331   2.484  0.00  0.00    -0.285 N 
ATOM      5  C   UNL     1       1.351   3.794   2.347  0.00  0.00    +0.109 C 
ATOM      6  C   UNL     1       0.530   4.170   1.110  0.00  0.00    +0.023 C 
ATOM      7  C   UNL     1      -0.862   3.542   1.216  0.00  0.00    +0.006 C 
ATOM      8  C   UNL     1      -0.734   2.018   1.266  0.00  0.00    +0.008 C 
ATOM      9  C   UNL     1       0.073   1.618   2.505  0.00  0.00    +0.113 C 
ATOM     10  H   UNL     1       3.703   3.405   2.363  0.00  0.00    +0.151 HD
ENDROOT
BRANCH   1  14
ATOM     11  C   UNL     1       7.788   1.345   3.169  0.00  0.00    +0.000 C 
ATOM     12  C   UNL     1       7.337   1.581   1.726  0.00  0.00    +0.002 C 
ATOM     13  C   UNL     1       6.022   2.362   1.723  0.00  0.00    +0.022 C 
ATOM     14  C   UNL     1       4.951   1.561   2.468  0.00  0.00    +0.074 C 
ATOM     15  C   UNL     1       5.402   1.326   3.911  0.00  0.00    +0.022 C 
ATOM     16  C   UNL     1       6.717   0.544   3.913  0.00  0.00    +0.002 C 
ENDBRANCH   1  14
BRANCH   8  17
ATOM     17  C   UNL     1      -0.016   1.525   0.008  0.00  0.00    -0.013 C 
BRANCH  17  18
ATOM     18  C   UNL     1       0.005  -0.005   0.000  0.00  0.00    -0.079 C 
BRANCH  18  19
ATOM     19  N   UNL     1       0.694  -0.479  -1.208  0.00  0.00    +0.380 N 
ATOM     20  C   UNL     1       1.940   0.265  -1.429  0.00  0.00    -0.078 C 
ATOM     21  C   UNL     1       2.554  -0.152  -2.767  0.00  0.00    -0.004 C 
ATOM     22  C   UNL     1       2.833  -1.658  -2.748  0.00  0.00    +0.099 C 
ATOM     23  C   UNL     1       1.528  -2.407  -2.468  0.00  0.00    -0.004 C 
ATOM     24  C   UNL     1       0.944  -1.925  -1.138  0.00  0.00    -0.078 C 
ATOM     25  H   UNL     1       0.035  -0.294  -2.069  0.00  0.00    -0.082 HD
BRANCH  22  26
ATOM     26  C   UNL     1       3.383  -2.085  -4.084  0.00  0.00    +0.359 C 
ATOM     27  O   UNL     1       2.792  -2.905  -4.746  0.00  0.00    -0.246 OA
ATOM     28  O   UNL     1       4.529  -1.555  -4.540  0.00  0.00    -0.246 OA
ENDBRANCH  22  26
ENDBRANCH  18  19
ENDBRANCH  17  18
ENDBRANCH   8  17
BRANCH   7  29
ATOM     29  C   UNL     1      -1.696   3.944  -0.002  0.00  0.00    +0.129 C 
BRANCH  29  30
ATOM     30  C   UNL     1      -1.926   5.434   0.016  0.00  0.00    +0.356 C 
ATOM     31  O   UNL     1      -1.469   6.105   0.911  0.00  0.00    -0.246 OA
ATOM     32  O   UNL     1      -2.638   6.014  -0.962  0.00  0.00    -0.246 OA
ENDBRANCH  29  30
ENDBRANCH   7  29
TORSDOF 7
