REMARK  Name = ZINC24901830
REMARK  13 active torsions:
REMARK  status: ('A' for Active; 'I' for Inactive)
REMARK    1  A    between atoms: C_1  and  C_2
REMARK    2  A    between atoms: C_2  and  C_3
REMARK    3  A    between atoms: C_3  and  C_4
REMARK    4  A    between atoms: C_3  and  C_5
REMARK    5  A    between atoms: C_3  and  C_6
REMARK    6  A    between atoms: C_13  and  N_17
REMARK    7  A    between atoms: C_14  and  C_15
REMARK    8  A    between atoms: C_18  and  C_20
REMARK    9  A    between atoms: C_20  and  S_21
REMARK   10  A    between atoms: S_21  and  C_22
REMARK   11  A    between atoms: C_24  and  C_31
REMARK   12  A    between atoms: C_25  and  C_27
REMARK   13  A    between atoms: C_27  and  C_28
REMARK                            x       y       z     vdW  Elec       q    Type
REMARK                         _______ _______ _______ _____ _____    ______ ____
ROOT
ATOM      1  N   UNL     1       0.121  -7.506   1.313  0.00  0.00    -0.278 N 
ATOM      2  C   UNL     1       0.099  -6.644   0.278  0.00  0.00    +0.228 C 
ATOM      3  O   UNL     1       0.095  -7.063  -0.860  0.00  0.00    -0.275 OA
ATOM      4  H   UNL     1       0.125  -7.126   2.346  0.00  0.00    +0.155 HD
ENDROOT
BRANCH   1  11
ATOM      5  C   UNL     1       0.584 -13.795   0.262  0.00  0.00    -0.000 C 
ATOM      6  C   UNL     1      -0.243 -13.712   1.548  0.00  0.00    +0.009 C 
ATOM      7  C   UNL     1       0.202 -12.506   2.377  0.00  0.00    +0.037 C 
ATOM      8  C   UNL     1       0.176 -11.266   1.491  0.00  0.00    -0.018 A 
ATOM      9  C   UNL     1       0.167 -11.374   0.144  0.00  0.00    -0.004 A 
ATOM     10  S   UNL     1       0.138  -9.704  -0.443  0.00  0.00    -0.077 S 
ATOM     11  C   UNL     1       0.139  -8.874   1.078  0.00  0.00    +0.090 A 
ATOM     12  C   UNL     1       0.167  -9.907   2.002  0.00  0.00    +0.084 A 
ATOM     13  C   UNL     1       0.180 -12.637  -0.661  0.00  0.00    +0.047 C 
BRANCH   5  14
ATOM     14  C   UNL     1       0.312 -15.128  -0.438  0.00  0.00    -0.032 C 
ATOM     15  C   UNL     1       0.700 -16.280   0.491  0.00  0.00    +0.011 C 
ATOM     16  C   UNL     1      -1.175 -15.229  -0.782  0.00  0.00    +0.011 C 
BRANCH  14  18
ATOM     17  C   UNL     1       0.868 -16.541  -2.422  0.00  0.00    +0.004 C 
ATOM     18  C   UNL     1       1.140 -15.208  -1.722  0.00  0.00    +0.003 C 
ENDBRANCH  14  18
ENDBRANCH   5  14
BRANCH  12  19
ATOM     19  C   UNL     1       0.184  -9.643   3.410  0.00  0.00    +0.102 C 
ATOM     20  N   UNL     1       0.197  -9.434   4.526  0.00  0.00    -0.191 NA
ENDBRANCH  12  19
ENDBRANCH   1  11
BRANCH   2  21
ATOM     21  C   UNL     1       0.080  -5.159   0.534  0.00  0.00    +0.172 C 
BRANCH  21  22
ATOM     22  S   UNL     1       0.053  -4.275  -1.046  0.00  0.00    -0.089 S 
BRANCH  22  23
ATOM     23  C   UNL     1       0.034  -2.611  -0.465  0.00  0.00    +0.135 A 
ATOM     24  N   UNL     1       0.040  -2.167   0.778  0.00  0.00    -0.238 NA
ATOM     25  C   UNL     1       0.029  -0.873   1.040  0.00  0.00    +0.050 A 
ATOM     26  C   UNL     1       0.002  -0.004   0.002  0.00  0.00    +0.022 A 
ATOM     27  S   UNL     1       0.005  -1.136  -1.380  0.00  0.00    -0.065 S 
ATOM     28  C   UNL     1       0.043  -0.375   2.462  0.00  0.00    +0.066 C 
BRANCH  26  29
ATOM     29  C   UNL     1      -0.018   1.503   0.010  0.00  0.00    +0.139 C 
BRANCH  29  30
ATOM     30  C   UNL     1       1.395   2.024  -0.000  0.00  0.00    +0.215 C 
ATOM     31  O   UNL     1       2.328   1.249  -0.013  0.00  0.00    -0.276 OA
ATOM     32  N   UNL     1       1.624   3.353   0.005  0.00  0.00    -0.329 N 
ATOM     33  H   UNL     1       2.656   3.733  -0.003  0.00  0.00    +0.145 HD
ATOM     34  H   UNL     1       0.778   4.056   0.017  0.00  0.00    +0.145 HD
ENDBRANCH  29  30
ENDBRANCH  26  29
ENDBRANCH  22  23
ENDBRANCH  21  22
ENDBRANCH   2  21
TORSDOF 9
