REMARK  Name = ZINC03767927
REMARK  5 active torsions:
REMARK  status: ('A' for Active; 'I' for Inactive)
REMARK    1  A    between atoms: C_3  and  C_10
REMARK    2  A    between atoms: C_5  and  N_7
REMARK    3  A    between atoms: C_13  and  C_15
REMARK    4  A    between atoms: N_17  and  C_18
REMARK    5  A    between atoms: C_25  and  C_27
REMARK                            x       y       z     vdW  Elec       q    Type
REMARK                         _______ _______ _______ _____ _____    ______ ____
ROOT
ATOM      1  C   UNL     1       1.509   8.586   0.209  0.00  0.00    +0.284 C 
ATOM      2  O   UNL     1       1.056   9.704   0.378  0.00  0.00    -0.266 OA
ATOM      3  N   UNL     1       2.833   8.417   0.025  0.00  0.00    -0.279 N 
ATOM      4  H   UNL     1       3.204   7.522  -0.033  0.00  0.00    +0.155 HD
ENDROOT
BRANCH   3   5
ATOM      5  C   UNL     1       3.674   9.531  -0.081  0.00  0.00    +0.036 A 
ATOM      6  C   UNL     1       4.976   9.468   0.411  0.00  0.00    +0.027 A 
ATOM      7  C   UNL     1       5.813  10.558   0.313  0.00  0.00    +0.050 A 
ATOM      8  C   UNL     1       5.361  11.728  -0.278  0.00  0.00    +0.156 A 
ATOM      9  C   UNL     1       4.051  11.800  -0.777  0.00  0.00    +0.112 A 
ATOM     10  C   UNL     1       3.210  10.689  -0.678  0.00  0.00    +0.055 A 
ATOM     11  N   UNL     1       3.896  13.048  -1.290  0.00  0.00    -0.209 NA
ATOM     12  C   UNL     1       5.014  13.710  -1.130  0.00  0.00    +0.230 A 
ATOM     13  O   UNL     1       5.927  12.933  -0.517  0.00  0.00    -0.435 OA
BRANCH  12  14
ATOM     14  C   UNL     1       5.241  15.105  -1.561  0.00  0.00    +0.056 A 
ATOM     15  C   UNL     1       6.477  15.715  -1.339  0.00  0.00    +0.030 A 
ATOM     16  C   UNL     1       6.683  17.019  -1.743  0.00  0.00    +0.019 A 
ATOM     17  C   UNL     1       5.666  17.722  -2.368  0.00  0.00    +0.017 A 
ATOM     18  C   UNL     1       4.439  17.124  -2.591  0.00  0.00    +0.022 A 
ATOM     19  C   UNL     1       4.222  15.818  -2.196  0.00  0.00    +0.053 A 
ATOM     20 CL   UNL     1       2.684  15.067  -2.483  0.00  0.00    -0.083 Cl
ATOM     21 BR   UNL     1       8.356  17.847  -1.443  0.00  0.00    -0.050 Br
ENDBRANCH  12  14
ENDBRANCH   3   5
BRANCH   1  25
ATOM     22  C   UNL     1      -0.102   5.352   0.085  0.00  0.00    +0.136 A 
ATOM     23  C   UNL     1      -1.199   6.135   0.301  0.00  0.00    +0.050 A 
ATOM     24  C   UNL     1      -0.752   7.458   0.378  0.00  0.00    +0.055 A 
ATOM     25  C   UNL     1       0.614   7.426   0.204  0.00  0.00    +0.190 A 
ATOM     26  O   UNL     1       0.986   6.140   0.033  0.00  0.00    -0.450 OA
BRANCH  22  29
ATOM     27  C   UNL     1      -1.307   1.802  -0.123  0.00  0.00    +0.003 A 
ATOM     28  C   UNL     1      -1.308   3.174   0.020  0.00  0.00    +0.012 A 
ATOM     29  C   UNL     1      -0.107   3.882  -0.061  0.00  0.00    +0.019 A 
ATOM     30  C   UNL     1       1.088   3.195  -0.280  0.00  0.00    +0.044 A 
ATOM     31  C   UNL     1       1.075   1.822  -0.416  0.00  0.00    +0.127 A 
ATOM     32  C   UNL     1      -0.118   1.127  -0.334  0.00  0.00    +0.033 A 
BRANCH  31  33
ATOM     33  N   UNL     1       2.342   1.091  -0.647  0.00  0.00    +0.056 N 
ATOM     34  O   UNL     1       2.332  -0.121  -0.767  0.00  0.00    -0.126 OA
ATOM     35  O   UNL     1       3.393   1.702  -0.719  0.00  0.00    -0.126 OA
ENDBRANCH  31  33
ENDBRANCH  22  29
ENDBRANCH   1  25
TORSDOF 5
