REMARK  Name = ZINC04061370
REMARK  7 active torsions:
REMARK  status: ('A' for Active; 'I' for Inactive)
REMARK    1  A    between atoms: C_1  and  C_2
REMARK    2  A    between atoms: C_6  and  N_8
REMARK    3  A    between atoms: C_9  and  C_21
REMARK    4  A    between atoms: C_12  and  S_13
REMARK    5  A    between atoms: S_13  and  C_14
REMARK    6  A    between atoms: C_14  and  C_15
REMARK    7  A    between atoms: C_21  and  C_22
REMARK                            x       y       z     vdW  Elec       q    Type
REMARK                         _______ _______ _______ _____ _____    ______ ____
ROOT
ATOM      1  N   UNL     1      -0.069   5.245   0.029  0.00  0.00    -0.274 N 
ATOM      2  C   UNL     1      -0.537   6.061   1.024  0.00  0.00    +0.144 A 
ATOM      3  N   UNL     1      -0.366   7.291   0.629  0.00  0.00    -0.133 NA
ATOM      4  N   UNL     1       0.166   7.310  -0.540  0.00  0.00    -0.122 NA
ATOM      5  C   UNL     1       0.371   6.082  -0.959  0.00  0.00    +0.196 A 
ENDROOT
BRANCH   1  11
ATOM      6  C   UNL     1       2.490   1.044  -0.016  0.00  0.00    +0.044 C 
ATOM      7  C   UNL     1       1.176   1.782   0.000  0.00  0.00    -0.048 A 
ATOM      8  C   UNL     1      -0.013   1.076   0.008  0.00  0.00    +0.003 A 
ATOM      9  C   UNL     1      -1.220   1.749   0.017  0.00  0.00    +0.002 A 
ATOM     10  C   UNL     1      -1.242   3.131   0.030  0.00  0.00    +0.026 A 
ATOM     11  C   UNL     1      -0.050   3.842   0.022  0.00  0.00    +0.050 A 
ATOM     12  C   UNL     1       1.161   3.163   0.007  0.00  0.00    +0.029 A 
ENDBRANCH   1  11
BRANCH   5  13
ATOM     13  S   UNL     1       1.077   5.605  -2.501  0.00  0.00    -0.081 S 
BRANCH  13  14
ATOM     14  C   UNL     1       1.387   7.235  -3.223  0.00  0.00    +0.114 C 
BRANCH  14  15
ATOM     15  C   UNL     1       2.009   7.071  -4.586  0.00  0.00    -0.019 A 
ATOM     16  C   UNL     1       3.387   7.013  -4.727  0.00  0.00    +0.007 A 
ATOM     17  C   UNL     1       3.914   6.856  -5.999  0.00  0.00    +0.020 A 
ATOM     18  C   UNL     1       3.055   6.774  -7.079  0.00  0.00    +0.111 A 
ATOM     19  N   UNL     1       1.749   6.839  -6.908  0.00  0.00    -0.263 NA
ATOM     20  C   UNL     1       1.213   6.982  -5.712  0.00  0.00    +0.115 A 
ENDBRANCH  14  15
ENDBRANCH  13  14
ENDBRANCH   5  13
BRANCH   2  21
ATOM     21  C   UNL     1      -1.136   5.619   2.335  0.00  0.00    +0.130 C 
BRANCH  21  22
ATOM     22  C   UNL     1      -0.045   5.487   3.366  0.00  0.00    +0.033 A 
ATOM     23  C   UNL     1       0.223   6.510   4.205  0.00  0.00    +0.091 A 
ATOM     24  C   UNL     1       1.253   6.362   5.165  0.00  0.00    +0.254 A 
ATOM     25  O   UNL     1       1.513   7.272   5.932  0.00  0.00    -0.268 OA
ATOM     26  N   UNL     1       1.942   5.205   5.223  0.00  0.00    -0.275 N 
ATOM     27  H   UNL     1       2.671   5.093   5.898  0.00  0.00    +0.173 HD
ATOM     28  C   UNL     1       1.654   4.200   4.375  0.00  0.00    +0.327 A 
ATOM     29  O   UNL     1       2.284   3.163   4.438  0.00  0.00    -0.247 OA
ATOM     30  N   UNL     1       0.674   4.327   3.461  0.00  0.00    -0.311 N 
ATOM     31  H   UNL     1       0.470   3.565   2.846  0.00  0.00    +0.170 HD
ENDBRANCH  21  22
ENDBRANCH   2  21
TORSDOF 6
