REMARK  Name = ZINC09960707
REMARK  10 active torsions:
REMARK  status: ('A' for Active; 'I' for Inactive)
REMARK    1  A    between atoms: C_1  and  C_2
REMARK    2  A    between atoms: C_2  and  C_3
REMARK    3  A    between atoms: C_3  and  C_4
REMARK    4  A    between atoms: C_4  and  N_5
REMARK    5  A    between atoms: C_6  and  N_32
REMARK    6  A    between atoms: C_7  and  N_14
REMARK    7  A    between atoms: N_14  and  C_15
REMARK    8  A    between atoms: C_15  and  C_16
REMARK    9  A    between atoms: C_17  and  C_19
REMARK   10  A    between atoms: C_25  and  C_27
REMARK                            x       y       z     vdW  Elec       q    Type
REMARK                         _______ _______ _______ _____ _____    ______ ____
ROOT
ATOM      1  N   UNL     1       1.124   1.863  -0.028  0.00  0.00    -0.263 N 
ATOM      2  C   UNL     1       0.086   1.046  -0.304  0.00  0.00    +0.241 C 
ATOM      3  O   UNL     1       0.282  -0.132  -0.518  0.00  0.00    -0.273 OA
ENDROOT
BRANCH   1   6
ATOM      4  N   UNL     1       3.992  -0.058   1.231  0.00  0.00    -0.280 N 
ATOM      5  C   UNL     1       2.717   0.447   1.127  0.00  0.00    +0.127 A 
ATOM      6  C   UNL     1       2.424   1.332   0.109  0.00  0.00    +0.140 A 
ATOM      7  C   UNL     1       3.445   1.699  -0.787  0.00  0.00    +0.277 A 
ATOM      8  O   UNL     1       3.215   2.483  -1.692  0.00  0.00    -0.266 OA
ATOM      9  N   UNL     1       4.679   1.179  -0.637  0.00  0.00    -0.273 N 
ATOM     10  H   UNL     1       5.406   1.439  -1.273  0.00  0.00    +0.173 HD
ATOM     11  C   UNL     1       4.945   0.314   0.358  0.00  0.00    +0.331 A 
ATOM     12  O   UNL     1       6.068  -0.140   0.470  0.00  0.00    -0.246 OA
BRANCH   5  13
ATOM     13  N   UNL     1       1.745   0.071   2.023  0.00  0.00    -0.343 N 
ATOM     14  H   UNL     1       0.872   0.495   1.998  0.00  0.00    +0.144 HD
ATOM     15  H   UNL     1       1.931  -0.617   2.680  0.00  0.00    +0.144 HD
ENDBRANCH   5  13
BRANCH   4  16
ATOM     16  C   UNL     1       4.316  -1.003   2.303  0.00  0.00    +0.128 C 
BRANCH  16  17
ATOM     17  C   UNL     1       4.787  -0.231   3.537  0.00  0.00    +0.021 C 
BRANCH  17  19
ATOM     18  C   UNL     1       5.597  -0.446   5.891  0.00  0.00    +0.004 C 
ATOM     19  C   UNL     1       5.125  -1.217   4.657  0.00  0.00    -0.002 C 
ENDBRANCH  17  19
ENDBRANCH  16  17
ENDBRANCH   4  16
ENDBRANCH   1   6
BRANCH   2  20
ATOM     20  C   UNL     1      -1.315   1.598  -0.353  0.00  0.00    +0.163 C 
ATOM     21  C   UNL     1      -1.877   1.732   1.078  0.00  0.00    +0.033 C 
ATOM     22  C   UNL     1      -3.362   1.310   0.907  0.00  0.00    +0.021 C 
ATOM     23  C   UNL     1      -3.251   0.204  -0.172  0.00  0.00    +0.109 C 
ATOM     24  N   UNL     1      -2.192   0.671  -1.084  0.00  0.00    -0.286 N 
ATOM     25  C   UNL     1      -2.051   0.310  -2.375  0.00  0.00    +0.254 C 
ATOM     26  O   UNL     1      -1.135   0.761  -3.037  0.00  0.00    -0.269 OA
BRANCH  25  27
ATOM     27  C   UNL     1      -3.001  -0.627  -2.982  0.00  0.00    +0.074 A 
ATOM     28  C   UNL     1      -3.038  -1.117  -4.278  0.00  0.00    +0.021 A 
ATOM     29  C   UNL     1      -4.046  -1.997  -4.585  0.00  0.00    +0.008 A 
ATOM     30  C   UNL     1      -4.950  -2.331  -3.627  0.00  0.00    +0.046 A 
ATOM     31  S   UNL     1      -4.416  -1.427  -2.247  0.00  0.00    -0.092 S 
ENDBRANCH  25  27
ENDBRANCH   2  20
BRANCH   1  32
ATOM     32  C   UNL     1       0.901   3.303   0.131  0.00  0.00    +0.110 C 
ATOM     33  C   UNL     1       0.740   3.633   1.616  0.00  0.00    +0.025 C 
ENDBRANCH   1  32
TORSDOF 8
