REMARK  Name = ZINC05035506
REMARK  5 active torsions:
REMARK  status: ('A' for Active; 'I' for Inactive)
REMARK    1  A    between atoms: C_4  and  C_7
REMARK    2  A    between atoms: C_7  and  C_8
REMARK    3  A    between atoms: N_10  and  C_11
REMARK    4  A    between atoms: C_19  and  C_20
REMARK    5  A    between atoms: N_22  and  C_23
REMARK                            x       y       z     vdW  Elec       q    Type
REMARK                         _______ _______ _______ _____ _____    ______ ____
ROOT
ATOM      1  C   UNL     1       3.545  -4.969  -0.274  0.00  0.00    +0.092 A 
ATOM      2  C   UNL     1       3.065  -6.293  -0.690  0.00  0.00    +0.042 A 
ATOM      3  C   UNL     1       3.694  -7.463  -1.116  0.00  0.00    +0.013 A 
ATOM      4  C   UNL     1       2.942  -8.557  -1.441  0.00  0.00    +0.001 A 
ATOM      5  C   UNL     1       1.558  -8.511  -1.349  0.00  0.00    +0.004 A 
ATOM      6  C   UNL     1       0.918  -7.364  -0.931  0.00  0.00    +0.047 A 
ATOM      7  C   UNL     1       1.663  -6.239  -0.596  0.00  0.00    +0.138 A 
ATOM      8  O   UNL     1       1.327  -5.008  -0.161  0.00  0.00    -0.448 OA
ATOM      9  C   UNL     1       2.425  -4.244   0.029  0.00  0.00    +0.212 A 
ENDROOT
BRANCH   1  12
ATOM     10  C   UNL     1       5.835  -5.404   0.160  0.00  0.00    +0.222 C 
ATOM     11  O   UNL     1       5.572  -6.576   0.329  0.00  0.00    -0.275 OA
ATOM     12  N   UNL     1       4.865  -4.541  -0.203  0.00  0.00    -0.282 N 
ATOM     13  H   UNL     1       5.089  -3.621  -0.415  0.00  0.00    +0.155 HD
BRANCH  10  14
ATOM     14  C   UNL     1       7.246  -4.913   0.355  0.00  0.00    +0.131 C 
BRANCH  14  18
ATOM     15  C   UNL     1       9.748  -8.184   1.490  0.00  0.00    +0.000 A 
ATOM     16  C   UNL     1       9.579  -7.875   0.153  0.00  0.00    +0.000 A 
ATOM     17  C   UNL     1       8.769  -6.816  -0.214  0.00  0.00    +0.004 A 
ATOM     18  C   UNL     1       8.129  -6.067   0.755  0.00  0.00    -0.039 A 
ATOM     19  C   UNL     1       8.302  -6.373   2.092  0.00  0.00    +0.004 A 
ATOM     20  C   UNL     1       9.108  -7.435   2.459  0.00  0.00    +0.000 A 
ENDBRANCH  14  18
ENDBRANCH  10  14
ENDBRANCH   1  12
BRANCH   9  21
ATOM     21  C   UNL     1       2.419  -2.858   0.494  0.00  0.00    +0.285 C 
ATOM     22  O   UNL     1       3.460  -2.230   0.550  0.00  0.00    -0.266 OA
ATOM     23  N   UNL     1       1.260  -2.276   0.860  0.00  0.00    -0.279 N 
ATOM     24  H   UNL     1       0.441  -2.796   0.881  0.00  0.00    +0.155 HD
BRANCH  23  25
ATOM     25  C   UNL     1       1.238  -0.921   1.210  0.00  0.00    +0.034 A 
ATOM     26  C   UNL     1       0.137  -0.138   0.888  0.00  0.00    +0.026 A 
ATOM     27  C   UNL     1       0.117   1.199   1.234  0.00  0.00    +0.040 A 
ATOM     28  C   UNL     1       1.194   1.759   1.901  0.00  0.00    +0.124 A 
ATOM     29  C   UNL     1       2.293   0.980   2.222  0.00  0.00    +0.040 A 
ATOM     30  C   UNL     1       2.317  -0.357   1.878  0.00  0.00    +0.026 A 
ATOM     31  F   UNL     1       1.173   3.067   2.238  0.00  0.00    -0.205 F 
ENDBRANCH  23  25
ENDBRANCH   9  21
TORSDOF 5
