REMARK  Name = ZINC09465408
REMARK  14 active torsions:
REMARK  status: ('A' for Active; 'I' for Inactive)
REMARK    1  A    between atoms: C_1  and  C_2
REMARK    2  A    between atoms: C_3  and  N_15
REMARK    3  A    between atoms: N_6  and  C_9
REMARK    4  A    between atoms: N_7  and  C_8
REMARK    5  A    between atoms: N_15  and  S_16
REMARK    6  A    between atoms: S_16  and  C_19
REMARK    7  A    between atoms: C_23  and  N_25
REMARK    8  A    between atoms: N_25  and  C_26
REMARK    9  A    between atoms: C_26  and  N_28
REMARK   10  A    between atoms: N_28  and  C_29
REMARK   11  A    between atoms: C_29  and  C_30
REMARK   12  A    between atoms: C_30  and  N_61
REMARK   13  A    between atoms: C_31  and  N_61
REMARK   14  A    between atoms: C_32  and  N_61
REMARK                            x       y       z     vdW  Elec       q    Type
REMARK                         _______ _______ _______ _____ _____    ______ ____
ROOT
ATOM      1  S   UNL     1       0.689   1.878  -0.805  0.00  0.00    +0.073 S 
ATOM      2  O   UNL     1      -0.342   1.261  -1.563  0.00  0.00    -0.150 OA
ATOM      3  O   UNL     1       1.959   2.193  -1.359  0.00  0.00    -0.150 OA
ENDROOT
BRANCH   1   4
ATOM      4  C   UNL     1       0.023   3.386  -0.182  0.00  0.00    +0.110 A 
ATOM      5  C   UNL     1       0.844   4.284   0.476  0.00  0.00    +0.029 A 
ATOM      6  C   UNL     1       0.325   5.468   0.965  0.00  0.00    +0.004 A 
ATOM      7  C   UNL     1      -1.015   5.758   0.798  0.00  0.00    +0.023 A 
ATOM      8  C   UNL     1      -1.842   4.859   0.139  0.00  0.00    +0.034 A 
ATOM      9  C   UNL     1      -1.316   3.672  -0.357  0.00  0.00    +0.052 A 
BRANCH   8  10
ATOM     10  N   UNL     1      -3.200   5.149  -0.032  0.00  0.00    -0.297 N 
ATOM     11  H   UNL     1      -3.624   4.995  -0.890  0.00  0.00    +0.154 HD
BRANCH  10  12
ATOM     12  C   UNL     1      -3.917   5.644   0.996  0.00  0.00    +0.134 C 
ATOM     13  S   UNL     1      -3.148   6.002   2.483  0.00  0.00    -0.019 S 
BRANCH  12  14
ATOM     14  N   UNL     1      -5.240   5.857   0.853  0.00  0.00    -0.328 N 
ATOM     15  H   UNL     1      -5.676   5.654   0.010  0.00  0.00    +0.148 HD
BRANCH  14  16
ATOM     16  C   UNL     1      -6.020   6.395   1.970  0.00  0.00    +0.084 C 
BRANCH  16  17
ATOM     17  C   UNL     1      -7.484   6.540   1.547  0.00  0.00    -0.061 C 
BRANCH  17  20
ATOM     18  C   UNL     1      -9.618   7.454   2.233  0.00  0.00    -0.097 C 
ATOM     19  C   UNL     1      -8.317   6.123   3.782  0.00  0.00    -0.097 C 
ATOM     20  N   UNL     1      -8.253   7.103   2.677  0.00  0.00    +0.377 N 
ATOM     21  H   UNL     1      -7.782   7.952   3.011  0.00  0.00    -0.083 HD
ENDBRANCH  17  20
ENDBRANCH  16  17
ENDBRANCH  14  16
ENDBRANCH  12  14
ENDBRANCH  10  12
ENDBRANCH   8  10
ENDBRANCH   1   4
BRANCH   1  22
ATOM     22  N   UNL     1       0.973   0.894   0.497  0.00  0.00    -0.209 N 
ATOM     23  H   UNL     1       1.881   0.641   0.725  0.00  0.00    +0.174 HD
BRANCH  22  26
ATOM     24  C   UNL     1       1.271  -0.726   3.078  0.00  0.00    +0.067 C 
ATOM     25  C   UNL     1      -0.011  -0.292   2.415  0.00  0.00    +0.061 A 
ATOM     26  C   UNL     1      -0.107   0.423   1.274  0.00  0.00    +0.135 A 
ATOM     27  C   UNL     1      -1.484   0.625   0.997  0.00  0.00    +0.295 A 
ATOM     28  O   UNL     1      -1.944   1.234   0.047  0.00  0.00    -0.264 OA
ATOM     29  N   UNL     1      -2.192   0.018   1.971  0.00  0.00    -0.216 N 
ATOM     30  N   UNL     1      -1.281  -0.556   2.867  0.00  0.00    -0.282 N 
ATOM     31  C   UNL     1      -1.623  -1.308   4.077  0.00  0.00    +0.171 C 
BRANCH  29  32
ATOM     32  C   UNL     1      -3.586  -0.023   2.072  0.00  0.00    +0.067 A 
ATOM     33  C   UNL     1      -4.354  -0.363   0.967  0.00  0.00    +0.028 A 
ATOM     34  C   UNL     1      -5.730  -0.410   1.072  0.00  0.00    +0.002 A 
ATOM     35  C   UNL     1      -6.344  -0.107   2.274  0.00  0.00    +0.000 A 
ATOM     36  C   UNL     1      -5.582   0.238   3.375  0.00  0.00    +0.002 A 
ATOM     37  C   UNL     1      -4.205   0.280   3.278  0.00  0.00    +0.028 A 
ENDBRANCH  29  32
ENDBRANCH  22  26
ENDBRANCH   1  22
TORSDOF 10
