REMARK  Name = ZINC60324293
REMARK  8 active torsions:
REMARK  status: ('A' for Active; 'I' for Inactive)
REMARK    1  A    between atoms: C_1  and  C_2
REMARK    2  A    between atoms: C_2  and  C_3
REMARK    3  A    between atoms: C_3  and  N_4
REMARK    4  A    between atoms: N_4  and  C_5
REMARK    5  A    between atoms: C_16  and  C_18
REMARK    6  A    between atoms: C_18  and  C_19
REMARK    7  A    between atoms: C_19  and  C_20
REMARK    8  A    between atoms: N_30  and  C_33
REMARK                            x       y       z     vdW  Elec       q    Type
REMARK                         _______ _______ _______ _____ _____    ______ ____
ROOT
ATOM      1  N   UNL     1      -1.413  -1.998   0.005  0.00  0.00    -0.298 N 
ATOM      2  C   UNL     1      -1.415  -2.666  -1.166  0.00  0.00    +0.216 C 
ATOM      3  O   UNL     1      -1.399  -3.879  -1.173  0.00  0.00    -0.276 OA
ENDROOT
BRANCH   1   4
ATOM      4  C   UNL     1      -1.391  -2.738   1.269  0.00  0.00    +0.081 C 
ATOM      5  C   UNL     1      -2.622  -3.648   1.357  0.00  0.00    +0.027 C 
ATOM      6  C   UNL     1      -2.700  -4.219   2.771  0.00  0.00    +0.037 C 
ATOM      7  C   UNL     1      -1.381  -4.830   3.168  0.00  0.00    -0.044 A 
ATOM      8  C   UNL     1      -1.375  -5.714   4.240  0.00  0.00    +0.004 A 
ATOM      9  C   UNL     1      -0.199  -6.303   4.656  0.00  0.00    +0.000 A 
ATOM     10  C   UNL     1       0.984  -6.011   4.002  0.00  0.00    +0.000 A 
ATOM     11  C   UNL     1       0.979  -5.136   2.936  0.00  0.00    +0.004 A 
ATOM     12  C   UNL     1      -0.205  -4.545   2.513  0.00  0.00    -0.042 A 
ATOM     13  C   UNL     1      -0.140  -3.611   1.333  0.00  0.00    +0.058 C 
ENDBRANCH   1   4
BRANCH   1  14
ATOM     14  C   UNL     1      -1.433  -0.534   0.013  0.00  0.00    +0.108 C 
BRANCH  14  16
ATOM     15  C   UNL     1      -0.019   1.526   0.010  0.00  0.00    +0.005 C 
ATOM     16  C   UNL     1       0.002  -0.004   0.002  0.00  0.00    +0.016 C 
ENDBRANCH  14  16
ENDBRANCH   1  14
BRANCH   2  17
ATOM     17  C   UNL     1      -1.438  -1.906  -2.467  0.00  0.00    +0.103 C 
BRANCH  17  18
ATOM     18  C   UNL     1      -1.436  -2.893  -3.635  0.00  0.00    +0.083 C 
BRANCH  18  19
ATOM     19  C   UNL     1      -1.458  -2.133  -4.936  0.00  0.00    +0.110 A 
ATOM     20  N   UNL     1      -0.566  -2.279  -5.935  0.00  0.00    -0.336 N 
ATOM     21  H   UNL     1       0.194  -2.881  -5.947  0.00  0.00    +0.167 HD
ATOM     22  C   UNL     1      -0.939  -1.407  -6.939  0.00  0.00    +0.149 A 
ATOM     23  C   UNL     1      -0.428  -1.089  -8.216  0.00  0.00    +0.280 A 
ATOM     24  O   UNL     1       0.569  -1.649  -8.637  0.00  0.00    -0.265 OA
ATOM     25  N   UNL     1      -1.056  -0.159  -8.964  0.00  0.00    -0.273 N 
ATOM     26  H   UNL     1      -0.708   0.063  -9.842  0.00  0.00    +0.173 HD
ATOM     27  C   UNL     1      -2.157   0.466  -8.511  0.00  0.00    +0.331 A 
ATOM     28  O   UNL     1      -2.696   1.299  -9.213  0.00  0.00    -0.246 OA
ATOM     29  N   UNL     1      -2.677   0.192  -7.300  0.00  0.00    -0.280 N 
ATOM     30  C   UNL     1      -2.078  -0.754  -6.484  0.00  0.00    +0.168 A 
ATOM     31  N   UNL     1      -2.351  -1.235  -5.268  0.00  0.00    -0.214 NA
ATOM     32  C   UNL     1      -3.879   0.895  -6.844  0.00  0.00    +0.155 C 
ENDBRANCH  18  19
ENDBRANCH  17  18
ENDBRANCH   2  17
TORSDOF 6
