REMARK  Name = ZINC25601131
REMARK  10 active torsions:
REMARK  status: ('A' for Active; 'I' for Inactive)
REMARK    1  A    between atoms: C_1  and  C_2
REMARK    2  A    between atoms: C_2  and  C_3
REMARK    3  A    between atoms: C_3  and  C_4
REMARK    4  A    between atoms: C_4  and  C_5
REMARK    5  A    between atoms: C_6  and  C_14
REMARK    6  A    between atoms: C_15  and  C_16
REMARK    7  A    between atoms: N_18  and  C_19
REMARK    8  A    between atoms: C_23  and  N_26
REMARK    9  A    between atoms: C_24  and  C_25
REMARK   10  A    between atoms: C_27  and  C_29
REMARK                            x       y       z     vdW  Elec       q    Type
REMARK                         _______ _______ _______ _____ _____    ______ ____
ROOT
ATOM      1  C   UNL     1       3.343   2.023  -0.159  0.00  0.00    +0.241 C 
ATOM      2  O   UNL     1       3.107   0.843   0.022  0.00  0.00    -0.270 OA
ATOM      3  N   UNL     1       2.334   2.917  -0.175  0.00  0.00    -0.282 N 
ATOM      4  H   UNL     1       2.554   3.993  -0.246  0.00  0.00    +0.155 HD
ENDROOT
BRANCH   3   5
ATOM      5  C   UNL     1       1.009   2.478  -0.102  0.00  0.00    +0.038 A 
ATOM      6  C   UNL     1       0.641   1.276  -0.694  0.00  0.00    +0.024 A 
ATOM      7  C   UNL     1      -0.668   0.841  -0.622  0.00  0.00    +0.004 A 
ATOM      8  C   UNL     1      -1.617   1.601   0.035  0.00  0.00    +0.024 A 
ATOM      9  C   UNL     1      -1.254   2.801   0.635  0.00  0.00    +0.038 A 
ATOM     10  C   UNL     1       0.060   3.241   0.564  0.00  0.00    -0.008 A 
ATOM     11  C   UNL     1       0.456   4.544   1.208  0.00  0.00    +0.047 C 
BRANCH   9  12
ATOM     12  N   UNL     1      -2.214   3.567   1.305  0.00  0.00    -0.285 N 
ATOM     13  C   UNL     1      -3.217   2.961   1.969  0.00  0.00    +0.214 C 
ATOM     14  O   UNL     1      -3.232   1.752   2.073  0.00  0.00    -0.276 OA
ATOM     15  C   UNL     1      -4.320   3.784   2.583  0.00  0.00    +0.109 C 
ATOM     16  H   UNL     1      -2.150   4.665   1.289  0.00  0.00    +0.155 HD
ENDBRANCH   9  12
ENDBRANCH   3   5
BRANCH   1  18
ATOM     17  C   UNL     1       5.689   1.559  -0.337  0.00  0.00    +0.017 C 
ATOM     18  C   UNL     1       4.676   2.457  -0.353  0.00  0.00    +0.068 C 
BRANCH  17  20
ATOM     19  C   UNL     1       8.153   1.711   0.236  0.00  0.00    +0.113 A 
ATOM     20  C   UNL     1       7.070   2.008  -0.537  0.00  0.00    +0.024 A 
ATOM     21  C   UNL     1       7.579   2.871  -1.623  0.00  0.00    +0.028 A 
ATOM     22  C   UNL     1       6.995   3.496  -2.720  0.00  0.00    +0.012 A 
ATOM     23  C   UNL     1       7.774   4.255  -3.567  0.00  0.00    +0.001 A 
ATOM     24  C   UNL     1       9.133   4.394  -3.327  0.00  0.00    +0.004 A 
ATOM     25  C   UNL     1       9.721   3.785  -2.239  0.00  0.00    +0.047 A 
ATOM     26  C   UNL     1       8.952   3.013  -1.376  0.00  0.00    +0.136 A 
ATOM     27  O   UNL     1       9.244   2.304  -0.266  0.00  0.00    -0.459 OA
BRANCH  19  28
ATOM     28  C   UNL     1       8.126   0.846   1.470  0.00  0.00    +0.075 C 
BRANCH  28  29
ATOM     29  C   UNL     1       8.377  -0.611   1.076  0.00  0.00    +0.007 C 
BRANCH  29  31
ATOM     30  C   UNL     1       8.601  -2.947   1.935  0.00  0.00    +0.004 C 
ATOM     31  C   UNL     1       8.350  -1.489   2.329  0.00  0.00    -0.003 C 
ENDBRANCH  29  31
ENDBRANCH  28  29
ENDBRANCH  19  28
ENDBRANCH  17  20
ENDBRANCH   1  18
TORSDOF 7
