REMARK  Name = ZINC62528118
REMARK  4 active torsions:
REMARK  status: ('A' for Active; 'I' for Inactive)
REMARK    1  A    between atoms: C_1  and  C_2
REMARK    2  A    between atoms: C_4  and  N_17
REMARK    3  A    between atoms: C_10  and  C_16
REMARK    4  A    between atoms: N_14  and  C_15
REMARK                            x       y       z     vdW  Elec       q    Type
REMARK                         _______ _______ _______ _____ _____    ______ ____
ROOT
ATOM      1  C   UNL     1      -1.021   2.214   0.347  0.00  0.00    +0.047 C 
ATOM      2  C   UNL     1      -0.620   0.775   0.146  0.00  0.00    -0.005 A 
ATOM      3  C   UNL     1      -0.521   0.257  -1.132  0.00  0.00    +0.029 A 
ATOM      4  C   UNL     1      -0.152  -1.068  -1.322  0.00  0.00    +0.027 A 
ATOM      5  C   UNL     1       0.122  -1.876  -0.226  0.00  0.00    +0.050 A 
ATOM      6  C   UNL     1       0.024  -1.357   1.054  0.00  0.00    +0.080 A 
ATOM      7  C   UNL     1      -0.345  -0.026   1.241  0.00  0.00    +0.145 A 
ATOM      8  O   UNL     1      -0.445   0.474   2.502  0.00  0.00    -0.489 OA
ATOM      9  C   UNL     1      -1.584   0.088   3.268  0.00  0.00    +0.241 C 
ATOM     10  C   UNL     1      -1.850  -1.408   3.111  0.00  0.00    +0.110 C 
ATOM     11  C   UNL     1      -0.556  -2.175   3.206  0.00  0.00    +0.226 C 
ATOM     12  O   UNL     1      -0.296  -2.810   4.206  0.00  0.00    -0.275 OA
ATOM     13  N   UNL     1       0.302  -2.157   2.171  0.00  0.00    -0.271 N 
ATOM     14  C   UNL     1       1.526  -2.961   2.219  0.00  0.00    +0.138 C 
ATOM     15  C   UNL     1      -2.493  -1.669   1.748  0.00  0.00    +0.020 C 
ENDROOT
BRANCH   4  16
ATOM     16  N   UNL     1      -0.055  -1.588  -2.617  0.00  0.00    -0.358 N 
ATOM     17  H   UNL     1      -0.246  -1.024  -3.382  0.00  0.00    +0.142 HD
ATOM     18  H   UNL     1       0.203  -2.514  -2.750  0.00  0.00    +0.142 HD
ENDBRANCH   4  16
TORSDOF 1
