REMARK  Name = ZINC57366515
REMARK  8 active torsions:
REMARK  status: ('A' for Active; 'I' for Inactive)
REMARK    1  A    between atoms: C_6  and  C_7
REMARK    2  A    between atoms: C_7  and  C_9
REMARK    3  A    between atoms: C_7  and  N_24
REMARK    4  A    between atoms: C_9  and  N_10
REMARK    5  A    between atoms: N_10  and  C_11
REMARK    6  A    between atoms: C_14  and  N_21
REMARK    7  A    between atoms: C_16  and  S_17
REMARK    8  A    between atoms: S_17  and  N_20
REMARK                            x       y       z     vdW  Elec       q    Type
REMARK                         _______ _______ _______ _____ _____    ______ ____
ROOT
ATOM      1  N   UNL     1      -1.857   0.199  -2.437  0.00  0.00    -0.341 N 
ATOM      2  H   UNL     1      -1.776   1.007  -1.907  0.00  0.00    +0.146 HD
ENDROOT
BRANCH   1   3
ATOM      3  C   UNL     1      -2.339   0.268  -3.746  0.00  0.00    +0.054 A 
ATOM      4  C   UNL     1      -2.363  -0.873  -4.540  0.00  0.00    +0.027 A 
ATOM      5  C   UNL     1      -2.841  -0.801  -5.833  0.00  0.00    +0.034 A 
ATOM      6  C   UNL     1      -3.293   0.403  -6.340  0.00  0.00    +0.128 A 
ATOM      7  C   UNL     1      -3.270   1.540  -5.553  0.00  0.00    +0.063 A 
ATOM      8  C   UNL     1      -2.799   1.475  -4.256  0.00  0.00    +0.128 A 
BRANCH   8   9
ATOM      9  S   UNL     1      -2.776   2.922  -3.252  0.00  0.00    +0.058 S 
ATOM     10  O   UNL     1      -1.468   3.017  -2.706  0.00  0.00    -0.153 OA
ATOM     11  O   UNL     1      -3.356   3.963  -4.026  0.00  0.00    -0.153 OA
BRANCH   9  12
ATOM     12  N   UNL     1      -3.801   2.652  -1.980  0.00  0.00    -0.203 NA
ATOM     13  H   UNL     1      -3.676   3.131  -1.146  0.00  0.00    +0.144 HD
ATOM     14  H   UNL     1      -4.527   2.015  -2.069  0.00  0.00    +0.144 HD
ENDBRANCH   9  12
ENDBRANCH   8   9
BRANCH   6  15
ATOM     15  N   UNL     1      -3.804   0.476  -7.727  0.00  0.00    +0.056 N 
ATOM     16  O   UNL     1      -3.825  -0.517  -8.416  0.00  0.00    -0.126 OA
ATOM     17  O   UNL     1      -4.200   1.528  -8.171  0.00  0.00    -0.126 OA
ENDBRANCH   6  15
ENDBRANCH   1   3
BRANCH   1  18
ATOM     18  C   UNL     1      -1.474  -1.094  -1.864  0.00  0.00    +0.125 C 
BRANCH  18  19
ATOM     19  C   UNL     1      -1.099  -0.909  -0.392  0.00  0.00    +0.104 C 
BRANCH  19  25
ATOM     20  C   UNL     1      -0.025   1.314   0.020  0.00  0.00    +0.008 A 
ATOM     21  C   UNL     1       1.090   2.125   0.113  0.00  0.00    +0.038 A 
ATOM     22  C   UNL     1       2.350   1.595  -0.106  0.00  0.00    +0.123 A 
ATOM     23  C   UNL     1       2.492   0.253  -0.417  0.00  0.00    +0.038 A 
ATOM     24  C   UNL     1       1.375  -0.556  -0.510  0.00  0.00    +0.008 A 
ATOM     25  C   UNL     1       0.117  -0.026  -0.291  0.00  0.00    -0.029 A 
ATOM     26  F   UNL     1       3.441   2.387  -0.016  0.00  0.00    -0.205 F 
ENDBRANCH  19  25
BRANCH  19  27
ATOM     27  N   UNL     1      -0.806  -2.218   0.206  0.00  0.00    -0.290 NA
ATOM     28  C   UNL     1      -1.911  -3.161  -0.020  0.00  0.00    +0.113 C 
ATOM     29  C   UNL     1      -1.538  -4.525   0.567  0.00  0.00    +0.175 C 
ATOM     30  O   UNL     1      -1.232  -4.374   1.956  0.00  0.00    -0.377 OA
ATOM     31  C   UNL     1      -0.159  -3.463   2.212  0.00  0.00    +0.175 C 
ATOM     32  C   UNL     1      -0.518  -2.088   1.642  0.00  0.00    +0.113 C 
ENDBRANCH  19  27
ENDBRANCH  18  19
ENDBRANCH   1  18
TORSDOF 8
