REMARK  Name = ZINC59392962
REMARK  6 active torsions:
REMARK  status: ('A' for Active; 'I' for Inactive)
REMARK    1  A    between atoms: C_1  and  C_2
REMARK    2  A    between atoms: C_7  and  N_8
REMARK    3  A    between atoms: N_8  and  C_9
REMARK    4  A    between atoms: C_9  and  N_11
REMARK    5  A    between atoms: C_12  and  C_14
REMARK    6  A    between atoms: C_17  and  C_19
REMARK                            x       y       z     vdW  Elec       q    Type
REMARK                         _______ _______ _______ _____ _____    ______ ____
ROOT
ATOM      1  N   UNL     1      -0.451   0.126   4.673  0.00  0.00    -0.261 N 
ATOM      2  C   UNL     1      -0.831  -0.484   5.812  0.00  0.00    +0.285 C 
ATOM      3  O   UNL     1      -1.089  -1.674   5.809  0.00  0.00    -0.266 OA
ATOM      4  H   UNL     1      -0.246   1.074   4.675  0.00  0.00    +0.157 HD
ENDROOT
BRANCH   2   5
ATOM      5  C   UNL     1      -0.934   0.283   7.055  0.00  0.00    +0.190 A 
ATOM      6  C   UNL     1      -1.304  -0.215   8.286  0.00  0.00    +0.055 A 
ATOM      7  C   UNL     1      -1.268   0.857   9.182  0.00  0.00    +0.050 A 
ATOM      8  C   UNL     1      -0.881   1.960   8.475  0.00  0.00    +0.136 A 
ATOM      9  O   UNL     1      -0.678   1.601   7.196  0.00  0.00    -0.450 OA
BRANCH   8  10
ATOM     10  C   UNL     1      -0.710   3.319   9.025  0.00  0.00    +0.017 A 
ATOM     11  C   UNL     1      -0.943   3.562  10.380  0.00  0.00    +0.012 A 
ATOM     12  C   UNL     1      -0.781   4.834  10.888  0.00  0.00    +0.016 A 
ATOM     13  C   UNL     1      -0.389   5.869  10.057  0.00  0.00    +0.018 A 
ATOM     14  C   UNL     1      -0.156   5.636   8.712  0.00  0.00    +0.016 A 
ATOM     15  C   UNL     1      -0.308   4.367   8.193  0.00  0.00    +0.012 A 
ATOM     16 BR   UNL     1      -0.169   7.610  10.761  0.00  0.00    -0.050 Br
ENDBRANCH   8  10
ENDBRANCH   2   5
BRANCH   1  17
ATOM     17  C   UNL     1      -0.356  -0.581   3.529  0.00  0.00    +0.141 C 
ATOM     18  S   UNL     1      -0.718  -2.254   3.524  0.00  0.00    -0.018 S 
BRANCH  17  19
ATOM     19  N   UNL     1       0.024   0.030   2.389  0.00  0.00    -0.295 N 
ATOM     20  H   UNL     1       0.299   0.960   2.406  0.00  0.00    +0.154 HD
BRANCH  19  27
ATOM     21  C   UNL     1      -2.252   0.211   0.772  0.00  0.00    +0.046 C 
ATOM     22  C   UNL     1      -1.062  -0.619   0.365  0.00  0.00    -0.027 A 
ATOM     23  C   UNL     1      -1.094  -1.307  -0.846  0.00  0.00    +0.007 A 
ATOM     24  C   UNL     1      -0.051  -2.067  -1.258  0.00  0.00    +0.031 A 
ATOM     25  C   UNL     1       1.115  -2.179  -0.452  0.00  0.00    +0.102 A 
ATOM     26  C   UNL     1       1.155  -1.461   0.816  0.00  0.00    +0.121 A 
ATOM     27  C   UNL     1       0.022  -0.676   1.185  0.00  0.00    +0.064 A 
ATOM     28  N   UNL     1       2.294  -1.639   1.484  0.00  0.00    -0.189 NA
ATOM     29  S   UNL     1       3.187  -2.616   0.570  0.00  0.00    +0.117 S 
ATOM     30  N   UNL     1       2.227  -2.874  -0.696  0.00  0.00    -0.191 NA
ENDBRANCH  19  27
ENDBRANCH  17  19
ENDBRANCH   1  17
TORSDOF 5
