REMARK  Name = ZINC09720533
REMARK  10 active torsions:
REMARK  status: ('A' for Active; 'I' for Inactive)
REMARK    1  A    between atoms: C_1  and  N_2
REMARK    2  A    between atoms: N_2  and  C_3
REMARK    3  A    between atoms: N_2  and  C_4
REMARK    4  A    between atoms: C_7  and  C_10
REMARK    5  A    between atoms: C_11  and  C_12
REMARK    6  A    between atoms: C_11  and  N_26
REMARK    7  A    between atoms: N_14  and  N_15
REMARK    8  A    between atoms: C_16  and  C_17
REMARK    9  A    between atoms: C_18  and  C_19
REMARK   10  A    between atoms: C_27  and  C_29
REMARK                            x       y       z     vdW  Elec       q    Type
REMARK                         _______ _______ _______ _____ _____    ______ ____
ROOT
ATOM      1  C   UNL     1      10.633   1.688   0.205  0.00  0.00    +0.036 C 
ATOM      2  C   UNL     1       9.524   0.914   0.125  0.00  0.00    +0.098 C 
ENDROOT
BRANCH   1   6
ATOM      3  C   UNL     1      14.430  -0.103   0.808  0.00  0.00    +0.029 A 
ATOM      4  C   UNL     1      14.342   1.156   0.222  0.00  0.00    +0.023 A 
ATOM      5  C   UNL     1      13.113   1.741   0.024  0.00  0.00    +0.010 A 
ATOM      6  C   UNL     1      11.948   1.067   0.414  0.00  0.00    -0.023 A 
ATOM      7  C   UNL     1      12.042  -0.197   1.008  0.00  0.00    +0.010 A 
ATOM      8  C   UNL     1      13.276  -0.776   1.198  0.00  0.00    +0.023 A 
BRANCH   3  10
ATOM      9  C   UNL     1      16.898   0.063   0.714  0.00  0.00    +0.129 C 
ATOM     10  N   UNL     1      15.677  -0.691   1.007  0.00  0.00    -0.336 N 
ATOM     11  C   UNL     1      15.768  -2.065   1.509  0.00  0.00    +0.129 C 
ENDBRANCH   3  10
ENDBRANCH   1   6
BRANCH   2  12
ATOM     12  C   UNL     1       8.197   1.537   0.066  0.00  0.00    +0.277 C 
ATOM     13  O   UNL     1       8.093   2.750   0.091  0.00  0.00    -0.267 OA
ATOM     14  N   UNL     1       7.094   0.767  -0.015  0.00  0.00    -0.202 N 
ATOM     15  H   UNL     1       7.179  -0.195  -0.103  0.00  0.00    +0.178 HD
BRANCH  14  16
ATOM     16  N   UNL     1       5.824   1.357   0.026  0.00  0.00    -0.188 NA
ATOM     17  C   UNL     1       4.757   0.613  -0.053  0.00  0.00    +0.130 C 
BRANCH  17  18
ATOM     18  C   UNL     1       3.472   1.209  -0.010  0.00  0.00    +0.022 C 
ATOM     19  C   UNL     1       2.368   0.439  -0.092  0.00  0.00    +0.009 C 
BRANCH  19  20
ATOM     20  C   UNL     1       1.033   1.058  -0.048  0.00  0.00    -0.025 A 
ATOM     21  C   UNL     1      -0.114   0.262  -0.133  0.00  0.00    +0.009 A 
ATOM     22  C   UNL     1      -1.360   0.850  -0.096  0.00  0.00    +0.016 A 
ATOM     23  C   UNL     1      -1.478   2.224   0.035  0.00  0.00    +0.018 A 
ATOM     24  C   UNL     1      -0.347   3.018   0.120  0.00  0.00    +0.016 A 
ATOM     25  C   UNL     1       0.906   2.445   0.079  0.00  0.00    +0.009 A 
ATOM     26 BR   UNL     1      -3.193   3.019   0.092  0.00  0.00    -0.050 Br
ENDBRANCH  19  20
ENDBRANCH  17  18
ENDBRANCH  14  16
ENDBRANCH   2  12
BRANCH   2  27
ATOM     27  N   UNL     1       9.644  -0.480   0.098  0.00  0.00    -0.277 N 
ATOM     28  C   UNL     1       9.034  -1.227   1.039  0.00  0.00    +0.248 C 
ATOM     29  O   UNL     1       8.303  -0.700   1.854  0.00  0.00    -0.270 OA
ATOM     30  H   UNL     1      10.166  -0.908  -0.598  0.00  0.00    +0.155 HD
BRANCH  28  31
ATOM     31  C   UNL     1       9.253  -2.688   1.080  0.00  0.00    +0.037 A 
ATOM     32  C   UNL     1      10.088  -3.298   0.141  0.00  0.00    +0.013 A 
ATOM     33  C   UNL     1      10.292  -4.662   0.188  0.00  0.00    +0.001 A 
ATOM     34  C   UNL     1       9.665  -5.426   1.156  0.00  0.00    +0.000 A 
ATOM     35  C   UNL     1       8.832  -4.829   2.085  0.00  0.00    +0.001 A 
ATOM     36  C   UNL     1       8.623  -3.465   2.053  0.00  0.00    +0.013 A 
ENDBRANCH  28  31
ENDBRANCH   2  27
TORSDOF 8
