REMARK  Name = ZINC39007757
REMARK  6 active torsions:
REMARK  status: ('A' for Active; 'I' for Inactive)
REMARK    1  A    between atoms: C_1  and  C_2
REMARK    2  A    between atoms: N_4  and  C_5
REMARK    3  A    between atoms: C_8  and  S_11
REMARK    4  A    between atoms: S_11  and  N_14
REMARK    5  A    between atoms: C_16  and  S_26
REMARK    6  A    between atoms: S_26  and  C_27
REMARK                            x       y       z     vdW  Elec       q    Type
REMARK                         _______ _______ _______ _____ _____    ______ ____
ROOT
ATOM      1  N   UNL     1      -1.062  -7.313   1.769  0.00  0.00    -0.111 NA
ATOM      2  C   UNL     1      -0.901  -8.483   2.314  0.00  0.00    +0.184 C 
ATOM      3  C   UNL     1      -0.852  -8.629   3.818  0.00  0.00    +0.213 C 
ATOM      4  N   UNL     1      -0.669  -9.979   4.372  0.00  0.00    -0.365 N 
ATOM      5  C   UNL     1      -0.559 -10.981   3.544  0.00  0.00    +0.062 A 
ATOM      6  C   UNL     1      -0.375 -12.351   4.047  0.00  0.00    +0.027 A 
ATOM      7  C   UNL     1      -0.265 -13.363   3.159  0.00  0.00    +0.002 A 
ATOM      8  C   UNL     1      -0.322 -13.140   1.773  0.00  0.00    +0.002 A 
ATOM      9  C   UNL     1      -0.490 -11.911   1.238  0.00  0.00    +0.030 A 
ATOM     10  C   UNL     1      -0.616 -10.775   2.076  0.00  0.00    +0.089 A 
ATOM     11  N   UNL     1      -0.783  -9.580   1.549  0.00  0.00    -0.226 NA
ATOM     12  H   UNL     1      -0.631 -10.121   5.330  0.00  0.00    +0.161 HD
ENDROOT
BRANCH   1  13
ATOM     13  S   UNL     1      -1.121  -7.168   0.120  0.00  0.00    +0.100 S 
ATOM     14  O   UNL     1      -2.304  -7.832  -0.303  0.00  0.00    -0.146 OA
ATOM     15  O   UNL     1       0.166  -7.523  -0.365  0.00  0.00    -0.146 OA
BRANCH  13  19
ATOM     16  C   UNL     1      -1.696  -2.775  -0.819  0.00  0.00    +0.033 A 
ATOM     17  C   UNL     1      -0.415  -3.301  -0.704  0.00  0.00    +0.025 A 
ATOM     18  C   UNL     1      -0.243  -4.641  -0.418  0.00  0.00    +0.031 A 
ATOM     19  C   UNL     1      -1.345  -5.459  -0.245  0.00  0.00    +0.113 A 
ATOM     20  C   UNL     1      -2.621  -4.939  -0.358  0.00  0.00    +0.031 A 
ATOM     21  C   UNL     1      -2.800  -3.599  -0.639  0.00  0.00    +0.025 A 
BRANCH  16  25
ATOM     22  C   UNL     1      -3.032   0.744  -0.789  0.00  0.00    +0.109 C 
ATOM     23  C   UNL     1      -2.899  -0.740  -0.558  0.00  0.00    +0.214 C 
ATOM     24  O   UNL     1      -3.716  -1.323   0.123  0.00  0.00    -0.276 OA
ATOM     25  N   UNL     1      -1.873  -1.418  -1.109  0.00  0.00    -0.286 N 
ATOM     26  H   UNL     1      -1.257  -0.965  -1.706  0.00  0.00    +0.155 HD
ENDBRANCH  16  25
ENDBRANCH  13  19
ENDBRANCH   1  13
BRANCH   3  27
ATOM     27  S   UNL     1      -2.398  -7.960   4.490  0.00  0.00    -0.091 S 
BRANCH  27  28
ATOM     28  C   UNL     1      -2.139  -6.218   4.505  0.00  0.00    +0.029 A 
ATOM     29  C   UNL     1      -0.907  -5.694   4.133  0.00  0.00    +0.016 A 
ATOM     30  C   UNL     1      -0.707  -4.327   4.146  0.00  0.00    +0.001 A 
ATOM     31  C   UNL     1      -1.731  -3.480   4.528  0.00  0.00    +0.001 A 
ATOM     32  C   UNL     1      -2.959  -3.997   4.900  0.00  0.00    +0.021 A 
ATOM     33  C   UNL     1      -3.168  -5.363   4.884  0.00  0.00    +0.054 A 
ATOM     34 CL   UNL     1      -4.712  -6.011   5.343  0.00  0.00    -0.082 Cl
ENDBRANCH  27  28
ENDBRANCH   3  27
TORSDOF 5
