REMARK  Name = ZINC03030939
REMARK  4 active torsions:
REMARK  status: ('A' for Active; 'I' for Inactive)
REMARK    1  A    between atoms: C_1  and  O_2
REMARK    2  A    between atoms: O_2  and  C_3
REMARK    3  A    between atoms: C_3  and  C_5
REMARK    4  A    between atoms: C_18  and  C_20
REMARK                            x       y       z     vdW  Elec       q    Type
REMARK                         _______ _______ _______ _____ _____    ______ ____
ROOT
ATOM      1  C   UNL     1       4.800   1.167   0.730  0.00  0.00    +0.045 C 
ATOM      2  C   UNL     1       5.386   1.579  -0.628  0.00  0.00    +0.033 C 
ATOM      3  C   UNL     1       4.356   1.284  -1.689  0.00  0.00    -0.021 A 
ATOM      4  C   UNL     1       4.516   1.200  -3.124  0.00  0.00    +0.003 A 
ATOM      5  C   UNL     1       5.619   1.356  -3.969  0.00  0.00    +0.010 A 
ATOM      6  C   UNL     1       5.397   1.202  -5.315  0.00  0.00    +0.001 A 
ATOM      7  C   UNL     1       4.144   0.906  -5.825  0.00  0.00    +0.002 A 
ATOM      8  C   UNL     1       3.035   0.745  -5.013  0.00  0.00    +0.026 A 
ATOM      9  C   UNL     1       3.229   0.896  -3.642  0.00  0.00    +0.047 A 
ATOM     10  N   UNL     1       2.373   0.808  -2.581  0.00  0.00    -0.359 N 
ATOM     11  H   UNL     1       1.426   0.610  -2.644  0.00  0.00    +0.166 HD
ATOM     12  C   UNL     1       3.053   1.044  -1.417  0.00  0.00    +0.010 A 
ATOM     13  C   UNL     1       2.490   1.047  -0.016  0.00  0.00    +0.008 C 
ATOM     14  N   UNL     1       3.446   1.738   0.878  0.00  0.00    +0.396 N 
ATOM     15  H   UNL     1       3.471   2.736   0.638  0.00  0.00    -0.083 HD
ATOM     16  H   UNL     1       3.138   1.628   1.852  0.00  0.00    -0.083 HD
ENDROOT
BRANCH  13  17
ATOM     17  C   UNL     1       1.175   1.783   0.000  0.00  0.00    -0.056 A 
ATOM     18  C   UNL     1      -0.013   1.076   0.008  0.00  0.00    +0.003 A 
ATOM     19  C   UNL     1      -1.219   1.750   0.017  0.00  0.00    +0.015 A 
ATOM     20  C   UNL     1      -1.238   3.134   0.029  0.00  0.00    +0.018 A 
ATOM     21  C   UNL     1      -0.049   3.841   0.022  0.00  0.00    +0.015 A 
ATOM     22  C   UNL     1       1.157   3.165   0.008  0.00  0.00    +0.003 A 
ATOM     23 BR   UNL     1      -2.888   4.057   0.049  0.00  0.00    -0.050 Br
ENDBRANCH  13  17
BRANCH   1  24
ATOM     24  C   UNL     1       5.679   1.690   1.836  0.00  0.00    +0.293 C 
ATOM     25  O   UNL     1       5.369   2.697   2.429  0.00  0.00    -0.253 OA
BRANCH  24  27
ATOM     26  C   UNL     1       7.604   1.601   3.238  0.00  0.00    +0.280 C 
ATOM     27  O   UNL     1       6.806   1.039   2.163  0.00  0.00    -0.469 OA
ENDBRANCH  24  27
ENDBRANCH   1  24
TORSDOF 3
