REMARK  Name = ZINC59318235
REMARK  4 active torsions:
REMARK  status: ('A' for Active; 'I' for Inactive)
REMARK    1  A    between atoms: C_1  and  C_2
REMARK    2  A    between atoms: C_2  and  C_3
REMARK    3  A    between atoms: C_13  and  C_15
REMARK    4  A    between atoms: C_18  and  N_22
REMARK                            x       y       z     vdW  Elec       q    Type
REMARK                         _______ _______ _______ _____ _____    ______ ____
ROOT
ATOM      1  C   UNL     1       0.718  -0.497  -1.257  0.00  0.00    -0.006 C 
ATOM      2  C   UNL     1       0.637  -2.025  -1.328  0.00  0.00    +0.010 C 
ATOM      3  C   UNL     1       1.129  -2.515  -2.692  0.00  0.00    +0.056 C 
ATOM      4  C   UNL     1       2.502  -1.917  -2.959  0.00  0.00    +0.054 A 
ATOM      5  C   UNL     1       2.929  -0.830  -2.266  0.00  0.00    +0.015 A 
ATOM      6  S   UNL     1       4.542  -0.550  -2.942  0.00  0.00    -0.057 S 
ATOM      7  C   UNL     1       4.543  -1.826  -4.043  0.00  0.00    +0.165 A 
ATOM      8  N   UNL     1       3.367  -2.384  -3.855  0.00  0.00    -0.229 NA
ATOM      9  N   UNL     1       5.543  -2.197  -4.933  0.00  0.00    -0.261 N 
ATOM     10  C   UNL     1       5.362  -3.257  -5.745  0.00  0.00    +0.251 C 
ATOM     11  O   UNL     1       4.324  -3.889  -5.699  0.00  0.00    -0.270 OA
ATOM     12  C   UNL     1       2.196  -0.078  -1.206  0.00  0.00    +0.048 C 
ATOM     13  H   UNL     1       6.370  -1.693  -4.970  0.00  0.00    +0.157 HD
ENDROOT
BRANCH  10  14
ATOM     14  C   UNL     1       6.425  -3.652  -6.692  0.00  0.00    +0.055 A 
ATOM     15  C   UNL     1       7.620  -2.932  -6.744  0.00  0.00    +0.017 A 
ATOM     16  C   UNL     1       8.609  -3.306  -7.630  0.00  0.00    +0.033 A 
ATOM     17  C   UNL     1       8.418  -4.392  -8.468  0.00  0.00    +0.128 A 
ATOM     18  C   UNL     1       7.237  -5.109  -8.423  0.00  0.00    +0.053 A 
ATOM     19  C   UNL     1       6.241  -4.750  -7.535  0.00  0.00    +0.055 A 
ATOM     20 CL   UNL     1       4.762  -5.657  -7.474  0.00  0.00    -0.083 Cl
BRANCH  17  21
ATOM     21  N   UNL     1       9.484  -4.786  -9.416  0.00  0.00    +0.056 N 
ATOM     22  O   UNL     1      10.518  -4.160  -9.458  0.00  0.00    -0.126 OA
ATOM     23  O   UNL     1       9.321  -5.734 -10.149  0.00  0.00    -0.126 OA
ENDBRANCH  17  21
ENDBRANCH  10  14
BRANCH   1  25
ATOM     24  C   UNL     1      -0.019   1.526   0.010  0.00  0.00    +0.004 C 
ATOM     25  C   UNL     1       0.002  -0.004   0.002  0.00  0.00    +0.000 C 
ENDBRANCH   1  25
TORSDOF 3
