REMARK  Name = ZINC38806918
REMARK  10 active torsions:
REMARK  status: ('A' for Active; 'I' for Inactive)
REMARK    1  A    between atoms: C_1  and  C_2
REMARK    2  A    between atoms: C_2  and  C_3
REMARK    3  A    between atoms: C_3  and  C_5
REMARK    4  A    between atoms: C_3  and  C_6
REMARK    5  A    between atoms: C_6  and  C_8
REMARK    6  A    between atoms: C_6  and  N_20
REMARK    7  A    between atoms: N_10  and  C_11
REMARK    8  A    between atoms: C_21  and  C_23
REMARK    9  A    between atoms: C_26  and  C_32
REMARK   10  A    between atoms: C_27  and  N_29
REMARK                            x       y       z     vdW  Elec       q    Type
REMARK                         _______ _______ _______ _____ _____    ______ ____
ROOT
ATOM      1  C   UNL     1       1.673   0.220   1.306  0.00  0.00    +0.162 C 
ENDROOT
BRANCH   1   2
ATOM      2  C   UNL     1       1.972   1.670   1.585  0.00  0.00    +0.238 C 
ATOM      3  O   UNL     1       2.147   2.045   2.725  0.00  0.00    -0.273 OA
ATOM      4  N   UNL     1       2.046   2.551   0.567  0.00  0.00    -0.284 N 
ATOM      5  H   UNL     1       1.822   2.270  -0.334  0.00  0.00    +0.155 HD
BRANCH   4   6
ATOM      6  C   UNL     1       2.446   3.869   0.811  0.00  0.00    +0.034 A 
ATOM      7  C   UNL     1       3.401   4.139   1.783  0.00  0.00    +0.023 A 
ATOM      8  C   UNL     1       3.792   5.441   2.018  0.00  0.00    +0.006 A 
ATOM      9  C   UNL     1       3.237   6.481   1.290  0.00  0.00    -0.044 A 
ATOM     10  C   UNL     1       2.287   6.215   0.321  0.00  0.00    -0.042 A 
ATOM     11  C   UNL     1       1.895   4.910   0.078  0.00  0.00    +0.027 A 
ATOM     12  C   UNL     1       1.841   7.509  -0.327  0.00  0.00    +0.036 C 
ATOM     13  C   UNL     1       2.292   8.622   0.642  0.00  0.00    +0.009 C 
ATOM     14  C   UNL     1       3.494   7.971   1.358  0.00  0.00    +0.036 C 
ENDBRANCH   4   6
ENDBRANCH   1   2
BRANCH   1  15
ATOM     15  N   UNL     1       1.935  -0.573   2.510  0.00  0.00    -0.300 N 
ATOM     16  C   UNL     1       2.231  -1.883   2.402  0.00  0.00    +0.245 C 
ATOM     17  O   UNL     1       2.281  -2.407   1.306  0.00  0.00    -0.270 OA
ATOM     18  H   UNL     1       1.894  -0.155   3.384  0.00  0.00    +0.150 HD
BRANCH  16  19
ATOM     19  C   UNL     1       2.495  -2.684   3.617  0.00  0.00    +0.039 A 
ATOM     20  C   UNL     1       2.433  -2.086   4.877  0.00  0.00    +0.013 A 
ATOM     21  C   UNL     1       2.680  -2.839   6.007  0.00  0.00    +0.006 A 
ATOM     22  C   UNL     1       2.990  -4.183   5.892  0.00  0.00    -0.020 A 
ATOM     23  C   UNL     1       3.054  -4.780   4.646  0.00  0.00    +0.130 A 
ATOM     24  C   UNL     1       2.803  -4.041   3.509  0.00  0.00    +0.046 A 
ATOM     25  C   UNL     1       3.259  -4.998   7.130  0.00  0.00    +0.046 C 
BRANCH  23  26
ATOM     26  N   UNL     1       3.387  -6.218   4.534  0.00  0.00    +0.057 N 
ATOM     27  O   UNL     1       4.060  -6.612   3.610  0.00  0.00    -0.126 OA
ATOM     28  O   UNL     1       2.986  -6.999   5.365  0.00  0.00    -0.126 OA
ENDBRANCH  23  26
ENDBRANCH  16  19
ENDBRANCH   1  15
BRANCH   1  29
ATOM     29  C   UNL     1       0.203   0.070   0.906  0.00  0.00    +0.015 C 
ATOM     30  C   UNL     1      -0.688   0.417   2.101  0.00  0.00    +0.010 C 
BRANCH  29  32
ATOM     31  C   UNL     1       0.725  -1.675  -0.803  0.00  0.00    +0.004 C 
ATOM     32  C   UNL     1      -0.063  -1.373   0.473  0.00  0.00    +0.002 C 
ENDBRANCH  29  32
ENDBRANCH   1  29
TORSDOF 7
