REMARK  Name = ZINC63375895
REMARK  8 active torsions:
REMARK  status: ('A' for Active; 'I' for Inactive)
REMARK    1  A    between atoms: C_1  and  C_2
REMARK    2  A    between atoms: C_2  and  C_3
REMARK    3  A    between atoms: C_3  and  C_4
REMARK    4  A    between atoms: C_4  and  N_5
REMARK    5  A    between atoms: C_6  and  C_8
REMARK    6  A    between atoms: C_11  and  N_14
REMARK    7  A    between atoms: C_30  and  C_35
REMARK    8  A    between atoms: C_38  and  C_41
REMARK                            x       y       z     vdW  Elec       q    Type
REMARK                         _______ _______ _______ _____ _____    ______ ____
ROOT
ATOM      1  N   UNL     1       4.390  -5.654  -7.235  0.00  0.00    -0.193 N 
ATOM      2  C   UNL     1       4.640  -6.950  -7.516  0.00  0.00    +0.248 C 
ATOM      3  O   UNL     1       4.437  -7.907  -6.800  0.00  0.00    -0.273 OA
ATOM      4  C   UNL     1       5.228  -6.959  -8.910  0.00  0.00    +0.169 C 
ATOM      5  C   UNL     1       6.630  -7.593  -8.885  0.00  0.00    +0.065 C 
ATOM      6  C   UNL     1       7.363  -7.052 -10.090  0.00  0.00    -0.034 C 
ATOM      7  C   UNL     1       7.985  -7.684 -11.081  0.00  0.00    -0.001 A 
ATOM      8  C   UNL     1       8.265  -9.111 -11.307  0.00  0.00    +0.010 A 
ATOM      9  C   UNL     1       8.918  -9.417 -12.459  0.00  0.00    +0.001 A 
ATOM     10  C   UNL     1       9.317  -8.459 -13.396  0.00  0.00    +0.002 A 
ATOM     11  C   UNL     1       9.109  -7.124 -13.264  0.00  0.00    +0.026 A 
ATOM     12  C   UNL     1       8.435  -6.678 -12.090  0.00  0.00    +0.043 A 
ATOM     13  N   UNL     1       8.126  -5.477 -11.703  0.00  0.00    -0.375 N 
ATOM     14  C   UNL     1       7.494  -5.564 -10.385  0.00  0.00    +0.131 C 
ATOM     15  C   UNL     1       6.072  -4.985 -10.402  0.00  0.00    +0.135 C 
ATOM     16  N   UNL     1       5.357  -5.524  -9.232  0.00  0.00    -0.264 N 
ATOM     17  C   UNL     1       4.770  -4.849  -8.236  0.00  0.00    +0.317 C 
ATOM     18  O   UNL     1       4.603  -3.645  -8.239  0.00  0.00    -0.252 OA
ATOM     19  H   UNL     1       8.286  -4.661 -12.203  0.00  0.00    +0.160 HD
ENDROOT
BRANCH  15  20
ATOM     20  C   UNL     1       6.127  -3.481 -10.326  0.00  0.00    -0.025 A 
ATOM     21  C   UNL     1       6.753  -2.865  -9.258  0.00  0.00    +0.006 A 
ATOM     22  C   UNL     1       6.803  -1.486  -9.188  0.00  0.00    +0.004 A 
ATOM     23  C   UNL     1       6.229  -0.722 -10.186  0.00  0.00    -0.050 A 
ATOM     24  C   UNL     1       5.604  -1.337 -11.255  0.00  0.00    +0.004 A 
ATOM     25  C   UNL     1       5.557  -2.717 -11.327  0.00  0.00    +0.006 A 
ATOM     26  C   UNL     1       6.283   0.782 -10.110  0.00  0.00    +0.044 C 
ENDBRANCH  15  20
BRANCH   1  30
ATOM     27  C   UNL     1       2.635  -4.323  -3.695  0.00  0.00    +0.037 A 
ATOM     28  C   UNL     1       3.115  -3.401  -4.629  0.00  0.00    +0.015 A 
ATOM     29  C   UNL     1       3.693  -3.844  -5.798  0.00  0.00    +0.025 A 
ATOM     30  C   UNL     1       3.802  -5.208  -6.048  0.00  0.00    +0.045 A 
ATOM     31  C   UNL     1       3.325  -6.128  -5.121  0.00  0.00    +0.025 A 
ATOM     32  C   UNL     1       2.751  -5.692  -3.948  0.00  0.00    +0.015 A 
BRANCH  27  34
ATOM     33  N   UNL     1       1.904  -2.530  -2.200  0.00  0.00    -0.311 N 
ATOM     34  C   UNL     1       2.014  -3.851  -2.442  0.00  0.00    +0.244 C 
ATOM     35  O   UNL     1       1.603  -4.655  -1.627  0.00  0.00    -0.270 OA
ATOM     36  H   UNL     1       2.233  -1.889  -2.849  0.00  0.00    +0.149 HD
BRANCH  33  37
ATOM     37  C   UNL     1       1.288  -2.062  -0.956  0.00  0.00    +0.104 C 
BRANCH  37  38
ATOM     38  C   UNL     1       1.288  -0.532  -0.930  0.00  0.00    +0.018 C 
BRANCH  38  40
ATOM     39  C   UNL     1       0.644   1.486   0.394  0.00  0.00    +0.004 C 
ATOM     40  C   UNL     1       0.644  -0.043   0.369  0.00  0.00    -0.002 C 
ENDBRANCH  38  40
ENDBRANCH  37  38
ENDBRANCH  33  37
ENDBRANCH  27  34
ENDBRANCH   1  30
TORSDOF 6
