REMARK  Name = ZINC32553308
REMARK  8 active torsions:
REMARK  status: ('A' for Active; 'I' for Inactive)
REMARK    1  A    between atoms: C_1  and  C_2
REMARK    2  A    between atoms: C_6  and  C_8
REMARK    3  A    between atoms: C_8  and  N_9
REMARK    4  A    between atoms: N_9  and  C_10
REMARK    5  A    between atoms: C_11  and  C_13
REMARK    6  A    between atoms: C_13  and  C_14
REMARK    7  A    between atoms: N_21  and  C_22
REMARK    8  A    between atoms: C_22  and  C_23
REMARK                            x       y       z     vdW  Elec       q    Type
REMARK                         _______ _______ _______ _____ _____    ______ ____
ROOT
ATOM      1  C   UNL     1      -3.699  -5.965   0.243  0.00  0.00    +0.152 C 
ATOM      2  C   UNL     1      -4.247  -7.246  -0.318  0.00  0.00    +0.231 C 
ATOM      3  O   UNL     1      -3.665  -8.282  -0.075  0.00  0.00    -0.274 OA
ATOM      4  N   UNL     1      -5.349  -7.292  -1.074  0.00  0.00    -0.313 N 
ATOM      5  C   UNL     1      -6.101  -6.099  -1.453  0.00  0.00    +0.119 C 
ATOM      6  C   UNL     1      -5.737  -4.934  -0.531  0.00  0.00    +0.104 C 
ATOM      7  N   UNL     1      -4.271  -4.819  -0.476  0.00  0.00    -0.285 NA
ATOM      8  H   UNL     1      -5.662  -8.156  -1.384  0.00  0.00    +0.149 HD
ENDROOT
BRANCH   1   9
ATOM      9  C   UNL     1      -2.176  -5.952   0.089  0.00  0.00    +0.124 C 
BRANCH   9  12
ATOM     10  N   UNL     1      -0.532  -5.858  -1.757  0.00  0.00    -0.297 N 
ATOM     11  C   UNL     1       0.521  -5.723  -0.748  0.00  0.00    +0.132 C 
ATOM     12  C   UNL     1      -1.820  -5.969  -1.375  0.00  0.00    +0.218 C 
ATOM     13  O   UNL     1      -2.692  -6.081  -2.210  0.00  0.00    -0.276 OA
BRANCH  10  14
ATOM     14  C   UNL     1      -0.186  -5.874  -3.180  0.00  0.00    +0.179 C 
BRANCH  14  20
ATOM     15  C   UNL     1       0.375  -9.915  -6.089  0.00  0.00    +0.065 C 
ATOM     16  C   UNL     1       0.311  -9.038  -4.865  0.00  0.00    +0.030 A 
ATOM     17  C   UNL     1       0.521  -9.434  -3.596  0.00  0.00    +0.105 A 
ATOM     18  N   UNL     1       0.367  -8.328  -2.805  0.00  0.00    -0.348 N 
ATOM     19  H   UNL     1       0.455  -8.293  -1.839  0.00  0.00    +0.166 HD
ATOM     20  C   UNL     1       0.069  -7.293  -3.619  0.00  0.00    +0.102 A 
ATOM     21  N   UNL     1       0.042  -7.724  -4.851  0.00  0.00    -0.346 N 
ATOM     22  H   UNL     1      -0.145  -7.180  -5.632  0.00  0.00    +0.167 HD
ENDBRANCH  14  20
ENDBRANCH  10  14
ENDBRANCH   9  12
ENDBRANCH   1   9
BRANCH   7  23
ATOM     23  C   UNL     1      -3.868  -3.551   0.148  0.00  0.00    +0.124 C 
BRANCH  23  24
ATOM     24  C   UNL     1      -4.359  -2.400  -0.691  0.00  0.00    +0.020 A 
ATOM     25  C   UNL     1      -3.564  -1.892  -1.704  0.00  0.00    +0.129 A 
ATOM     26  C   UNL     1      -4.017  -0.835  -2.474  0.00  0.00    +0.039 A 
ATOM     27  C   UNL     1      -5.262  -0.286  -2.231  0.00  0.00    +0.004 A 
ATOM     28  C   UNL     1      -6.056  -0.792  -1.220  0.00  0.00    +0.020 A 
ATOM     29  C   UNL     1      -5.607  -1.853  -0.453  0.00  0.00    +0.048 A 
ATOM     30 CL   UNL     1      -6.608  -2.493   0.813  0.00  0.00    -0.083 Cl
ATOM     31  F   UNL     1      -2.347  -2.429  -1.941  0.00  0.00    -0.205 F 
ENDBRANCH  23  24
ENDBRANCH   7  23
TORSDOF 6
