REMARK  Name = ZINC39845642
REMARK  10 active torsions:
REMARK  status: ('A' for Active; 'I' for Inactive)
REMARK    1  A    between atoms: C_1  and  N_2
REMARK    2  A    between atoms: N_2  and  C_3
REMARK    3  A    between atoms: N_2  and  C_4
REMARK    4  A    between atoms: C_4  and  C_5
REMARK    5  A    between atoms: C_5  and  C_6
REMARK    6  A    between atoms: C_6  and  N_7
REMARK    7  A    between atoms: N_7  and  C_8
REMARK    8  A    between atoms: C_9  and  S_20
REMARK    9  A    between atoms: C_11  and  C_13
REMARK   10  A    between atoms: S_20  and  C_23
REMARK                            x       y       z     vdW  Elec       q    Type
REMARK                         _______ _______ _______ _____ _____    ______ ____
ROOT
ATOM      1  C   UNL     1      -3.972  -4.736  -0.254  0.00  0.00    +0.233 A 
ATOM      2  C   UNL     1      -4.108  -6.080  -0.360  0.00  0.00    +0.243 A 
ATOM      3  N   UNL     1      -5.420  -6.362  -0.335  0.00  0.00    -0.188 NA
ATOM      4  C   UNL     1      -6.089  -5.240  -0.216  0.00  0.00    +0.233 A 
ATOM      5  O   UNL     1      -5.213  -4.218  -0.158  0.00  0.00    -0.420 OA
ENDROOT
BRANCH   4   6
ATOM      6  C   UNL     1      -7.560  -5.118  -0.151  0.00  0.00    +0.055 A 
ATOM      7  C   UNL     1      -8.362  -6.259  -0.210  0.00  0.00    +0.014 A 
ATOM      8  C   UNL     1      -9.734  -6.138  -0.148  0.00  0.00    +0.001 A 
ATOM      9  C   UNL     1     -10.318  -4.889  -0.028  0.00  0.00    +0.001 A 
ATOM     10  C   UNL     1      -9.530  -3.753   0.031  0.00  0.00    +0.021 A 
ATOM     11  C   UNL     1      -8.155  -3.860  -0.024  0.00  0.00    +0.053 A 
ATOM     12 CL   UNL     1      -7.167  -2.434   0.058  0.00  0.00    -0.083 Cl
ENDBRANCH   4   6
BRANCH   2  13
ATOM     13  S   UNL     1      -2.798  -7.249  -0.507  0.00  0.00    +0.047 S 
ATOM     14  O   UNL     1      -3.348  -8.399  -1.135  0.00  0.00    -0.163 OA
ATOM     15  O   UNL     1      -1.685  -6.546  -1.044  0.00  0.00    -0.163 OA
BRANCH  13  16
ATOM     16  C   UNL     1      -2.347  -7.734   1.126  0.00  0.00    +0.095 A 
ATOM     17  C   UNL     1      -1.376  -7.030   1.812  0.00  0.00    +0.028 A 
ATOM     18  C   UNL     1      -1.022  -7.410   3.094  0.00  0.00    +0.017 A 
ATOM     19  C   UNL     1      -1.641  -8.494   3.689  0.00  0.00    +0.018 A 
ATOM     20  C   UNL     1      -2.613  -9.198   3.001  0.00  0.00    +0.017 A 
ATOM     21  C   UNL     1      -2.970  -8.815   1.722  0.00  0.00    +0.028 A 
ATOM     22 BR   UNL     1      -1.157  -9.015   5.441  0.00  0.00    -0.050 Br
ENDBRANCH  13  16
ENDBRANCH   2  13
BRANCH   1  23
ATOM     23  N   UNL     1      -2.777  -4.025  -0.239  0.00  0.00    -0.312 N 
ATOM     24  H   UNL     1      -1.932  -4.496  -0.314  0.00  0.00    +0.149 HD
BRANCH  23  25
ATOM     25  C   UNL     1      -2.794  -2.566  -0.111  0.00  0.00    +0.102 C 
BRANCH  25  26
ATOM     26  C   UNL     1      -1.358  -2.037  -0.122  0.00  0.00    +0.000 C 
BRANCH  26  27
ATOM     27  C   UNL     1      -1.376  -0.512   0.012  0.00  0.00    -0.078 C 
BRANCH  27  29
ATOM     28  C   UNL     1      -0.018   1.465   0.010  0.00  0.00    -0.097 C 
ATOM     29  N   UNL     1       0.002  -0.004   0.002  0.00  0.00    +0.376 N 
ATOM     30  C   UNL     1       0.713  -0.491   1.192  0.00  0.00    -0.097 C 
ATOM     31  H   UNL     1       0.474  -0.330  -0.828  0.00  0.00    -0.083 HD
ENDBRANCH  27  29
ENDBRANCH  26  27
ENDBRANCH  25  26
ENDBRANCH  23  25
ENDBRANCH   1  23
TORSDOF 8
