REMARK  Name = ZINC63813587
REMARK  9 active torsions:
REMARK  status: ('A' for Active; 'I' for Inactive)
REMARK    1  A    between atoms: C_1  and  C_2
REMARK    2  A    between atoms: C_2  and  C_3
REMARK    3  A    between atoms: C_3  and  S_4
REMARK    4  A    between atoms: S_4  and  N_7
REMARK    5  A    between atoms: N_7  and  C_8
REMARK    6  A    between atoms: C_11  and  N_14
REMARK    7  A    between atoms: C_15  and  C_17
REMARK    8  A    between atoms: C_20  and  N_24
REMARK    9  A    between atoms: C_21  and  O_23
REMARK                            x       y       z     vdW  Elec       q    Type
REMARK                         _______ _______ _______ _____ _____    ______ ____
ROOT
ATOM      1  N   UNL     1       2.322  -8.078  -3.956  0.00  0.00    -0.281 N 
ATOM      2  C   UNL     1       3.349  -8.435  -4.753  0.00  0.00    +0.248 C 
ATOM      3  O   UNL     1       4.155  -7.601  -5.116  0.00  0.00    -0.270 OA
ATOM      4  H   UNL     1       1.724  -8.755  -3.604  0.00  0.00    +0.155 HD
ENDROOT
BRANCH   1   8
ATOM      5  C   UNL     1       1.722  -4.063  -3.002  0.00  0.00    +0.074 A 
ATOM      6  C   UNL     1       1.411  -5.051  -2.077  0.00  0.00    +0.028 A 
ATOM      7  C   UNL     1       1.609  -6.380  -2.393  0.00  0.00    +0.025 A 
ATOM      8  C   UNL     1       2.121  -6.729  -3.635  0.00  0.00    +0.034 A 
ATOM      9  C   UNL     1       2.433  -5.742  -4.561  0.00  0.00    +0.025 A 
ATOM     10  C   UNL     1       2.229  -4.413  -4.247  0.00  0.00    +0.028 A 
BRANCH   5  11
ATOM     11  N   UNL     1       1.521  -2.716  -2.682  0.00  0.00    -0.103 NA
BRANCH  11  12
ATOM     12  S   UNL     1       0.918  -2.299  -1.198  0.00  0.00    +0.062 S 
ATOM     13  O   UNL     1       1.907  -2.725  -0.271  0.00  0.00    -0.154 OA
ATOM     14  O   UNL     1      -0.390  -2.855  -1.168  0.00  0.00    -0.154 OA
BRANCH  12  15
ATOM     15  C   UNL     1       0.826  -0.487  -1.224  0.00  0.00    +0.190 C 
BRANCH  15  17
ATOM     16  C   UNL     1       0.198   1.543   0.090  0.00  0.00    +0.005 C 
ATOM     17  C   UNL     1       0.275   0.015   0.112  0.00  0.00    +0.021 C 
ENDBRANCH  15  17
ENDBRANCH  12  15
ENDBRANCH  11  12
ENDBRANCH   5  11
ENDBRANCH   1   8
BRANCH   2  18
ATOM     18  C   UNL     1       3.494  -9.841  -5.186  0.00  0.00    +0.041 A 
ATOM     19  C   UNL     1       2.566 -10.800  -4.775  0.00  0.00    +0.015 A 
ATOM     20  C   UNL     1       2.705 -12.111  -5.181  0.00  0.00    +0.037 A 
ATOM     21  C   UNL     1       3.761 -12.480  -5.994  0.00  0.00    +0.167 A 
ATOM     22  C   UNL     1       4.689 -11.533  -6.407  0.00  0.00    +0.148 A 
ATOM     23  C   UNL     1       4.556 -10.213  -6.011  0.00  0.00    +0.060 A 
BRANCH  21  24
ATOM     24  N   UNL     1       3.903 -13.889  -6.425  0.00  0.00    +0.060 N 
ATOM     25  O   UNL     1       3.096 -14.715  -6.066  0.00  0.00    -0.126 OA
ATOM     26  O   UNL     1       4.825 -14.213  -7.136  0.00  0.00    -0.126 OA
ENDBRANCH  21  24
BRANCH  22  27
ATOM     27  O   UNL     1       5.725 -11.902  -7.206  0.00  0.00    -0.504 OA
ATOM     28  H   UNL     1       5.534 -11.839  -8.152  0.00  0.00    +0.292 HD
ENDBRANCH  22  27
ENDBRANCH   2  18
TORSDOF 8
