REMARK  Name = ZINC47557589
REMARK  5 active torsions:
REMARK  status: ('A' for Active; 'I' for Inactive)
REMARK    1  A    between atoms: C_1  and  C_2
REMARK    2  A    between atoms: C_7  and  C_11
REMARK    3  A    between atoms: N_13  and  C_14
REMARK    4  A    between atoms: C_14  and  C_16
REMARK    5  A    between atoms: C_14  and  C_17
REMARK                            x       y       z     vdW  Elec       q    Type
REMARK                         _______ _______ _______ _____ _____    ______ ____
ROOT
ATOM      1  C   UNL     1       0.085  -5.515   2.298  0.00  0.00    +0.264 C 
ATOM      2  O   UNL     1       0.096  -6.568   1.689  0.00  0.00    -0.268 OA
ATOM      3  N   UNL     1       0.092  -5.516   3.646  0.00  0.00    -0.303 N 
ATOM      4  H   UNL     1       0.083  -4.676   4.131  0.00  0.00    +0.150 HD
ENDROOT
BRANCH   1  11
ATOM      5  C   UNL     1      -0.018   1.503   0.010  0.00  0.00    +0.044 C 
ATOM      6  C   UNL     1       0.002  -0.004   0.002  0.00  0.00    -0.046 A 
ATOM      7  C   UNL     1       0.006  -0.703  -1.218  0.00  0.00    +0.021 A 
ATOM      8  C   UNL     1       0.024  -2.051  -1.230  0.00  0.00    +0.093 A 
ATOM      9  N   UNL     1       0.039  -2.759  -0.060  0.00  0.00    -0.306 N 
ATOM     10  C   UNL     1       0.057  -4.095   0.203  0.00  0.00    +0.125 A 
ATOM     11  C   UNL     1       0.065  -4.237   1.561  0.00  0.00    +0.144 A 
ATOM     12  N   UNL     1       0.052  -3.008   2.111  0.00  0.00    -0.223 NA
ATOM     13  C   UNL     1       0.036  -2.104   1.146  0.00  0.00    +0.139 A 
ATOM     14  C   UNL     1       0.022  -0.693   1.173  0.00  0.00    +0.050 A 
ENDBRANCH   1  11
BRANCH   3  15
ATOM     15  C   UNL     1       0.112  -6.785   4.377  0.00  0.00    +0.101 C 
ATOM     16  C   UNL     1      -1.318  -7.308   4.530  0.00  0.00    +0.033 C 
BRANCH  15  17
ATOM     17  C   UNL     1       0.716  -6.570   5.741  0.00  0.00    -0.025 A 
ATOM     18  C   UNL     1       0.405  -5.428   6.460  0.00  0.00    +0.007 A 
ATOM     19  C   UNL     1       0.953  -5.222   7.710  0.00  0.00    +0.028 A 
ATOM     20  C   UNL     1       1.819  -6.162   8.248  0.00  0.00    +0.067 A 
ATOM     21  C   UNL     1       2.133  -7.313   7.523  0.00  0.00    +0.067 A 
ATOM     22  C   UNL     1       1.573  -7.514   6.270  0.00  0.00    +0.033 A 
ATOM     23  N   UNL     1       3.011  -8.056   8.307  0.00  0.00    -0.306 N 
ATOM     24  H   UNL     1       3.405  -8.910   8.067  0.00  0.00    +0.170 HD
ATOM     25  C   UNL     1       3.222  -7.388   9.457  0.00  0.00    +0.325 A 
ATOM     26  O   UNL     1       3.941  -7.763  10.364  0.00  0.00    -0.247 OA
ATOM     27  N   UNL     1       2.517  -6.242   9.451  0.00  0.00    -0.306 N 
ATOM     28  H   UNL     1       2.497  -5.583  10.163  0.00  0.00    +0.170 HD
ENDBRANCH  15  17
ENDBRANCH   3  15
TORSDOF 3
