REMARK  Name = ZINC12995221
REMARK  8 active torsions:
REMARK  status: ('A' for Active; 'I' for Inactive)
REMARK    1  A    between atoms: C_1  and  C_2
REMARK    2  A    between atoms: C_6  and  O_9
REMARK    3  A    between atoms: C_7  and  C_8
REMARK    4  A    between atoms: O_9  and  C_10
REMARK    5  A    between atoms: C_10  and  C_11
REMARK    6  A    between atoms: N_13  and  C_14
REMARK    7  A    between atoms: N_13  and  C_15
REMARK    8  A    between atoms: C_15  and  C_16
REMARK                            x       y       z     vdW  Elec       q    Type
REMARK                         _______ _______ _______ _____ _____    ______ ____
ROOT
ATOM      1  C   UNL     1       2.010   6.149  -1.153  0.00  0.00    +0.253 C 
ATOM      2  O   UNL     1       2.108   5.558  -2.208  0.00  0.00    -0.272 OA
ATOM      3  N   UNL     1       2.143   5.480   0.009  0.00  0.00    -0.294 N 
ATOM      4  C   UNL     1       2.025   6.194   1.283  0.00  0.00    +0.132 C 
ENDROOT
BRANCH   1   5
ATOM      5  C   UNL     1       1.741   7.631  -1.143  0.00  0.00    +0.324 C 
BRANCH   5   6
ATOM      6  O   UNL     1       1.642   8.107  -2.487  0.00  0.00    -0.482 OA
BRANCH   6  12
ATOM      7  C   UNL     1       0.926  11.887  -5.490  0.00  0.00    +0.044 C 
ATOM      8  C   UNL     1       1.044  11.311  -4.103  0.00  0.00    -0.044 A 
ATOM      9  C   UNL     1       0.904  12.133  -3.000  0.00  0.00    +0.004 A 
ATOM     10  C   UNL     1       1.011  11.608  -1.725  0.00  0.00    +0.004 A 
ATOM     11  C   UNL     1       1.258  10.260  -1.551  0.00  0.00    +0.046 A 
ATOM     12  C   UNL     1       1.399   9.433  -2.656  0.00  0.00    +0.124 A 
ATOM     13  C   UNL     1       1.296   9.964  -3.934  0.00  0.00    -0.006 A 
ATOM     14  C   UNL     1       1.455   9.069  -5.136  0.00  0.00    +0.048 C 
ENDBRANCH   6  12
ENDBRANCH   5   6
ENDBRANCH   1   5
BRANCH   3  15
ATOM     15  C   UNL     1       2.405   4.039  -0.001  0.00  0.00    +0.181 C 
BRANCH  15  16
ATOM     16  C   UNL     1       1.097   3.290   0.009  0.00  0.00    +0.128 A 
ATOM     17  N   UNL     1       1.132   1.932   0.002  0.00  0.00    -0.309 N 
ATOM     18  H   UNL     1       1.987   1.473  -0.009  0.00  0.00    +0.170 HD
ATOM     19  C   UNL     1      -0.014   1.213   0.009  0.00  0.00    +0.259 A 
ATOM     20  O   UNL     1       0.002  -0.004   0.002  0.00  0.00    -0.267 OA
ATOM     21  C   UNL     1      -1.281   1.960   0.019  0.00  0.00    +0.065 A 
ATOM     22  C   UNL     1      -2.517   1.315   0.033  0.00  0.00    +0.015 A 
ATOM     23  C   UNL     1      -3.673   2.064   0.048  0.00  0.00    +0.001 A 
ATOM     24  C   UNL     1      -3.615   3.452   0.055  0.00  0.00    +0.002 A 
ATOM     25  C   UNL     1      -2.405   4.108   0.047  0.00  0.00    +0.028 A 
ATOM     26  C   UNL     1      -1.219   3.371   0.032  0.00  0.00    +0.078 A 
ATOM     27  N   UNL     1      -0.005   3.976   0.023  0.00  0.00    -0.232 NA
ENDBRANCH  15  16
ENDBRANCH   3  15
TORSDOF 5
