REMARK  Name = ZINC36206265
REMARK  13 active torsions:
REMARK  status: ('A' for Active; 'I' for Inactive)
REMARK    1  A    between atoms: C_1  and  C_2
REMARK    2  A    between atoms: C_2  and  C_3
REMARK    3  A    between atoms: C_2  and  C_4
REMARK    4  A    between atoms: C_2  and  O_5
REMARK    5  A    between atoms: O_5  and  C_6
REMARK    6  A    between atoms: C_6  and  C_7
REMARK    7  A    between atoms: C_7  and  C_9
REMARK    8  A    between atoms: C_7  and  O_36
REMARK    9  A    between atoms: C_9  and  N_10
REMARK   10  A    between atoms: N_10  and  C_11
REMARK   11  A    between atoms: N_10  and  C_30
REMARK   12  A    between atoms: C_11  and  C_12
REMARK   13  A    between atoms: C_18  and  C_23
REMARK                            x       y       z     vdW  Elec       q    Type
REMARK                         _______ _______ _______ _____ _____    ______ ____
ROOT
ATOM      1  C   UNL     1       6.157  -0.454  -3.941  0.00  0.00    -0.003 C 
ENDROOT
BRANCH   1   2
ATOM      2  C   UNL     1       6.666  -0.815  -5.313  0.00  0.00    +0.094 A 
ATOM      3  N   UNL     1       7.981  -0.641  -5.604  0.00  0.00    -0.312 N 
ATOM      4  H   UNL     1       8.575  -0.287  -4.924  0.00  0.00    +0.170 HD
ATOM      5  C   UNL     1       8.476  -0.952  -6.816  0.00  0.00    +0.260 A 
ATOM      6  O   UNL     1       9.659  -0.791  -7.061  0.00  0.00    -0.267 OA
ATOM      7  C   UNL     1       7.591  -1.475  -7.813  0.00  0.00    +0.080 A 
ATOM      8  C   UNL     1       7.882  -1.882  -9.182  0.00  0.00    +0.006 A 
ATOM      9  C   UNL     1       6.871  -2.353  -9.951  0.00  0.00    +0.056 A 
ATOM     10  S   UNL     1       5.458  -2.276  -8.867  0.00  0.00    -0.076 S 
ATOM     11  C   UNL     1       6.250  -1.619  -7.421  0.00  0.00    +0.116 A 
ATOM     12  N   UNL     1       5.836  -1.294  -6.199  0.00  0.00    -0.229 NA
BRANCH   8  13
ATOM     13  C   UNL     1       9.259  -1.781  -9.724  0.00  0.00    +0.019 A 
ATOM     14  C   UNL     1       9.537  -0.900 -10.768  0.00  0.00    +0.011 A 
ATOM     15  C   UNL     1      10.820  -0.810 -11.268  0.00  0.00    +0.001 A 
ATOM     16  C   UNL     1      11.831  -1.591 -10.736  0.00  0.00    +0.003 A 
ATOM     17  C   UNL     1      11.562  -2.467  -9.700  0.00  0.00    +0.039 A 
ATOM     18  C   UNL     1      10.282  -2.563  -9.187  0.00  0.00    +0.131 A 
ATOM     19  F   UNL     1      10.022  -3.415  -8.171  0.00  0.00    -0.205 F 
ENDBRANCH   8  13
ENDBRANCH   1   2
BRANCH   1  20
ATOM     20  N   UNL     1       4.763  -0.897  -3.803  0.00  0.00    +0.388 N 
ATOM     21  H   UNL     1       4.274  -0.741  -4.671  0.00  0.00    -0.081 HD
BRANCH  20  22
ATOM     22  C   UNL     1       4.735  -2.329  -3.476  0.00  0.00    -0.068 C 
ATOM     23  C   UNL     1       5.368  -3.126  -4.618  0.00  0.00    -0.015 C 
ATOM     24  C   UNL     1       5.338  -4.617  -4.277  0.00  0.00    -0.002 C 
ATOM     25  C   UNL     1       6.125  -4.861  -2.988  0.00  0.00    -0.000 C 
ATOM     26  C   UNL     1       5.492  -4.064  -1.846  0.00  0.00    -0.002 C 
ATOM     27  C   UNL     1       5.521  -2.573  -2.187  0.00  0.00    -0.015 C 
ENDBRANCH  20  22
BRANCH  20  28
ATOM     28  C   UNL     1       4.111  -0.136  -2.729  0.00  0.00    -0.044 C 
BRANCH  28  29
ATOM     29  C   UNL     1       2.625  -0.497  -2.678  0.00  0.00    +0.124 C 
BRANCH  29  30
ATOM     30  O   UNL     1       1.993  -0.087  -3.892  0.00  0.00    -0.391 OA
ATOM     31  H   UNL     1       2.051   0.863  -4.064  0.00  0.00    +0.210 HD
ENDBRANCH  29  30
BRANCH  29  32
ATOM     32  C   UNL     1       1.968   0.216  -1.495  0.00  0.00    +0.189 C 
BRANCH  32  33
ATOM     33  O   UNL     1       0.609  -0.211  -1.377  0.00  0.00    -0.372 OA
BRANCH  33  35
ATOM     34  C   UNL     1      -0.118   1.916  -0.490  0.00  0.00    +0.041 C 
ATOM     35  C   UNL     1      -0.100   0.399  -0.296  0.00  0.00    +0.061 C 
ATOM     36  C   UNL     1       0.596   0.062   1.024  0.00  0.00    +0.041 C 
ATOM     37  C   UNL     1      -1.536  -0.129  -0.266  0.00  0.00    +0.041 C 
ENDBRANCH  33  35
ENDBRANCH  32  33
ENDBRANCH  29  32
ENDBRANCH  28  29
ENDBRANCH  20  28
ENDBRANCH   1  20
TORSDOF 10
