REMARK  Name = ZINC39673020
REMARK  6 active torsions:
REMARK  status: ('A' for Active; 'I' for Inactive)
REMARK    1  A    between atoms: C_1  and  C_2
REMARK    2  A    between atoms: C_5  and  C_9
REMARK    3  A    between atoms: C_7  and  C_8
REMARK    4  A    between atoms: C_9  and  N_10
REMARK    5  A    between atoms: C_11  and  C_13
REMARK    6  A    between atoms: C_24  and  C_26
REMARK                            x       y       z     vdW  Elec       q    Type
REMARK                         _______ _______ _______ _____ _____    ______ ____
ROOT
ATOM      1  C   UNL     1       2.974  -6.515  -0.294  0.00  0.00    +0.100 C 
ATOM      2  C   UNL     1       3.744  -6.205  -1.597  0.00  0.00    +0.121 C 
ATOM      3  N   UNL     1       4.646  -7.365  -1.784  0.00  0.00    -0.296 N 
ATOM      4  C   UNL     1       3.831  -8.535  -1.379  0.00  0.00    +0.115 C 
ATOM      5  C   UNL     1       3.033  -8.045  -0.155  0.00  0.00    -0.004 C 
ATOM      6  C   UNL     1       3.753  -8.431   1.134  0.00  0.00    -0.010 C 
ATOM      7  C   UNL     1       3.749  -9.956   1.278  0.00  0.00    -0.082 C 
ATOM      8  N   UNL     1       2.365 -10.443   1.302  0.00  0.00    +0.379 N 
ATOM      9  C   UNL     1       1.707 -10.149   0.024  0.00  0.00    -0.082 C 
ATOM     10  C   UNL     1       1.625  -8.632  -0.174  0.00  0.00    -0.010 C 
ATOM     11  C   UNL     1       5.921  -7.359  -2.222  0.00  0.00    +0.247 C 
ATOM     12  O   UNL     1       6.506  -8.408  -2.407  0.00  0.00    -0.270 OA
ATOM     13  H   UNL     1       2.363 -11.440   1.458  0.00  0.00    -0.086 HD
ATOM     14  H   UNL     1       1.863  -9.988   2.050  0.00  0.00    -0.086 HD
ENDROOT
BRANCH  11  15
ATOM     15  C   UNL     1       6.607  -6.076  -2.479  0.00  0.00    +0.045 A 
ATOM     16  C   UNL     1       5.992  -5.095  -3.265  0.00  0.00    +0.014 A 
ATOM     17  C   UNL     1       6.630  -3.897  -3.505  0.00  0.00    +0.001 A 
ATOM     18  C   UNL     1       7.886  -3.650  -2.972  0.00  0.00    +0.012 A 
ATOM     19  C   UNL     1       8.514  -4.612  -2.189  0.00  0.00    +0.031 A 
ATOM     20  C   UNL     1       7.873  -5.834  -1.931  0.00  0.00    +0.006 A 
ATOM     21  C   UNL     1       8.756  -6.662  -1.072  0.00  0.00    -0.006 A 
ATOM     22  C   UNL     1       8.603  -7.936  -0.541  0.00  0.00    +0.009 A 
ATOM     23  C   UNL     1       9.603  -8.485   0.246  0.00  0.00    +0.001 A 
ATOM     24  C   UNL     1      10.757  -7.772   0.509  0.00  0.00    +0.001 A 
ATOM     25  C   UNL     1      10.925  -6.499  -0.013  0.00  0.00    +0.012 A 
ATOM     26  C   UNL     1       9.930  -5.938  -0.804  0.00  0.00    +0.030 A 
ATOM     27  C   UNL     1       9.826  -4.633  -1.500  0.00  0.00    +0.194 C 
ATOM     28  O   UNL     1      10.654  -3.744  -1.496  0.00  0.00    -0.287 OA
ENDBRANCH  11  15
BRANCH   1  30
ATOM     29  N   UNL     1       0.825  -5.808   0.707  0.00  0.00    -0.311 N 
ATOM     30  C   UNL     1       1.544  -6.053  -0.406  0.00  0.00    +0.218 C 
ATOM     31  O   UNL     1       1.040  -5.901  -1.499  0.00  0.00    -0.275 OA
ATOM     32  H   UNL     1       1.228  -5.930   1.581  0.00  0.00    +0.149 HD
BRANCH  29  33
ATOM     33  C   UNL     1      -0.565  -5.359   0.598  0.00  0.00    +0.139 C 
BRANCH  33  38
ATOM     34  C   UNL     1      -2.767  -4.591   5.885  0.00  0.00    +0.044 C 
ATOM     35  C   UNL     1      -2.192  -4.791   4.506  0.00  0.00    -0.048 A 
ATOM     36  C   UNL     1      -1.559  -3.744   3.862  0.00  0.00    +0.004 A 
ATOM     37  C   UNL     1      -1.032  -3.928   2.598  0.00  0.00    +0.005 A 
ATOM     38  C   UNL     1      -1.138  -5.159   1.977  0.00  0.00    -0.030 A 
ATOM     39  C   UNL     1      -1.770  -6.205   2.621  0.00  0.00    +0.008 A 
ATOM     40  C   UNL     1      -2.294  -6.023   3.888  0.00  0.00    -0.047 A 
ATOM     41  C   UNL     1      -2.978  -7.166   4.592  0.00  0.00    +0.044 C 
ENDBRANCH  33  38
ENDBRANCH  29  33
ENDBRANCH   1  30
TORSDOF 4
