REMARK  Name = ZINC09408974
REMARK  5 active torsions:
REMARK  status: ('A' for Active; 'I' for Inactive)
REMARK    1  A    between atoms: C_4  and  O_31
REMARK    2  A    between atoms: C_5  and  C_7
REMARK    3  A    between atoms: N_15  and  C_25
REMARK    4  A    between atoms: C_16  and  C_18
REMARK    5  A    between atoms: C_25  and  C_26
REMARK                            x       y       z     vdW  Elec       q    Type
REMARK                         _______ _______ _______ _____ _____    ______ ____
ROOT
ATOM      1  C   UNL     1       1.330  -2.406   0.127  0.00  0.00    +0.102 A 
ATOM      2  C   UNL     1       0.145  -3.150   0.146  0.00  0.00    +0.035 A 
ATOM      3  C   UNL     1       0.531  -4.474   0.071  0.00  0.00    +0.126 A 
ATOM      4  N   UNL     1       1.896  -4.470   0.010  0.00  0.00    -0.272 N 
ATOM      5  H   UNL     1       2.453  -5.261  -0.050  0.00  0.00    +0.189 HD
ATOM      6  N   UNL     1       2.331  -3.260   0.039  0.00  0.00    -0.173 NA
ATOM      7  C   UNL     1      -0.673  -5.312   0.087  0.00  0.00    +0.266 C 
ATOM      8  O   UNL     1      -0.674  -6.528   0.034  0.00  0.00    -0.268 OA
ATOM      9  N   UNL     1      -1.776  -4.547   0.170  0.00  0.00    -0.278 N 
ATOM     10  C   UNL     1      -1.357  -3.139   0.213  0.00  0.00    +0.142 C 
ENDROOT
BRANCH  10  11
ATOM     11  C   UNL     1      -1.815  -2.502   1.500  0.00  0.00    -0.021 A 
ATOM     12  C   UNL     1      -1.591  -3.141   2.705  0.00  0.00    +0.006 A 
ATOM     13  C   UNL     1      -2.011  -2.557   3.886  0.00  0.00    +0.001 A 
ATOM     14  C   UNL     1      -2.654  -1.334   3.862  0.00  0.00    +0.015 A 
ATOM     15  C   UNL     1      -2.877  -0.694   2.656  0.00  0.00    +0.018 A 
ATOM     16  C   UNL     1      -2.453  -1.276   1.475  0.00  0.00    +0.021 A 
ATOM     17 BR   UNL     1      -3.758   0.979   2.622  0.00  0.00    -0.050 Br
ENDBRANCH  10  11
BRANCH   1  22
ATOM     18  C   UNL     1       0.730   1.243  -0.554  0.00  0.00    +0.001 A 
ATOM     19  C   UNL     1       1.646   1.835   0.297  0.00  0.00    +0.004 A 
ATOM     20  C   UNL     1       2.462   1.055   1.095  0.00  0.00    +0.046 A 
ATOM     21  C   UNL     1       2.365  -0.327   1.045  0.00  0.00    +0.126 A 
ATOM     22  C   UNL     1       1.440  -0.927   0.187  0.00  0.00    +0.044 A 
ATOM     23  C   UNL     1       0.623  -0.132  -0.613  0.00  0.00    +0.014 A 
BRANCH  21  24
ATOM     24  O   UNL     1       3.167  -1.094   1.829  0.00  0.00    -0.506 OA
ATOM     25  H   UNL     1       2.791  -1.297   2.696  0.00  0.00    +0.292 HD
ENDBRANCH  21  24
ENDBRANCH   1  22
BRANCH   9  26
ATOM     26  C   UNL     1      -3.157  -5.033   0.210  0.00  0.00    +0.183 C 
BRANCH  26  27
ATOM     27  C   UNL     1      -3.568  -5.261   1.642  0.00  0.00    +0.122 A 
ATOM     28  C   UNL     1      -4.147  -4.354   2.449  0.00  0.00    +0.046 A 
ATOM     29  C   UNL     1      -4.358  -4.989   3.694  0.00  0.00    +0.041 A 
ATOM     30  C   UNL     1      -3.895  -6.246   3.574  0.00  0.00    +0.195 A 
ATOM     31  O   UNL     1      -3.423  -6.407   2.327  0.00  0.00    -0.466 OA
ENDBRANCH  26  27
ENDBRANCH   9  26
TORSDOF 5
