REMARK  Name = ZINC21220870
REMARK  7 active torsions:
REMARK  status: ('A' for Active; 'I' for Inactive)
REMARK    1  A    between atoms: C_1  and  C_2
REMARK    2  A    between atoms: C_2  and  O_3
REMARK    3  A    between atoms: O_3  and  C_4
REMARK    4  A    between atoms: C_5  and  C_12
REMARK    5  A    between atoms: C_9  and  O_10
REMARK    6  A    between atoms: O_10  and  C_11
REMARK    7  A    between atoms: C_17  and  C_22
REMARK                            x       y       z     vdW  Elec       q    Type
REMARK                         _______ _______ _______ _____ _____    ______ ____
ROOT
ATOM      1  C   UNL     1       2.517  -0.352   2.936  0.00  0.00    +0.140 C 
ATOM      2  C   UNL     1       1.718   0.196   1.777  0.00  0.00    +0.037 C 
ATOM      3  C   UNL     1       1.933   1.367   1.156  0.00  0.00    +0.017 C 
ATOM      4  C   UNL     1       1.073   1.779  -0.028  0.00  0.00    +0.059 C 
ATOM      5  C   UNL     1      -0.348   1.248   0.155  0.00  0.00    +0.032 C 
ATOM      6  C   UNL     1      -0.268  -0.281   0.243  0.00  0.00    +0.088 C 
ATOM      7  C   UNL     1       0.662  -0.648   1.360  0.00  0.00    +0.163 C 
ATOM      8  O   UNL     1       0.504  -1.711   1.928  0.00  0.00    -0.292 OA
ATOM      9  N   UNL     1       2.900   2.259   1.490  0.00  0.00    -0.316 N 
ATOM     10  C   UNL     1       4.229   1.931   1.735  0.00  0.00    +0.052 A 
ATOM     11  C   UNL     1       5.262   2.379   0.930  0.00  0.00    +0.025 A 
ATOM     12  C   UNL     1       6.567   2.053   1.257  0.00  0.00    +0.002 A 
ATOM     13  C   UNL     1       6.836   1.289   2.378  0.00  0.00    +0.002 A 
ATOM     14  C   UNL     1       5.803   0.826   3.174  0.00  0.00    +0.025 A 
ATOM     15  C   UNL     1       4.494   1.133   2.838  0.00  0.00    +0.049 A 
ATOM     16  N   UNL     1       3.417   0.602   3.547  0.00  0.00    -0.331 N 
ATOM     17  H   UNL     1       2.655   3.327   1.584  0.00  0.00    +0.152 HD
ATOM     18  H   UNL     1       3.258   0.920   4.588  0.00  0.00    +0.147 HD
ENDROOT
BRANCH   5  19
ATOM     19  C   UNL     1      -1.199   1.648  -1.023  0.00  0.00    -0.043 A 
ATOM     20  C   UNL     1      -0.831   1.268  -2.300  0.00  0.00    +0.005 A 
ATOM     21  C   UNL     1      -1.614   1.629  -3.381  0.00  0.00    +0.020 A 
ATOM     22  C   UNL     1      -2.759   2.381  -3.185  0.00  0.00    +0.041 A 
ATOM     23  C   UNL     1      -3.123   2.766  -1.907  0.00  0.00    +0.020 A 
ATOM     24  C   UNL     1      -2.342   2.399  -0.827  0.00  0.00    +0.005 A 
ATOM     25 CL   UNL     1      -3.738   2.841  -4.542  0.00  0.00    -0.084 Cl
ENDBRANCH   5  19
BRANCH   1  27
ATOM     26  C   UNL     1       3.868  -2.421   3.355  0.00  0.00    +0.167 A 
ATOM     27  C   UNL     1       3.325  -1.527   2.446  0.00  0.00    +0.023 A 
ATOM     28  C   UNL     1       3.529  -1.709   1.091  0.00  0.00    +0.009 A 
ATOM     29  C   UNL     1       4.269  -2.785   0.639  0.00  0.00    +0.004 A 
ATOM     30  C   UNL     1       4.810  -3.684   1.540  0.00  0.00    +0.049 A 
ATOM     31  C   UNL     1       4.609  -3.507   2.900  0.00  0.00    +0.162 A 
BRANCH  31  32
ATOM     32  O   UNL     1       5.140  -4.390   3.787  0.00  0.00    -0.491 OA
ATOM     33  C   UNL     1       5.895  -5.477   3.248  0.00  0.00    +0.277 C 
ENDBRANCH  31  32
BRANCH  26  34
ATOM     34  O   UNL     1       3.673  -2.240   4.689  0.00  0.00    -0.488 OA
BRANCH  34  36
ATOM     35  C   UNL     1       2.448  -2.529   6.752  0.00  0.00    +0.048 C 
ATOM     36  C   UNL     1       2.587  -2.950   5.288  0.00  0.00    +0.226 C 
ENDBRANCH  34  36
ENDBRANCH  26  34
ENDBRANCH   1  27
TORSDOF 5
