REMARK  Name = ZINC39672719
REMARK  6 active torsions:
REMARK  status: ('A' for Active; 'I' for Inactive)
REMARK    1  A    between atoms: C_1  and  C_2
REMARK    2  A    between atoms: C_5  and  C_8
REMARK    3  A    between atoms: C_12  and  C_21
REMARK    4  A    between atoms: N_23  and  C_24
REMARK    5  A    between atoms: C_24  and  C_25
REMARK    6  A    between atoms: C_25  and  N_31
REMARK                            x       y       z     vdW  Elec       q    Type
REMARK                         _______ _______ _______ _____ _____    ______ ____
ROOT
ATOM      1  C   UNL     1       0.043  -4.729  -0.139  0.00  0.00    +0.247 C 
ATOM      2  O   UNL     1      -0.005  -5.406  -1.148  0.00  0.00    -0.270 OA
ATOM      3  N   UNL     1       0.182  -5.322   1.064  0.00  0.00    -0.296 N 
ATOM      4  C   UNL     1       0.143  -4.683   2.400  0.00  0.00    +0.121 C 
ATOM      5  C   UNL     1      -0.628  -5.685   3.289  0.00  0.00    +0.100 C 
ATOM      6  C   UNL     1      -0.449  -7.045   2.594  0.00  0.00    -0.004 C 
ATOM      7  C   UNL     1       0.402  -6.760   1.348  0.00  0.00    +0.115 C 
ATOM      8  C   UNL     1      -1.805  -7.610   2.181  0.00  0.00    -0.010 C 
ATOM      9  C   UNL     1      -1.605  -8.989   1.544  0.00  0.00    -0.082 C 
ATOM     10  N   UNL     1      -0.951  -9.884   2.506  0.00  0.00    +0.379 N 
ATOM     11  C   UNL     1       0.390  -9.381   2.827  0.00  0.00    -0.082 C 
ATOM     12  C   UNL     1       0.275  -8.019   3.518  0.00  0.00    -0.010 C 
ATOM     13  H   UNL     1      -1.502  -9.930   3.350  0.00  0.00    -0.086 HD
ATOM     14  H   UNL     1      -0.876 -10.807   2.106  0.00  0.00    -0.086 HD
ENDROOT
BRANCH   1  19
ATOM     15  C   UNL     1      -0.324   1.002  -0.498  0.00  0.00    +0.044 C 
ATOM     16  C   UNL     1      -0.228  -0.499  -0.404  0.00  0.00    -0.050 A 
ATOM     17  C   UNL     1      -0.749  -1.287  -1.414  0.00  0.00    +0.004 A 
ATOM     18  C   UNL     1      -0.665  -2.661  -1.335  0.00  0.00    +0.013 A 
ATOM     19  C   UNL     1      -0.051  -3.257  -0.231  0.00  0.00    +0.037 A 
ATOM     20  C   UNL     1       0.473  -2.456   0.784  0.00  0.00    +0.013 A 
ATOM     21  C   UNL     1       0.387  -1.083   0.690  0.00  0.00    +0.004 A 
ENDBRANCH   1  19
BRANCH   5  22
ATOM     22  C   UNL     1      -0.038  -5.719   4.675  0.00  0.00    +0.218 C 
ATOM     23  O   UNL     1       1.122  -5.411   4.848  0.00  0.00    -0.275 OA
ATOM     24  N   UNL     1      -0.800  -6.093   5.723  0.00  0.00    -0.313 N 
ATOM     25  H   UNL     1      -1.728  -6.339   5.584  0.00  0.00    +0.149 HD
BRANCH  24  26
ATOM     26  C   UNL     1      -0.226  -6.126   7.070  0.00  0.00    +0.126 C 
BRANCH  26  27
ATOM     27  C   UNL     1      -1.323  -6.459   8.083  0.00  0.00    +0.038 C 
ATOM     28  C   UNL     1      -0.753  -6.367   9.501  0.00  0.00    +0.024 C 
ATOM     29  C   UNL     1       0.400  -7.360   9.652  0.00  0.00    +0.002 C 
ATOM     30  C   UNL     1      -0.113  -8.780   9.400  0.00  0.00    +0.000 C 
ATOM     31  C   UNL     1      -0.682  -8.872   7.983  0.00  0.00    +0.002 C 
ATOM     32  C   UNL     1      -1.836  -7.878   7.832  0.00  0.00    +0.024 C 
BRANCH  27  33
ATOM     33  N   UNL     1      -2.430  -5.505   7.938  0.00  0.00    -0.291 NA
ATOM     34  C   UNL     1      -1.942  -4.120   7.984  0.00  0.00    +0.113 C 
ATOM     35  C   UNL     1      -3.117  -3.162   7.769  0.00  0.00    +0.175 C 
ATOM     36  O   UNL     1      -4.119  -3.416   8.757  0.00  0.00    -0.377 OA
ATOM     37  C   UNL     1      -4.618  -4.757   8.739  0.00  0.00    +0.175 C 
ATOM     38  C   UNL     1      -3.458  -5.730   8.964  0.00  0.00    +0.113 C 
ENDBRANCH  27  33
ENDBRANCH  26  27
ENDBRANCH  24  26
ENDBRANCH   5  22
TORSDOF 5
