REMARK  Name = ZINC36211389
REMARK  10 active torsions:
REMARK  status: ('A' for Active; 'I' for Inactive)
REMARK    1  A    between atoms: C_1  and  C_2
REMARK    2  A    between atoms: C_5  and  C_8
REMARK    3  A    between atoms: C_13  and  C_16
REMARK    4  A    between atoms: C_16  and  C_18
REMARK    5  A    between atoms: C_16  and  N_25
REMARK    6  A    between atoms: N_20  and  C_21
REMARK    7  A    between atoms: C_21  and  C_22
REMARK    8  A    between atoms: C_22  and  C_23
REMARK    9  A    between atoms: C_22  and  C_24
REMARK   10  A    between atoms: C_26  and  C_28
REMARK                            x       y       z     vdW  Elec       q    Type
REMARK                         _______ _______ _______ _____ _____    ______ ____
ROOT
ATOM      1  C   UNL     1       1.944  -6.718   4.460  0.00  0.00    +0.162 C 
ENDROOT
BRANCH   1   7
ATOM      2  C   UNL     1       0.059  -4.251  -0.021  0.00  0.00    +0.247 C 
ATOM      3  O   UNL     1       0.150  -3.039  -0.013  0.00  0.00    -0.270 OA
ATOM      4  N   UNL     1      -0.028  -4.929   1.140  0.00  0.00    -0.298 N 
ATOM      5  C   UNL     1      -0.149  -4.213   2.418  0.00  0.00    +0.108 C 
ATOM      6  C   UNL     1       0.951  -4.704   3.364  0.00  0.00    +0.025 C 
ATOM      7  C   UNL     1       0.869  -6.227   3.488  0.00  0.00    +0.021 C 
ATOM      8  C   UNL     1       1.094  -6.865   2.115  0.00  0.00    +0.025 C 
ATOM      9  C   UNL     1      -0.010  -6.398   1.153  0.00  0.00    +0.108 C 
BRANCH   2  14
ATOM     10  C   UNL     1       0.000  -7.097  -5.023  0.00  0.00    +0.044 C 
ATOM     11  C   UNL     1       0.015  -6.352  -3.713  0.00  0.00    -0.050 A 
ATOM     12  C   UNL     1       0.886  -5.291  -3.534  0.00  0.00    +0.004 A 
ATOM     13  C   UNL     1       0.905  -4.604  -2.338  0.00  0.00    +0.013 A 
ATOM     14  C   UNL     1       0.044  -4.982  -1.306  0.00  0.00    +0.037 A 
ATOM     15  C   UNL     1      -0.832  -6.053  -1.493  0.00  0.00    +0.013 A 
ATOM     16  C   UNL     1      -0.845  -6.728  -2.697  0.00  0.00    +0.004 A 
ENDBRANCH   2  14
ENDBRANCH   1   7
BRANCH   1  17
ATOM     17  C   UNL     1       1.864  -8.218   4.581  0.00  0.00    +0.234 C 
ATOM     18  O   UNL     1       2.818  -8.903   4.278  0.00  0.00    -0.274 OA
ATOM     19  N   UNL     1       0.732  -8.799   5.027  0.00  0.00    -0.314 N 
ATOM     20  H   UNL     1      -0.031  -8.251   5.270  0.00  0.00    +0.149 HD
BRANCH  19  21
ATOM     21  C   UNL     1       0.654 -10.257   5.146  0.00  0.00    +0.107 C 
BRANCH  21  22
ATOM     22  C   UNL     1      -0.727 -10.653   5.671  0.00  0.00    -0.000 C 
ATOM     23  C   UNL     1      -0.853 -12.177   5.676  0.00  0.00    +0.009 C 
ATOM     24  C   UNL     1      -0.903 -10.121   7.094  0.00  0.00    +0.009 C 
ENDBRANCH  21  22
ENDBRANCH  19  21
ENDBRANCH   1  17
BRANCH   1  25
ATOM     25  N   UNL     1       3.267  -6.339   3.957  0.00  0.00    -0.300 N 
ATOM     26  C   UNL     1       4.298  -6.196   4.813  0.00  0.00    +0.245 C 
ATOM     27  O   UNL     1       4.130  -6.380   6.003  0.00  0.00    -0.270 OA
ATOM     28  H   UNL     1       3.401  -6.192   3.007  0.00  0.00    +0.150 HD
BRANCH  26  29
ATOM     29  C   UNL     1       5.630  -5.814   4.307  0.00  0.00    +0.040 A 
ATOM     30  C   UNL     1       5.824  -5.595   2.941  0.00  0.00    +0.017 A 
ATOM     31  C   UNL     1       7.068  -5.237   2.470  0.00  0.00    +0.050 A 
ATOM     32  C   UNL     1       8.134  -5.094   3.349  0.00  0.00    +0.166 A 
ATOM     33  C   UNL     1       7.947  -5.311   4.715  0.00  0.00    +0.167 A 
ATOM     34  C   UNL     1       6.700  -5.664   5.193  0.00  0.00    +0.062 A 
ATOM     35  O   UNL     1       9.136  -5.107   5.354  0.00  0.00    -0.453 OA
ATOM     36  C   UNL     1      10.140  -5.164   4.324  0.00  0.00    +0.466 C 
ATOM     37  O   UNL     1       9.437  -4.754   3.137  0.00  0.00    -0.453 OA
ENDBRANCH  26  29
ENDBRANCH   1  25
TORSDOF 7
