REMARK  Name = ZINC24735284
REMARK  10 active torsions:
REMARK  status: ('A' for Active; 'I' for Inactive)
REMARK    1  A    between atoms: C_1  and  C_2
REMARK    2  A    between atoms: C_2  and  C_3
REMARK    3  A    between atoms: C_2  and  C_4
REMARK    4  A    between atoms: C_4  and  C_6
REMARK    5  A    between atoms: C_4  and  N_22
REMARK    6  A    between atoms: N_8  and  C_9
REMARK    7  A    between atoms: N_8  and  C_10
REMARK    8  A    between atoms: C_10  and  C_11
REMARK    9  A    between atoms: N_13  and  C_14
REMARK   10  A    between atoms: C_23  and  C_25
REMARK                            x       y       z     vdW  Elec       q    Type
REMARK                         _______ _______ _______ _____ _____    ______ ____
ROOT
ATOM      1  C   UNL     1      -1.688  -1.690   0.164  0.00  0.00    +0.236 C 
ATOM      2  O   UNL     1      -1.868  -2.681  -0.511  0.00  0.00    -0.274 OA
ATOM      3  N   UNL     1      -0.718  -0.815  -0.169  0.00  0.00    -0.294 N 
ATOM      4  C   UNL     1      -0.424   0.321   0.709  0.00  0.00    +0.132 C 
ENDROOT
BRANCH   1   5
ATOM      5  C   UNL     1      -2.549  -1.436   1.375  0.00  0.00    +0.162 C 
BRANCH   5   6
ATOM      6  N   UNL     1      -2.823  -2.705   2.053  0.00  0.00    -0.300 N 
ATOM      7  C   UNL     1      -3.115  -2.716   3.369  0.00  0.00    +0.245 C 
ATOM      8  O   UNL     1      -3.151  -1.674   3.993  0.00  0.00    -0.270 OA
ATOM      9  H   UNL     1      -2.790  -3.649   1.489  0.00  0.00    +0.150 HD
BRANCH   7  10
ATOM     10  C   UNL     1      -3.392  -3.997   4.054  0.00  0.00    +0.037 A 
ATOM     11  C   UNL     1      -3.357  -5.195   3.339  0.00  0.00    +0.014 A 
ATOM     12  C   UNL     1      -3.609  -6.387   3.985  0.00  0.00    +0.021 A 
ATOM     13  C   UNL     1      -3.909  -6.396   5.337  0.00  0.00    +0.041 A 
ATOM     14  C   UNL     1      -3.952  -5.209   6.050  0.00  0.00    +0.021 A 
ATOM     15  C   UNL     1      -3.694  -4.011   5.417  0.00  0.00    +0.014 A 
ATOM     16 CL   UNL     1      -4.234  -7.899   6.141  0.00  0.00    -0.084 Cl
ENDBRANCH   7  10
ENDBRANCH   5   6
BRANCH   5  18
ATOM     17  C   UNL     1      -4.760  -0.580   2.162  0.00  0.00    +0.009 C 
ATOM     18  C   UNL     1      -3.868  -0.796   0.938  0.00  0.00    +0.012 C 
ATOM     19  C   UNL     1      -3.584   0.550   0.268  0.00  0.00    +0.009 C 
ENDBRANCH   5  18
ENDBRANCH   1   5
BRANCH   3  20
ATOM     20  C   UNL     1       0.042  -1.000  -1.408  0.00  0.00    +0.203 C 
BRANCH  20  21
ATOM     21  C   UNL     1       1.254  -1.851  -1.132  0.00  0.00    +0.235 C 
ATOM     22  O   UNL     1       1.463  -2.263  -0.010  0.00  0.00    -0.274 OA
ATOM     23  N   UNL     1       2.106  -2.155  -2.131  0.00  0.00    -0.282 N 
ATOM     24  H   UNL     1       1.968  -1.708  -3.126  0.00  0.00    +0.155 HD
BRANCH  23  25
ATOM     25  C   UNL     1       3.167  -3.040  -1.902  0.00  0.00    +0.070 A 
ATOM     26  C   UNL     1       4.000  -2.858  -0.805  0.00  0.00    +0.064 A 
ATOM     27  C   UNL     1       5.044  -3.737  -0.580  0.00  0.00    +0.022 A 
ATOM     28  C   UNL     1       5.264  -4.789  -1.449  0.00  0.00    +0.003 A 
ATOM     29  C   UNL     1       4.440  -4.969  -2.545  0.00  0.00    +0.022 A 
ATOM     30  C   UNL     1       3.391  -4.098  -2.774  0.00  0.00    +0.064 A 
ATOM     31 CL   UNL     1       2.357  -4.325  -4.149  0.00  0.00    -0.082 Cl
ATOM     32 CL   UNL     1       3.728  -1.534   0.284  0.00  0.00    -0.082 Cl
ENDBRANCH  23  25
ENDBRANCH  20  21
ENDBRANCH   3  20
TORSDOF 7
