REMARK  Name = ZINC59959563
REMARK  8 active torsions:
REMARK  status: ('A' for Active; 'I' for Inactive)
REMARK    1  A    between atoms: C_1  and  C_2
REMARK    2  A    between atoms: C_2  and  C_29
REMARK    3  A    between atoms: N_3  and  N_4
REMARK    4  A    between atoms: C_5  and  C_18
REMARK    5  A    between atoms: N_7  and  C_11
REMARK    6  A    between atoms: C_11  and  C_12
REMARK    7  A    between atoms: C_27  and  O_28
REMARK    8  A    between atoms: C_32  and  N_35
REMARK                            x       y       z     vdW  Elec       q    Type
REMARK                         _______ _______ _______ _____ _____    ______ ____
ROOT
ATOM      1  N   UNL     1       0.264  -0.047   2.322  0.00  0.00    -0.169 N 
ATOM      2  C   UNL     1       0.433  -0.564   3.685  0.00  0.00    +0.206 C 
ATOM      3  N   UNL     1       0.566   0.623   4.561  0.00  0.00    -0.266 NA
ATOM      4  C   UNL     1      -0.175   1.673   3.823  0.00  0.00    +0.184 C 
ATOM      5  C   UNL     1      -0.092   1.253   2.372  0.00  0.00    +0.251 C 
ATOM      6  O   UNL     1      -0.310   1.965   1.414  0.00  0.00    -0.272 OA
ENDROOT
BRANCH   2   7
ATOM      7  C   UNL     1       1.676  -1.412   3.768  0.00  0.00    +0.038 A 
ATOM      8  C   UNL     1       1.575  -2.790   4.020  0.00  0.00    -0.008 A 
ATOM      9  C   UNL     1       0.325  -3.408   4.201  0.00  0.00    +0.009 A 
ATOM     10  C   UNL     1       0.264  -4.746   4.443  0.00  0.00    +0.001 A 
ATOM     11  C   UNL     1       1.424  -5.515   4.516  0.00  0.00    +0.001 A 
ATOM     12  C   UNL     1       2.651  -4.951   4.346  0.00  0.00    +0.008 A 
ATOM     13  C   UNL     1       2.754  -3.573   4.093  0.00  0.00    -0.017 A 
ATOM     14  C   UNL     1       4.005  -2.956   3.913  0.00  0.00    +0.012 A 
ATOM     15  C   UNL     1       4.069  -1.620   3.670  0.00  0.00    +0.046 A 
ATOM     16  C   UNL     1       2.906  -0.847   3.591  0.00  0.00    +0.124 A 
BRANCH  16  17
ATOM     17  O   UNL     1       3.003   0.485   3.342  0.00  0.00    -0.506 OA
ATOM     18  H   UNL     1       3.164   1.023   4.130  0.00  0.00    +0.292 HD
ENDBRANCH  16  17
ENDBRANCH   2   7
BRANCH   1  21
ATOM     19  C   UNL     1      -1.950  -0.632   0.789  0.00  0.00    +0.068 C 
ATOM     20  C   UNL     1      -0.560  -1.038   0.371  0.00  0.00    +0.064 C 
ATOM     21  N   UNL     1       0.449  -0.789   1.148  0.00  0.00    -0.180 NA
BRANCH  20  22
ATOM     22  C   UNL     1      -0.347  -1.717  -0.920  0.00  0.00    -0.002 A 
ATOM     23  C   UNL     1       0.900  -2.265  -1.227  0.00  0.00    +0.012 A 
ATOM     24  C   UNL     1       1.092  -2.900  -2.437  0.00  0.00    +0.033 A 
ATOM     25  C   UNL     1       0.052  -2.994  -3.345  0.00  0.00    +0.126 A 
ATOM     26  C   UNL     1      -1.186  -2.453  -3.048  0.00  0.00    +0.033 A 
ATOM     27  C   UNL     1      -1.394  -1.821  -1.840  0.00  0.00    +0.012 A 
BRANCH  25  28
ATOM     28  N   UNL     1       0.266  -3.675  -4.642  0.00  0.00    +0.056 N 
ATOM     29  O   UNL     1       1.347  -4.148  -4.905  0.00  0.00    -0.126 OA
ATOM     30  O   UNL     1      -0.640  -3.759  -5.438  0.00  0.00    -0.126 OA
ENDBRANCH  25  28
ENDBRANCH  20  22
ENDBRANCH   1  21
BRANCH   3  31
ATOM     31  C   UNL     1      -0.041   0.377   5.877  0.00  0.00    +0.122 C 
BRANCH  31  32
ATOM     32  C   UNL     1       0.444   1.415   6.856  0.00  0.00    -0.033 A 
ATOM     33  C   UNL     1       1.591   1.187   7.593  0.00  0.00    +0.005 A 
ATOM     34  C   UNL     1       2.036   2.139   8.491  0.00  0.00    +0.000 A 
ATOM     35  C   UNL     1       1.334   3.319   8.652  0.00  0.00    +0.000 A 
ATOM     36  C   UNL     1       0.188   3.547   7.913  0.00  0.00    +0.000 A 
ATOM     37  C   UNL     1      -0.255   2.597   7.012  0.00  0.00    +0.005 A 
ENDBRANCH  31  32
ENDBRANCH   3  31
TORSDOF 7
