REMARK  Name = ZINC12863447
REMARK  8 active torsions:
REMARK  status: ('A' for Active; 'I' for Inactive)
REMARK    1  A    between atoms: C_1  and  C_2
REMARK    2  A    between atoms: C_4  and  C_28
REMARK    3  A    between atoms: C_6  and  N_8
REMARK    4  A    between atoms: C_9  and  C_11
REMARK    5  A    between atoms: C_11  and  C_12
REMARK    6  A    between atoms: C_12  and  N_13
REMARK    7  A    between atoms: N_13  and  S_14
REMARK    8  A    between atoms: S_14  and  C_17
REMARK                            x       y       z     vdW  Elec       q    Type
REMARK                         _______ _______ _______ _____ _____    ______ ____
ROOT
ATOM      1  N   UNL     1      -1.413  -1.999   0.016  0.00  0.00    -0.189 NA
ATOM      2  H   UNL     1      -0.596  -2.473  -0.205  0.00  0.00    +0.148 HD
ENDROOT
BRANCH   1   3
ATOM      3  S   UNL     1      -2.785  -2.846   0.393  0.00  0.00    +0.059 S 
ATOM      4  O   UNL     1      -2.456  -4.223   0.281  0.00  0.00    -0.153 OA
ATOM      5  O   UNL     1      -3.295  -2.279   1.593  0.00  0.00    -0.153 OA
BRANCH   3   6
ATOM      6  C   UNL     1      -3.969  -2.507  -0.866  0.00  0.00    +0.109 A 
ATOM      7  C   UNL     1      -4.840  -1.442  -0.725  0.00  0.00    +0.032 A 
ATOM      8  C   UNL     1      -5.769  -1.167  -1.712  0.00  0.00    +0.051 A 
ATOM      9  C   UNL     1      -5.831  -1.969  -2.839  0.00  0.00    +0.162 A 
ATOM     10  C   UNL     1      -4.961  -3.041  -2.979  0.00  0.00    +0.164 A 
ATOM     11  C   UNL     1      -4.029  -3.310  -1.991  0.00  0.00    +0.078 A 
ATOM     12  O   UNL     1      -5.029  -3.825  -4.094  0.00  0.00    -0.488 OA
ATOM     13  C   UNL     1      -6.205  -4.627  -4.222  0.00  0.00    +0.232 C 
ATOM     14  C   UNL     1      -7.337  -3.829  -4.849  0.00  0.00    +0.082 C 
ATOM     15  C   UNL     1      -7.790  -2.675  -3.968  0.00  0.00    +0.232 C 
ATOM     16  O   UNL     1      -6.746  -1.711  -3.819  0.00  0.00    -0.488 OA
ENDBRANCH   3   6
ENDBRANCH   1   3
BRANCH   1  17
ATOM     17  C   UNL     1      -1.433  -0.534   0.015  0.00  0.00    +0.115 C 
BRANCH  17  18
ATOM     18  C   UNL     1       0.002  -0.004   0.009  0.00  0.00    +0.113 C 
BRANCH  18  20
ATOM     19  N   UNL     1       1.139   2.192   0.003  0.00  0.00    -0.285 N 
ATOM     20  C   UNL     1      -0.018   1.503   0.008  0.00  0.00    +0.218 C 
ATOM     21  O   UNL     1      -1.077   2.095   0.007  0.00  0.00    -0.275 OA
ATOM     22  H   UNL     1       1.985   1.721   0.067  0.00  0.00    +0.155 HD
BRANCH  19  28
ATOM     23  C   UNL     1      -1.013   6.483   1.067  0.00  0.00    +0.044 C 
ATOM     24  C   UNL     1       0.090   5.693   0.411  0.00  0.00    -0.048 A 
ATOM     25  C   UNL     1       1.087   6.348  -0.289  0.00  0.00    +0.006 A 
ATOM     26  C   UNL     1       2.101   5.627  -0.893  0.00  0.00    -0.048 A 
ATOM     27  C   UNL     1       2.121   4.249  -0.797  0.00  0.00    +0.026 A 
ATOM     28  C   UNL     1       1.122   3.588  -0.095  0.00  0.00    +0.034 A 
ATOM     29  C   UNL     1       0.102   4.315   0.505  0.00  0.00    +0.026 A 
ATOM     30  C   UNL     1       3.184   6.345  -1.655  0.00  0.00    +0.044 C 
ENDBRANCH  19  28
ENDBRANCH  18  20
ENDBRANCH  17  18
ENDBRANCH   1  17
TORSDOF 6
