REMARK  Name = ZINC16734216
REMARK  6 active torsions:
REMARK  status: ('A' for Active; 'I' for Inactive)
REMARK    1  A    between atoms: C_3  and  C_8
REMARK    2  A    between atoms: C_11  and  C_13
REMARK    3  A    between atoms: C_15  and  C_27
REMARK    4  A    between atoms: C_17  and  C_22
REMARK    5  A    between atoms: C_17  and  O_26
REMARK    6  A    between atoms: C_27  and  C_29
REMARK                            x       y       z     vdW  Elec       q    Type
REMARK                         _______ _______ _______ _____ _____    ______ ____
ROOT
ATOM      1  C   UNL     1       3.665  -1.811   0.549  0.00  0.00    +0.156 C 
ATOM      2  C   UNL     1       2.933  -2.620  -0.526  0.00  0.00    +0.148 C 
ATOM      3  C   UNL     1       3.067  -4.110  -0.191  0.00  0.00    +0.243 C 
ATOM      4  N   UNL     1       2.568  -4.343   1.165  0.00  0.00    -0.264 N 
ATOM      5  C   UNL     1       2.628  -3.388   2.105  0.00  0.00    +0.302 C 
ATOM      6  O   UNL     1       2.209  -3.638   3.219  0.00  0.00    -0.253 OA
ATOM      7  N   UNL     1       3.134  -2.169   1.865  0.00  0.00    -0.289 N 
ATOM      8  H   UNL     1       2.185  -5.206   1.389  0.00  0.00    +0.153 HD
ATOM      9  H   UNL     1       3.147  -1.511   2.578  0.00  0.00    +0.151 HD
ENDROOT
BRANCH   1  13
ATOM     10  C   UNL     1       7.157  -2.492  -0.282  0.00  0.00    +0.135 A 
ATOM     11  C   UNL     1       7.222  -2.619   1.069  0.00  0.00    +0.050 A 
ATOM     12  C   UNL     1       5.924  -2.380   1.563  0.00  0.00    +0.047 A 
ATOM     13  C   UNL     1       5.138  -2.123   0.499  0.00  0.00    +0.127 A 
ATOM     14  O   UNL     1       5.886  -2.196  -0.615  0.00  0.00    -0.458 OA
BRANCH  10  17
ATOM     15  C   UNL     1       9.136  -2.652  -3.471  0.00  0.00    +0.002 A 
ATOM     16  C   UNL     1       8.079  -2.498  -2.596  0.00  0.00    +0.011 A 
ATOM     17  C   UNL     1       8.284  -2.656  -1.224  0.00  0.00    +0.019 A 
ATOM     18  C   UNL     1       9.558  -2.965  -0.746  0.00  0.00    +0.031 A 
ATOM     19  C   UNL     1      10.606  -3.120  -1.631  0.00  0.00    +0.042 A 
ATOM     20  C   UNL     1      10.395  -2.962  -2.991  0.00  0.00    +0.020 A 
ATOM     21 CL   UNL     1      12.191  -3.509  -1.039  0.00  0.00    -0.084 Cl
ENDBRANCH  10  17
ENDBRANCH   1  13
BRANCH   3  22
ATOM     22  C   UNL     1       4.538  -4.522  -0.273  0.00  0.00    +0.436 C 
ATOM     23  F   UNL     1       5.181  -4.196   0.926  0.00  0.00    -0.166 F 
ATOM     24  F   UNL     1       4.624  -5.902  -0.488  0.00  0.00    -0.166 F 
ATOM     25  F   UNL     1       5.153  -3.846  -1.331  0.00  0.00    -0.166 F 
ENDBRANCH   3  22
BRANCH   3  26
ATOM     26  O   UNL     1       2.302  -4.879  -1.121  0.00  0.00    -0.364 OA
ATOM     27  H   UNL     1       2.341  -5.833  -0.968  0.00  0.00    +0.212 HD
ENDBRANCH   3  26
BRANCH   2  28
ATOM     28  C   UNL     1       1.476  -2.235  -0.546  0.00  0.00    +0.180 C 
ATOM     29  O   UNL     1       0.684  -2.819   0.166  0.00  0.00    -0.291 OA
BRANCH  28  30
ATOM     30  C   UNL     1       1.032  -1.195  -1.391  0.00  0.00    +0.055 A 
ATOM     31  C   UNL     1      -0.253  -0.689  -1.560  0.00  0.00    +0.019 A 
ATOM     32  C   UNL     1      -0.406   0.336  -2.456  0.00  0.00    +0.008 A 
ATOM     33  C   UNL     1       0.682   0.801  -3.127  0.00  0.00    +0.046 A 
ATOM     34  S   UNL     1       1.973  -0.185  -2.522  0.00  0.00    -0.094 S 
ENDBRANCH  28  30
ENDBRANCH   2  28
TORSDOF 6
