REMARK  Name = ZINC35774357
REMARK  5 active torsions:
REMARK  status: ('A' for Active; 'I' for Inactive)
REMARK    1  A    between atoms: C_1  and  C_2
REMARK    2  A    between atoms: N_8  and  C_9
REMARK    3  A    between atoms: C_12  and  S_16
REMARK    4  A    between atoms: C_14  and  N_15
REMARK    5  A    between atoms: S_16  and  N_19
REMARK                            x       y       z     vdW  Elec       q    Type
REMARK                         _______ _______ _______ _____ _____    ______ ____
ROOT
ATOM      1  C   UNL     1       1.405   0.380   2.035  0.00  0.00    +0.051 A 
ATOM      2  C   UNL     1       0.764   0.984   3.105  0.00  0.00    +0.027 A 
ATOM      3  C   UNL     1       1.460   1.849   3.929  0.00  0.00    +0.030 A 
ATOM      4  C   UNL     1       2.796   2.113   3.690  0.00  0.00    +0.107 A 
ATOM      5  C   UNL     1       3.443   1.514   2.625  0.00  0.00    +0.053 A 
ATOM      6  C   UNL     1       2.754   0.642   1.796  0.00  0.00    +0.048 A 
ENDROOT
BRANCH   1  13
ATOM      7  C   UNL     1      -0.019   1.526   0.010  0.00  0.00    +0.030 C 
ATOM      8  C   UNL     1       0.002  -0.004   0.002  0.00  0.00    +0.096 C 
ATOM      9  C   UNL     1      -1.434  -0.540   0.026  0.00  0.00    +0.182 C 
ATOM     10  O   UNL     1      -1.404  -1.958   0.205  0.00  0.00    -0.376 OA
ATOM     11  C   UNL     1      -0.827  -2.379   1.443  0.00  0.00    +0.178 C 
ATOM     12  C   UNL     1       0.640  -1.938   1.492  0.00  0.00    +0.133 C 
ATOM     13  N   UNL     1       0.702  -0.497   1.199  0.00  0.00    -0.321 N 
ENDBRANCH   1  13
BRANCH   6  14
ATOM     14  N   UNL     1       3.409   0.030   0.721  0.00  0.00    -0.356 N 
ATOM     15  H   UNL     1       2.925  -0.577   0.140  0.00  0.00    +0.142 HD
ATOM     16  H   UNL     1       4.347   0.214   0.556  0.00  0.00    +0.142 HD
ENDBRANCH   6  14
BRANCH   4  17
ATOM     17  S   UNL     1       3.675   3.217   4.745  0.00  0.00    +0.056 S 
ATOM     18  O   UNL     1       4.767   3.720   3.987  0.00  0.00    -0.153 OA
ATOM     19  O   UNL     1       2.706   4.067   5.342  0.00  0.00    -0.153 OA
BRANCH  17  20
ATOM     20  N   UNL     1       4.327   2.310   5.968  0.00  0.00    -0.204 NA
ATOM     21  H   UNL     1       4.181   1.351   5.992  0.00  0.00    +0.144 HD
ATOM     22  H   UNL     1       4.854   2.738   6.661  0.00  0.00    +0.144 HD
ENDBRANCH  17  20
ENDBRANCH   4  17
TORSDOF 4
