REMARK  Name = ZINC09831993
REMARK  12 active torsions:
REMARK  status: ('A' for Active; 'I' for Inactive)
REMARK    1  A    between atoms: C_1  and  C_2
REMARK    2  A    between atoms: C_2  and  C_30
REMARK    3  A    between atoms: C_5  and  C_26
REMARK    4  A    between atoms: C_6  and  N_12
REMARK    5  A    between atoms: C_9  and  C_10
REMARK    6  A    between atoms: C_9  and  C_11
REMARK    7  A    between atoms: C_13  and  C_15
REMARK    8  A    between atoms: C_15  and  C_16
REMARK    9  A    between atoms: C_16  and  S_17
REMARK   10  A    between atoms: S_17  and  C_20
REMARK   11  A    between atoms: C_26  and  O_28
REMARK   12  A    between atoms: O_28  and  C_29
REMARK                            x       y       z     vdW  Elec       q    Type
REMARK                         _______ _______ _______ _____ _____    ______ ____
ROOT
ATOM      1  C   UNL     1      -2.059   1.085  -2.177  0.00  0.00    -0.010 C 
ATOM      2  C   UNL     1      -2.380   1.160  -0.681  0.00  0.00    -0.069 C 
ATOM      3  C   UNL     1      -1.357   2.067   0.007  0.00  0.00    +0.024 C 
ATOM      4  C   UNL     1      -0.016   1.349   0.009  0.00  0.00    -0.024 A 
ATOM      5  C   UNL     1       1.284   1.991   0.001  0.00  0.00    +0.091 A 
ATOM      6  C   UNL     1       2.405   1.164  -0.028  0.00  0.00    +0.086 A 
ATOM      7  S   UNL     1       1.721  -0.428  -0.030  0.00  0.00    -0.079 S 
ATOM      8  C   UNL     1       0.002  -0.004   0.002  0.00  0.00    -0.016 A 
ATOM      9  C   UNL     1      -1.184  -0.911   0.025  0.00  0.00    -0.041 C 
ATOM     10  C   UNL     1      -1.062  -1.936  -1.108  0.00  0.00    -0.005 C 
ATOM     11  C   UNL     1      -1.177  -1.676   1.361  0.00  0.00    -0.005 C 
ATOM     12  C   UNL     1      -3.767   1.813  -0.529  0.00  0.00    -0.010 C 
ATOM     13  N   UNL     1      -2.483  -0.188  -0.066  0.00  0.00    +0.389 N 
ATOM     14  H   UNL     1      -3.128  -0.752  -0.631  0.00  0.00    -0.084 HD
ATOM     15  H   UNL     1      -2.861  -0.082   0.882  0.00  0.00    -0.084 HD
ENDROOT
BRANCH   6  16
ATOM     16  N   UNL     1       3.742   1.531  -0.048  0.00  0.00    -0.279 N 
ATOM     17  C   UNL     1       4.700   0.584  -0.074  0.00  0.00    +0.219 C 
ATOM     18  O   UNL     1       4.394  -0.590  -0.079  0.00  0.00    -0.275 OA
ATOM     19  H   UNL     1       3.987   2.469  -0.044  0.00  0.00    +0.155 HD
BRANCH  17  20
ATOM     20  C   UNL     1       6.153   0.983  -0.096  0.00  0.00    +0.119 C 
BRANCH  20  21
ATOM     21  C   UNL     1       7.027  -0.274  -0.122  0.00  0.00    +0.181 C 
BRANCH  21  22
ATOM     22  S   UNL     1       8.776   0.207  -0.149  0.00  0.00    -0.003 S 
ATOM     23  O   UNL     1       9.092   0.835  -1.383  0.00  0.00    -0.169 OA
ATOM     24  O   UNL     1       9.136   0.812   1.085  0.00  0.00    -0.169 OA
BRANCH  22  25
ATOM     25  C   UNL     1       9.663  -1.316  -0.178  0.00  0.00    +0.088 A 
ATOM     26  C   UNL     1      10.037  -1.921   1.008  0.00  0.00    +0.027 A 
ATOM     27  C   UNL     1      10.728  -3.117   0.985  0.00  0.00    +0.002 A 
ATOM     28  C   UNL     1      11.055  -3.704  -0.224  0.00  0.00    +0.000 A 
ATOM     29  C   UNL     1      10.686  -3.096  -1.409  0.00  0.00    +0.002 A 
ATOM     30  C   UNL     1       9.990  -1.902  -1.386  0.00  0.00    +0.027 A 
ENDBRANCH  22  25
ENDBRANCH  21  22
ENDBRANCH  20  21
ENDBRANCH  17  20
ENDBRANCH   6  16
BRANCH   5  31
ATOM     31  C   UNL     1       1.425   3.448   0.033  0.00  0.00    +0.342 C 
ATOM     32  O   UNL     1       1.503   4.028   1.099  0.00  0.00    -0.245 OA
BRANCH  31  33
ATOM     33  O   UNL     1       1.468   4.147  -1.120  0.00  0.00    -0.464 OA
ATOM     34  C   UNL     1       1.608   5.588  -1.012  0.00  0.00    +0.280 C 
ENDBRANCH  31  33
ENDBRANCH   5  31
TORSDOF 7
