REMARK  Name = ZINC04866799
REMARK  10 active torsions:
REMARK  status: ('A' for Active; 'I' for Inactive)
REMARK    1  A    between atoms: C_1  and  C_2
REMARK    2  A    between atoms: C_5  and  C_29
REMARK    3  A    between atoms: C_6  and  C_8
REMARK    4  A    between atoms: C_10  and  C_25
REMARK    5  A    between atoms: C_11  and  C_16
REMARK    6  A    between atoms: C_16  and  S_17
REMARK    7  A    between atoms: S_17  and  C_18
REMARK    8  A    between atoms: C_23  and  C_24
REMARK    9  A    between atoms: C_25  and  O_27
REMARK   10  A    between atoms: O_27  and  C_28
REMARK                            x       y       z     vdW  Elec       q    Type
REMARK                         _______ _______ _______ _____ _____    ______ ____
ROOT
ATOM      1  C   UNL     1      -0.859   3.538   0.331  0.00  0.00    +0.144 C 
ATOM      2  C   UNL     1      -1.026   2.034   0.417  0.00  0.00    +0.079 C 
ATOM      3  C   UNL     1       0.082   1.271   0.295  0.00  0.00    +0.034 C 
ATOM      4  N   UNL     1       1.308   1.836   0.090  0.00  0.00    -0.272 N 
ATOM      5  C   UNL     1       1.512   3.156   0.001  0.00  0.00    +0.304 C 
ATOM      6  O   UNL     1       2.642   3.566  -0.182  0.00  0.00    -0.252 OA
ATOM      7  N   UNL     1       0.505   4.046   0.109  0.00  0.00    -0.288 N 
ATOM      8  H   UNL     1       2.075   1.248   0.005  0.00  0.00    +0.156 HD
ATOM      9  H   UNL     1       0.675   4.999   0.041  0.00  0.00    +0.151 HD
ENDROOT
BRANCH   1  15
ATOM     10  C   UNL     1      -3.214   2.718  -4.008  0.00  0.00    +0.044 C 
ATOM     11  C   UNL     1      -2.855   3.640  -2.872  0.00  0.00    -0.050 A 
ATOM     12  C   UNL     1      -3.324   4.941  -2.863  0.00  0.00    +0.003 A 
ATOM     13  C   UNL     1      -2.994   5.787  -1.821  0.00  0.00    +0.004 A 
ATOM     14  C   UNL     1      -2.197   5.333  -0.787  0.00  0.00    -0.045 A 
ATOM     15  C   UNL     1      -1.728   4.033  -0.795  0.00  0.00    -0.019 A 
ATOM     16  C   UNL     1      -2.053   3.188  -1.841  0.00  0.00    +0.009 A 
ATOM     17  C   UNL     1      -1.838   6.256   0.349  0.00  0.00    +0.044 C 
ENDBRANCH   1  15
BRANCH   2  18
ATOM     18  C   UNL     1      -2.297   1.450   0.624  0.00  0.00    +0.339 C 
ATOM     19  O   UNL     1      -2.793   1.450   1.735  0.00  0.00    -0.245 OA
BRANCH  18  20
ATOM     20  O   UNL     1      -2.960   0.893  -0.411  0.00  0.00    -0.465 OA
ATOM     21  C   UNL     1      -4.285   0.422  -0.156  0.00  0.00    +0.280 C 
ENDBRANCH  18  20
ENDBRANCH   2  18
BRANCH   3  22
ATOM     22  C   UNL     1      -0.038  -0.229   0.381  0.00  0.00    +0.125 C 
BRANCH  22  23
ATOM     23  S   UNL     1       0.105  -0.942  -1.281  0.00  0.00    -0.119 S 
BRANCH  23  24
ATOM     24  C   UNL     1      -0.053  -2.677  -1.015  0.00  0.00    +0.011 A 
ATOM     25  C   UNL     1      -0.236  -3.171   0.271  0.00  0.00    +0.015 A 
ATOM     26  C   UNL     1      -0.365  -4.530   0.475  0.00  0.00    +0.001 A 
ATOM     27  C   UNL     1      -0.303  -5.401  -0.598  0.00  0.00    +0.000 A 
ATOM     28  C   UNL     1      -0.116  -4.914  -1.878  0.00  0.00    +0.004 A 
ATOM     29  C   UNL     1       0.009  -3.555  -2.091  0.00  0.00    -0.037 A 
ATOM     30  C   UNL     1       0.213  -3.025  -3.486  0.00  0.00    +0.045 C 
ENDBRANCH  23  24
ENDBRANCH  22  23
ENDBRANCH   3  22
TORSDOF 6
