REMARK  Name = ZINC20357023
REMARK  8 active torsions:
REMARK  status: ('A' for Active; 'I' for Inactive)
REMARK    1  A    between atoms: C_1  and  C_2
REMARK    2  A    between atoms: C_5  and  N_9
REMARK    3  A    between atoms: C_6  and  C_8
REMARK    4  A    between atoms: C_10  and  C_12
REMARK    5  A    between atoms: C_12  and  S_13
REMARK    6  A    between atoms: S_13  and  C_14
REMARK    7  A    between atoms: N_24  and  C_25
REMARK    8  A    between atoms: C_25  and  C_26
REMARK                            x       y       z     vdW  Elec       q    Type
REMARK                         _______ _______ _______ _____ _____    ______ ____
ROOT
ATOM      1  C   UNL     1      -0.393  -2.142  -0.037  0.00  0.00    +0.172 A 
ATOM      2  N   UNL     1      -0.960  -0.960  -0.032  0.00  0.00    -0.215 NA
ATOM      3  C   UNL     1       0.001  -0.003  -0.046  0.00  0.00    +0.173 A 
ATOM      4  C   UNL     1      -0.019   1.413  -0.048  0.00  0.00    +0.279 A 
ATOM      5  O   UNL     1      -1.074   2.025  -0.041  0.00  0.00    -0.265 OA
ATOM      6  N   UNL     1       1.163   2.069  -0.065  0.00  0.00    -0.312 N 
ATOM      7  H   UNL     1       1.182   3.168  -0.067  0.00  0.00    +0.170 HD
ATOM      8  C   UNL     1       2.331   1.377  -0.079  0.00  0.00    +0.201 A 
ATOM      9  N   UNL     1       2.365   0.074  -0.077  0.00  0.00    -0.218 NA
ATOM     10  C   UNL     1       1.238  -0.651  -0.061  0.00  0.00    +0.168 A 
ATOM     11  N   UNL     1       0.967  -1.996  -0.055  0.00  0.00    -0.301 N 
ENDROOT
BRANCH   1  12
ATOM     12  S   UNL     1      -1.250  -3.680  -0.022  0.00  0.00    -0.078 S 
BRANCH  12  13
ATOM     13  C   UNL     1      -2.960  -3.087  -0.001  0.00  0.00    +0.173 C 
BRANCH  13  15
ATOM     14  N   UNL     1      -5.233  -4.063   0.031  0.00  0.00    -0.285 N 
ATOM     15  C   UNL     1      -3.901  -4.265   0.014  0.00  0.00    +0.227 C 
ATOM     16  O   UNL     1      -3.458  -5.394   0.011  0.00  0.00    -0.275 OA
ATOM     17  H   UNL     1      -5.634  -3.043   0.126  0.00  0.00    +0.155 HD
BRANCH  14  22
ATOM     18  C   UNL     1      -8.775  -8.475  -0.385  0.00  0.00    +0.044 C 
ATOM     19  C   UNL     1      -7.834  -7.303  -0.274  0.00  0.00    -0.050 A 
ATOM     20  C   UNL     1      -6.553  -7.396  -0.787  0.00  0.00    +0.005 A 
ATOM     21  C   UNL     1      -5.688  -6.324  -0.687  0.00  0.00    +0.024 A 
ATOM     22  C   UNL     1      -6.107  -5.151  -0.071  0.00  0.00    +0.036 A 
ATOM     23  C   UNL     1      -7.392  -5.063   0.447  0.00  0.00    -0.029 A 
ATOM     24  C   UNL     1      -8.254  -6.137   0.340  0.00  0.00    +0.008 A 
ATOM     25  C   UNL     1      -7.847  -3.795   1.122  0.00  0.00    +0.045 C 
ENDBRANCH  14  22
ENDBRANCH  13  15
ENDBRANCH  12  13
ENDBRANCH   1  12
BRANCH  11  26
ATOM     26  C   UNL     1       1.954  -3.079  -0.066  0.00  0.00    +0.157 C 
BRANCH  26  27
ATOM     27  C   UNL     1       2.317  -3.453   1.372  0.00  0.00    +0.138 C 
ATOM     28  C   UNL     1       3.444  -4.508   1.370  0.00  0.00    +0.035 C 
ATOM     29  C   UNL     1       3.015  -5.449   2.531  0.00  0.00    +0.031 C 
ATOM     30  C   UNL     1       1.472  -5.386   2.407  0.00  0.00    +0.160 C 
ATOM     31  O   UNL     1       1.181  -4.032   2.025  0.00  0.00    -0.375 OA
ENDBRANCH  26  27
ENDBRANCH  11  26
TORSDOF 6
