REMARK  Name = ZINC39681125
REMARK  6 active torsions:
REMARK  status: ('A' for Active; 'I' for Inactive)
REMARK    1  A    between atoms: C_1  and  C_2
REMARK    2  A    between atoms: C_2  and  C_4
REMARK    3  A    between atoms: C_2  and  N_10
REMARK    4  A    between atoms: C_11  and  C_13
REMARK    5  A    between atoms: C_24  and  C_26
REMARK    6  A    between atoms: C_29  and  C_31
REMARK                            x       y       z     vdW  Elec       q    Type
REMARK                         _______ _______ _______ _____ _____    ______ ____
ROOT
ATOM      1  C   UNL     1       0.780  -1.133   3.576  0.00  0.00    +0.100 C 
ATOM      2  C   UNL     1       1.973  -0.207   3.907  0.00  0.00    +0.121 C 
ATOM      3  N   UNL     1       1.444   0.739   4.916  0.00  0.00    -0.294 N 
ATOM      4  C   UNL     1       0.577  -0.093   5.784  0.00  0.00    +0.115 C 
ATOM      5  C   UNL     1      -0.132  -1.058   4.812  0.00  0.00    -0.004 C 
ATOM      6  C   UNL     1      -0.275  -2.438   5.448  0.00  0.00    -0.010 C 
ATOM      7  C   UNL     1      -1.232  -2.349   6.640  0.00  0.00    -0.082 C 
ATOM      8  N   UNL     1      -2.539  -1.860   6.184  0.00  0.00    +0.379 N 
ATOM      9  C   UNL     1      -2.409  -0.496   5.660  0.00  0.00    -0.082 C 
ATOM     10  C   UNL     1      -1.501  -0.506   4.426  0.00  0.00    -0.010 C 
ATOM     11  C   UNL     1       1.694   2.059   5.022  0.00  0.00    +0.282 C 
ATOM     12  O   UNL     1       1.179   2.707   5.915  0.00  0.00    -0.267 OA
ATOM     13  H   UNL     1      -2.889  -2.466   5.458  0.00  0.00    -0.086 HD
ATOM     14  H   UNL     1      -3.186  -1.861   6.959  0.00  0.00    -0.086 HD
ENDROOT
BRANCH  11  15
ATOM     15  C   UNL     1       2.586   2.715   4.063  0.00  0.00    +0.190 A 
ATOM     16  C   UNL     1       2.930   4.049   4.059  0.00  0.00    +0.055 A 
ATOM     17  C   UNL     1       3.796   4.239   2.978  0.00  0.00    +0.051 A 
ATOM     18  C   UNL     1       3.948   3.027   2.366  0.00  0.00    +0.139 A 
ATOM     19  O   UNL     1       3.219   2.116   3.032  0.00  0.00    -0.450 OA
BRANCH  18  20
ATOM     20  C   UNL     1       4.779   2.762   1.176  0.00  0.00    +0.052 A 
ATOM     21  C   UNL     1       4.663   3.572   0.044  0.00  0.00    +0.014 A 
ATOM     22  C   UNL     1       5.443   3.318  -1.065  0.00  0.00    +0.001 A 
ATOM     23  C   UNL     1       6.340   2.264  -1.059  0.00  0.00    +0.003 A 
ATOM     24  C   UNL     1       6.462   1.456   0.056  0.00  0.00    +0.039 A 
ATOM     25  C   UNL     1       5.691   1.702   1.178  0.00  0.00    +0.134 A 
ATOM     26  F   UNL     1       5.815   0.916   2.270  0.00  0.00    -0.205 F 
ENDBRANCH  18  20
ENDBRANCH  11  15
BRANCH   1  28
ATOM     27  N   UNL     1      -0.609  -1.501   1.563  0.00  0.00    -0.308 N 
ATOM     28  C   UNL     1       0.051  -0.633   2.355  0.00  0.00    +0.219 C 
ATOM     29  O   UNL     1       0.059   0.549   2.086  0.00  0.00    -0.275 OA
ATOM     30  H   UNL     1      -0.615  -2.447   1.778  0.00  0.00    +0.149 HD
BRANCH  27  32
ATOM     31  C   UNL     1      -0.340  -0.916  -0.796  0.00  0.00    +0.033 C 
ATOM     32  C   UNL     1      -1.317  -1.016   0.376  0.00  0.00    +0.100 C 
BRANCH  32  33
ATOM     33  C   UNL     1      -2.426  -1.975   0.026  0.00  0.00    -0.025 A 
ATOM     34  C   UNL     1      -2.238  -3.345   0.127  0.00  0.00    +0.025 A 
ATOM     35  C   UNL     1      -3.277  -4.194  -0.203  0.00  0.00    +0.111 A 
ATOM     36  N   UNL     1      -4.436  -3.714  -0.611  0.00  0.00    -0.263 NA
ATOM     37  C   UNL     1      -4.651  -2.418  -0.719  0.00  0.00    +0.111 A 
ATOM     38  C   UNL     1      -3.660  -1.508  -0.401  0.00  0.00    +0.025 A 
ENDBRANCH  32  33
ENDBRANCH  27  32
ENDBRANCH   1  28
TORSDOF 5
