REMARK  Name = ZINC32528927
REMARK  10 active torsions:
REMARK  status: ('A' for Active; 'I' for Inactive)
REMARK    1  A    between atoms: C_1  and  C_2
REMARK    2  A    between atoms: C_2  and  C_3
REMARK    3  A    between atoms: C_3  and  C_5
REMARK    4  A    between atoms: C_3  and  S_18
REMARK    5  A    between atoms: N_7  and  C_8
REMARK    6  A    between atoms: C_11  and  S_14
REMARK    7  A    between atoms: S_14  and  N_17
REMARK    8  A    between atoms: S_18  and  C_19
REMARK    9  A    between atoms: C_21  and  C_30
REMARK   10  A    between atoms: C_26  and  C_29
REMARK                            x       y       z     vdW  Elec       q    Type
REMARK                         _______ _______ _______ _____ _____    ______ ____
ROOT
ATOM      1  C   UNL     1       1.900   2.317   0.293  0.00  0.00    +0.138 C 
ENDROOT
BRANCH   1   2
ATOM      2  C   UNL     1       2.026   3.785   0.607  0.00  0.00    +0.231 C 
ATOM      3  O   UNL     1       1.196   4.330   1.304  0.00  0.00    -0.274 OA
ATOM      4  N   UNL     1       3.061   4.494   0.114  0.00  0.00    -0.285 N 
ATOM      5  H   UNL     1       3.773   4.019  -0.578  0.00  0.00    +0.155 HD
BRANCH   4   6
ATOM      6  C   UNL     1       3.231   5.833   0.482  0.00  0.00    +0.034 A 
ATOM      7  C   UNL     1       4.508   6.350   0.655  0.00  0.00    +0.025 A 
ATOM      8  C   UNL     1       4.673   7.674   1.013  0.00  0.00    +0.030 A 
ATOM      9  C   UNL     1       3.567   8.481   1.210  0.00  0.00    +0.105 A 
ATOM     10  C   UNL     1       2.294   7.968   1.043  0.00  0.00    +0.030 A 
ATOM     11  C   UNL     1       2.123   6.646   0.680  0.00  0.00    +0.025 A 
BRANCH   9  12
ATOM     12  S   UNL     1       3.781  10.168   1.672  0.00  0.00    +0.056 S 
ATOM     13  O   UNL     1       5.077  10.549   1.232  0.00  0.00    -0.153 OA
ATOM     14  O   UNL     1       2.606  10.854   1.263  0.00  0.00    -0.153 OA
BRANCH  12  15
ATOM     15  N   UNL     1       3.808  10.222   3.327  0.00  0.00    -0.204 NA
ATOM     16  H   UNL     1       3.941  11.263   3.658  0.00  0.00    +0.144 HD
ATOM     17  H   UNL     1       4.643   9.610   3.700  0.00  0.00    +0.144 HD
ENDBRANCH  12  15
ENDBRANCH   9  12
ENDBRANCH   4   6
ENDBRANCH   1   2
BRANCH   1  19
ATOM     18  C   UNL     1       2.723   0.033   0.884  0.00  0.00    +0.005 C 
ATOM     19  C   UNL     1       2.737   1.509   1.287  0.00  0.00    +0.020 C 
ENDBRANCH   1  19
BRANCH   1  20
ATOM     20  S   UNL     1       0.165   1.819   0.421  0.00  0.00    -0.093 S 
BRANCH  20  21
ATOM     21  C   UNL     1      -0.501   2.671  -0.971  0.00  0.00    +0.099 A 
ATOM     22  C   UNL     1      -1.890   2.683  -1.167  0.00  0.00    +0.038 A 
ATOM     23  C   UNL     1      -2.419   3.343  -2.234  0.00  0.00    -0.039 A 
ATOM     24  C   UNL     1      -1.537   3.990  -3.124  0.00  0.00    +0.004 A 
ATOM     25  C   UNL     1      -2.014   4.683  -4.247  0.00  0.00    +0.010 A 
ATOM     26  C   UNL     1      -1.133   5.296  -5.086  0.00  0.00    +0.001 A 
ATOM     27  C   UNL     1       0.237   5.244  -4.843  0.00  0.00    +0.005 A 
ATOM     28  C   UNL     1       0.734   4.582  -3.763  0.00  0.00    -0.024 A 
ATOM     29  C   UNL     1      -0.144   3.937  -2.875  0.00  0.00    +0.075 A 
ATOM     30  N   UNL     1       0.318   3.278  -1.806  0.00  0.00    -0.240 NA
ATOM     31  C   UNL     1       2.221   4.540  -3.519  0.00  0.00    +0.046 C 
ATOM     32  C   UNL     1      -3.908   3.375  -2.462  0.00  0.00    +0.044 C 
ENDBRANCH  20  21
ENDBRANCH   1  20
TORSDOF 7
