REMARK  Name = ZINC08846163
REMARK  7 active torsions:
REMARK  status: ('A' for Active; 'I' for Inactive)
REMARK    1  A    between atoms: C_2  and  C_3
REMARK    2  A    between atoms: C_3  and  O_4
REMARK    3  A    between atoms: O_4  and  C_5
REMARK    4  A    between atoms: C_9  and  C_11
REMARK    5  A    between atoms: C_16  and  N_25
REMARK    6  A    between atoms: C_20  and  N_24
REMARK    7  A    between atoms: C_21  and  C_22
REMARK                            x       y       z     vdW  Elec       q    Type
REMARK                         _______ _______ _______ _____ _____    ______ ____
ROOT
ATOM      1  C   UNL     1       1.257   2.148   0.002  0.00  0.00    +0.098 C 
ATOM      2  C   UNL     1       2.420   1.278   0.398  0.00  0.00    +0.008 A 
ATOM      3  C   UNL     1       3.608   1.869   0.793  0.00  0.00    +0.010 A 
ATOM      4  C   UNL     1       4.685   1.087   1.159  0.00  0.00    +0.023 A 
ATOM      5  C   UNL     1       4.580  -0.298   1.132  0.00  0.00    +0.028 A 
ATOM      6  C   UNL     1       3.390  -0.892   0.737  0.00  0.00    +0.069 A 
ATOM      7  C   UNL     1       2.308  -0.103   0.370  0.00  0.00    +0.136 A 
ATOM      8  O   UNL     1       1.151  -0.700  -0.013  0.00  0.00    -0.441 OA
ATOM      9  C   UNL     1       0.002  -0.004   0.002  0.00  0.00    +0.199 C 
ATOM     10  C   UNL     1      -0.016   1.350   0.009  0.00  0.00    +0.098 C 
ENDROOT
BRANCH   1  15
ATOM     11  C   UNL     1       1.788   4.567  -2.852  0.00  0.00    +0.121 A 
ATOM     12  C   UNL     1       1.926   3.699  -3.926  0.00  0.00    +0.045 A 
ATOM     13  C   UNL     1       1.847   2.335  -3.724  0.00  0.00    +0.004 A 
ATOM     14  C   UNL     1       1.631   1.835  -2.453  0.00  0.00    +0.005 A 
ATOM     15  C   UNL     1       1.493   2.697  -1.382  0.00  0.00    -0.031 A 
ATOM     16  C   UNL     1       1.566   4.063  -1.579  0.00  0.00    +0.050 A 
BRANCH  11  17
ATOM     17  O   UNL     1       1.864   5.910  -3.049  0.00  0.00    -0.488 OA
BRANCH  17  18
ATOM     18  C   UNL     1       2.088   6.358  -4.387  0.00  0.00    +0.256 C 
BRANCH  18  20
ATOM     19  C   UNL     1       3.082   8.475  -5.089  0.00  0.00    +0.007 C 
ATOM     20  C   UNL     1       2.143   7.864  -4.410  0.00  0.00    +0.006 C 
ENDBRANCH  18  20
ENDBRANCH  17  18
ENDBRANCH  11  17
ENDBRANCH   1  15
BRANCH   9  21
ATOM     21  N   UNL     1      -1.189  -0.686   0.009  0.00  0.00    -0.328 N 
ATOM     22  H   UNL     1      -2.027  -0.198   0.020  0.00  0.00    +0.145 HD
ATOM     23  H   UNL     1      -1.192  -1.656   0.004  0.00  0.00    +0.145 HD
ENDBRANCH   9  21
BRANCH   5  24
ATOM     24  N   UNL     1       5.668  -1.090   1.502  0.00  0.00    -0.358 N 
ATOM     25  H   UNL     1       5.593  -2.057   1.483  0.00  0.00    +0.142 HD
ATOM     26  H   UNL     1       6.500  -0.674   1.778  0.00  0.00    +0.142 HD
ENDBRANCH   5  24
BRANCH  10  27
ATOM     27  C   UNL     1      -1.274   2.034   0.019  0.00  0.00    +0.101 C 
ATOM     28  N   UNL     1      -2.272   2.578   0.027  0.00  0.00    -0.191 NA
ENDBRANCH  10  27
TORSDOF 7
