REMARK  Name = ZINC08867278
REMARK  8 active torsions:
REMARK  status: ('A' for Active; 'I' for Inactive)
REMARK    1  A    between atoms: C_1  and  C_2
REMARK    2  A    between atoms: C_3  and  C_12
REMARK    3  A    between atoms: C_12  and  C_13
REMARK    4  A    between atoms: C_13  and  N_14
REMARK    5  A    between atoms: C_15  and  C_17
REMARK    6  A    between atoms: C_17  and  N_26
REMARK    7  A    between atoms: C_18  and  C_19
REMARK    8  A    between atoms: C_27  and  C_29
REMARK                            x       y       z     vdW  Elec       q    Type
REMARK                         _______ _______ _______ _____ _____    ______ ____
ROOT
ATOM      1  C   UNL     1       0.578  -2.097  -1.081  0.00  0.00    +0.097 C 
ATOM      2  C   UNL     1       1.194  -2.813  -2.049  0.00  0.00    +0.036 C 
ENDROOT
BRANCH   2   3
ATOM      3  C   UNL     1       1.127  -4.282  -2.033  0.00  0.00    -0.023 A 
ATOM      4  C   UNL     1       0.959  -4.965  -0.824  0.00  0.00    +0.009 A 
ATOM      5  C   UNL     1       0.893  -6.342  -0.818  0.00  0.00    +0.016 A 
ATOM      6  C   UNL     1       1.002  -7.050  -2.003  0.00  0.00    +0.018 A 
ATOM      7  C   UNL     1       1.174  -6.381  -3.204  0.00  0.00    +0.016 A 
ATOM      8  C   UNL     1       1.237  -5.004  -3.227  0.00  0.00    +0.009 A 
ATOM      9 BR   UNL     1       0.917  -8.939  -1.982  0.00  0.00    -0.050 Br
ENDBRANCH   2   3
BRANCH   1  11
ATOM     10  N   UNL     1       0.160   0.071  -0.039  0.00  0.00    -0.310 N 
ATOM     11  C   UNL     1       0.774  -0.642  -1.004  0.00  0.00    +0.258 C 
ATOM     12  O   UNL     1       1.491  -0.082  -1.812  0.00  0.00    -0.269 OA
ATOM     13  H   UNL     1      -0.412  -0.376   0.605  0.00  0.00    +0.149 HD
BRANCH  10  14
ATOM     14  C   UNL     1       0.355   1.521   0.037  0.00  0.00    +0.109 C 
BRANCH  14  15
ATOM     15  C   UNL     1      -0.447   2.083   1.212  0.00  0.00    +0.056 C 
BRANCH  15  18
ATOM     16  C   UNL     1       1.762   3.547   2.829  0.00  0.00    +0.063 C 
ATOM     17  C   UNL     1       0.706   4.216   1.987  0.00  0.00    +0.017 A 
ATOM     18  C   UNL     1      -0.245   3.574   1.291  0.00  0.00    -0.018 A 
ATOM     19  C   UNL     1      -1.055   4.598   0.627  0.00  0.00    +0.003 A 
ATOM     20  C   UNL     1      -2.169   4.561  -0.215  0.00  0.00    +0.010 A 
ATOM     21  C   UNL     1      -2.708   5.727  -0.679  0.00  0.00    +0.001 A 
ATOM     22  C   UNL     1      -2.156   6.950  -0.322  0.00  0.00    +0.002 A 
ATOM     23  C   UNL     1      -1.058   7.010   0.507  0.00  0.00    +0.026 A 
ATOM     24  C   UNL     1      -0.493   5.835   0.992  0.00  0.00    +0.047 A 
ATOM     25  N   UNL     1       0.577   5.567   1.816  0.00  0.00    -0.358 N 
ATOM     26  H   UNL     1       1.152   6.237   2.218  0.00  0.00    +0.166 HD
ENDBRANCH  15  18
ENDBRANCH  14  15
ENDBRANCH  10  14
ENDBRANCH   1  11
BRANCH   1  27
ATOM     27  N   UNL     1      -0.246  -2.741  -0.153  0.00  0.00    -0.275 N 
ATOM     28  C   UNL     1       0.029  -2.659   1.164  0.00  0.00    +0.284 C 
ATOM     29  O   UNL     1       0.957  -1.972   1.550  0.00  0.00    -0.266 OA
ATOM     30  H   UNL     1      -1.016  -3.247  -0.456  0.00  0.00    +0.155 HD
BRANCH  28  31
ATOM     31  C   UNL     1      -0.788  -3.396   2.132  0.00  0.00    +0.189 A 
ATOM     32  C   UNL     1      -0.561  -3.481   3.476  0.00  0.00    +0.054 A 
ATOM     33  C   UNL     1      -1.583  -4.281   4.009  0.00  0.00    +0.042 A 
ATOM     34  C   UNL     1      -2.380  -4.646   2.980  0.00  0.00    +0.196 A 
ATOM     35  O   UNL     1      -1.901  -4.106   1.852  0.00  0.00    -0.458 OA
ENDBRANCH  28  31
ENDBRANCH   1  27
TORSDOF 7
