REMARK  Name = ZINC12376112
REMARK  5 active torsions:
REMARK  status: ('A' for Active; 'I' for Inactive)
REMARK    1  A    between atoms: C_4  and  C_7
REMARK    2  A    between atoms: C_9  and  C_23
REMARK    3  A    between atoms: C_11  and  C_21
REMARK    4  A    between atoms: N_14  and  C_15
REMARK    5  A    between atoms: N_25  and  C_26
REMARK                            x       y       z     vdW  Elec       q    Type
REMARK                         _______ _______ _______ _____ _____    ______ ____
ROOT
ATOM      1  C   UNL     1       7.330   0.481  -0.102  0.00  0.00    +0.157 C 
ATOM      2  C   UNL     1       6.146  -0.506  -0.175  0.00  0.00    +0.147 C 
ATOM      3  C   UNL     1       6.398  -1.494   0.986  0.00  0.00    +0.275 C 
ATOM      4  O   UNL     1       7.235  -0.751   1.902  0.00  0.00    -0.255 OA
ATOM      5  N   UNL     1       8.158   0.007   1.032  0.00  0.00    -0.244 N 
ENDROOT
BRANCH   1   9
ATOM      6  C   UNL     1       9.576   0.377  -3.733  0.00  0.00    +0.000 A 
ATOM      7  C   UNL     1       8.660   1.389  -3.516  0.00  0.00    +0.000 A 
ATOM      8  C   UNL     1       7.933   1.423  -2.341  0.00  0.00    +0.006 A 
ATOM      9  C   UNL     1       8.122   0.445  -1.383  0.00  0.00    -0.022 A 
ATOM     10  C   UNL     1       9.043  -0.564  -1.597  0.00  0.00    +0.006 A 
ATOM     11  C   UNL     1       9.766  -0.600  -2.775  0.00  0.00    +0.000 A 
ENDBRANCH   1   9
BRANCH   5  12
ATOM     12  C   UNL     1       8.726   1.081   1.721  0.00  0.00    +0.065 A 
ATOM     13  C   UNL     1       7.912   2.042   2.305  0.00  0.00    +0.028 A 
ATOM     14  C   UNL     1       8.476   3.100   2.990  0.00  0.00    +0.002 A 
ATOM     15  C   UNL     1       9.852   3.209   3.085  0.00  0.00    +0.000 A 
ATOM     16  C   UNL     1      10.666   2.256   2.500  0.00  0.00    +0.002 A 
ATOM     17  C   UNL     1      10.107   1.193   1.819  0.00  0.00    +0.028 A 
ENDBRANCH   5  12
BRANCH   2  18
ATOM     18  C   UNL     1       4.841   0.220   0.025  0.00  0.00    +0.226 C 
ATOM     19  O   UNL     1       4.779   1.153   0.798  0.00  0.00    -0.275 OA
ATOM     20  N   UNL     1       3.744  -0.167  -0.654  0.00  0.00    -0.285 N 
ATOM     21  H   UNL     1       3.775  -0.956  -1.218  0.00  0.00    +0.155 HD
BRANCH  20  22
ATOM     22  C   UNL     1       2.558   0.570  -0.547  0.00  0.00    +0.033 A 
ATOM     23  C   UNL     1       1.722   0.706  -1.647  0.00  0.00    +0.025 A 
ATOM     24  C   UNL     1       0.553   1.433  -1.538  0.00  0.00    +0.022 A 
ATOM     25  C   UNL     1       0.214   2.026  -0.335  0.00  0.00    +0.041 A 
ATOM     26  C   UNL     1       1.046   1.892   0.763  0.00  0.00    +0.022 A 
ATOM     27  C   UNL     1       2.217   1.166   0.660  0.00  0.00    +0.025 A 
ATOM     28 CL   UNL     1      -1.252   2.945  -0.203  0.00  0.00    -0.084 Cl
ENDBRANCH  20  22
ENDBRANCH   2  18
BRANCH   3  29
ATOM     29  C   UNL     1       5.098  -1.874   1.647  0.00  0.00    +0.388 C 
ATOM     30  O   UNL     1       4.889  -1.558   2.795  0.00  0.00    -0.243 OA
ATOM     31  O   UNL     1       4.173  -2.564   0.962  0.00  0.00    -0.243 OA
ENDBRANCH   3  29
TORSDOF 5
