REMARK  Name = ZINC39658875
REMARK  6 active torsions:
REMARK  status: ('A' for Active; 'I' for Inactive)
REMARK    1  A    between atoms: C_1  and  C_2
REMARK    2  A    between atoms: C_2  and  C_33
REMARK    3  A    between atoms: C_5  and  C_8
REMARK    4  A    between atoms: C_8  and  N_9
REMARK    5  A    between atoms: C_10  and  C_12
REMARK    6  A    between atoms: C_23  and  C_25
REMARK                            x       y       z     vdW  Elec       q    Type
REMARK                         _______ _______ _______ _____ _____    ______ ____
ROOT
ATOM      1  C   UNL     1       2.882  -3.475   4.842  0.00  0.00    +0.100 C 
ATOM      2  C   UNL     1       3.554  -4.676   4.138  0.00  0.00    +0.121 C 
ATOM      3  N   UNL     1       4.475  -5.238   5.154  0.00  0.00    -0.296 N 
ATOM      4  C   UNL     1       3.722  -5.141   6.428  0.00  0.00    +0.115 C 
ATOM      5  C   UNL     1       2.994  -3.785   6.344  0.00  0.00    -0.004 C 
ATOM      6  C   UNL     1       1.605  -3.893   6.966  0.00  0.00    -0.010 C 
ATOM      7  C   UNL     1       1.743  -4.143   8.471  0.00  0.00    -0.082 C 
ATOM      8  N   UNL     1       2.492  -3.040   9.085  0.00  0.00    +0.379 N 
ATOM      9  C   UNL     1       3.857  -3.002   8.548  0.00  0.00    -0.082 C 
ATOM     10  C   UNL     1       3.809  -2.704   7.047  0.00  0.00    -0.010 C 
ATOM     11  C   UNL     1       5.716  -5.727   4.963  0.00  0.00    +0.247 C 
ATOM     12  O   UNL     1       6.251  -5.621   3.877  0.00  0.00    -0.270 OA
ATOM     13  H   UNL     1       2.028  -2.167   8.884  0.00  0.00    -0.086 HD
ATOM     14  H   UNL     1       2.528  -3.176  10.085  0.00  0.00    -0.086 HD
ENDROOT
BRANCH  11  15
ATOM     15  C   UNL     1       6.428  -6.391   6.075  0.00  0.00    +0.038 A 
ATOM     16  C   UNL     1       5.712  -6.902   7.160  0.00  0.00    +0.014 A 
ATOM     17  C   UNL     1       6.380  -7.521   8.194  0.00  0.00    +0.022 A 
ATOM     18  C   UNL     1       7.760  -7.637   8.160  0.00  0.00    +0.059 A 
ATOM     19  C   UNL     1       8.477  -7.132   7.087  0.00  0.00    +0.060 A 
ATOM     20  C   UNL     1       7.818  -6.515   6.043  0.00  0.00    +0.034 A 
ATOM     21 CL   UNL     1      10.206  -7.280   7.053  0.00  0.00    -0.082 Cl
ATOM     22 CL   UNL     1       8.595  -8.416   9.468  0.00  0.00    -0.082 Cl
ENDBRANCH  11  15
BRANCH   1  24
ATOM     23  N   UNL     1       0.831  -2.166   4.398  0.00  0.00    -0.312 N 
ATOM     24  C   UNL     1       1.435  -3.370   4.434  0.00  0.00    +0.218 C 
ATOM     25  O   UNL     1       0.815  -4.369   4.138  0.00  0.00    -0.275 OA
ATOM     26  H   UNL     1       1.328  -1.367   4.635  0.00  0.00    +0.149 HD
BRANCH  23  27
ATOM     27  C   UNL     1      -0.575  -2.064   4.002  0.00  0.00    +0.138 C 
BRANCH  27  32
ATOM     28  C   UNL     1      -2.763   0.989   6.713  0.00  0.00    +0.074 C 
ATOM     29  C   UNL     1      -1.992   0.969   5.391  0.00  0.00    +0.165 C 
ATOM     30  O   UNL     1      -2.905   0.758   4.305  0.00  0.00    -0.347 OA
ATOM     31  C   UNL     1      -2.498  -0.450   3.631  0.00  0.00    +0.196 C 
ATOM     32  C   UNL     1      -1.012  -0.598   4.045  0.00  0.00    +0.164 C 
ATOM     33  O   UNL     1      -1.035  -0.103   5.406  0.00  0.00    -0.342 OA
ATOM     34  C   UNL     1      -1.268   2.303   5.198  0.00  0.00    +0.074 C 
ENDBRANCH  27  32
ENDBRANCH  23  27
ENDBRANCH   1  24
TORSDOF 4
