REMARK  Name = ZINC13039434
REMARK  8 active torsions:
REMARK  status: ('A' for Active; 'I' for Inactive)
REMARK    1  A    between atoms: C_1  and  C_2
REMARK    2  A    between atoms: C_5  and  C_27
REMARK    3  A    between atoms: C_6  and  N_8
REMARK    4  A    between atoms: N_8  and  C_9
REMARK    5  A    between atoms: C_14  and  C_15
REMARK    6  A    between atoms: C_18  and  N_24
REMARK    7  A    between atoms: C_19  and  N_21
REMARK    8  A    between atoms: N_24  and  C_25
REMARK                            x       y       z     vdW  Elec       q    Type
REMARK                         _______ _______ _______ _____ _____    ______ ____
ROOT
ATOM      1  C   UNL     1       1.153  -1.581   3.658  0.00  0.00    +0.175 C 
ATOM      2  N   UNL     1       0.896  -0.321   3.974  0.00  0.00    -0.152 NA
ATOM      3  C   UNL     1       0.641   0.059   5.206  0.00  0.00    +0.276 C 
ATOM      4  O   UNL     1       0.405   1.224   5.485  0.00  0.00    -0.267 OA
ATOM      5  C   UNL     1       0.656  -1.003   6.238  0.00  0.00    +0.079 C 
ATOM      6  C   UNL     1       0.433  -0.921   7.575  0.00  0.00    +0.028 C 
ATOM      7  S   UNL     1       1.041  -2.427   5.226  0.00  0.00    -0.050 S 
ENDROOT
BRANCH   6   8
ATOM      8  C   UNL     1       0.689  -2.082   8.434  0.00  0.00    -0.022 A 
ATOM      9  C   UNL     1       0.287  -2.065   9.777  0.00  0.00    +0.010 A 
ATOM     10  C   UNL     1       0.525  -3.147  10.575  0.00  0.00    +0.026 A 
ATOM     11  C   UNL     1       1.167  -4.271  10.060  0.00  0.00    +0.058 A 
ATOM     12  C   UNL     1       1.571  -4.298   8.728  0.00  0.00    +0.147 A 
ATOM     13  C   UNL     1       1.330  -3.214   7.914  0.00  0.00    +0.042 A 
BRANCH  12  14
ATOM     14  N   UNL     1       2.253  -5.494   8.185  0.00  0.00    +0.058 N 
ATOM     15  O   UNL     1       3.115  -5.370   7.347  0.00  0.00    -0.126 OA
ATOM     16  O   UNL     1       1.948  -6.595   8.580  0.00  0.00    -0.126 OA
ENDBRANCH  12  14
BRANCH  11  17
ATOM     17  N   UNL     1       1.407  -5.369  10.880  0.00  0.00    -0.345 N 
ATOM     18  C   UNL     1       0.927  -5.368  12.264  0.00  0.00    +0.125 C 
ATOM     19  H   UNL     1       1.892  -6.135  10.535  0.00  0.00    +0.146 HD
ENDBRANCH  11  17
ENDBRANCH   6   8
BRANCH   1  20
ATOM     20  N   UNL     1       1.433  -2.109   2.424  0.00  0.00    -0.192 NA
BRANCH  20  26
ATOM     21  C   UNL     1       2.944   2.260   0.753  0.00  0.00    +0.044 C 
ATOM     22  C   UNL     1       2.437   0.863   0.507  0.00  0.00    -0.049 A 
ATOM     23  C   UNL     1       2.240   0.417  -0.788  0.00  0.00    +0.004 A 
ATOM     24  C   UNL     1       1.776  -0.864  -1.018  0.00  0.00    +0.005 A 
ATOM     25  C   UNL     1       1.507  -1.705   0.045  0.00  0.00    -0.027 A 
ATOM     26  C   UNL     1       1.704  -1.261   1.346  0.00  0.00    +0.059 A 
ATOM     27  C   UNL     1       2.175   0.026   1.574  0.00  0.00    +0.028 A 
ATOM     28  C   UNL     1       1.000  -3.101  -0.207  0.00  0.00    +0.046 C 
ENDBRANCH  20  26
ENDBRANCH   1  20
TORSDOF 5
