REMARK  Name = ZINC66668831
REMARK  8 active torsions:
REMARK  status: ('A' for Active; 'I' for Inactive)
REMARK    1  A    between atoms: C_1  and  O_2
REMARK    2  A    between atoms: O_2  and  C_3
REMARK    3  A    between atoms: C_5  and  C_10
REMARK    4  A    between atoms: C_8  and  O_9
REMARK    5  A    between atoms: C_10  and  N_11
REMARK    6  A    between atoms: N_11  and  C_12
REMARK    7  A    between atoms: N_17  and  C_18
REMARK    8  A    between atoms: C_21  and  N_25
REMARK                            x       y       z     vdW  Elec       q    Type
REMARK                         _______ _______ _______ _____ _____    ______ ____
ROOT
ATOM      1  N   UNL     1       3.557   0.562  -4.325  0.00  0.00    -0.278 N 
ATOM      2  C   UNL     1       3.723   1.756  -3.722  0.00  0.00    +0.307 C 
ATOM      3  O   UNL     1       2.764   2.479  -3.532  0.00  0.00    -0.252 OA
ATOM      4  N   UNL     1       4.951   2.148  -3.330  0.00  0.00    -0.269 N 
ATOM      5  H   UNL     1       5.722   1.589  -3.518  0.00  0.00    +0.156 HD
ENDROOT
BRANCH   4   6
ATOM      6  C   UNL     1       5.115   3.361  -2.652  0.00  0.00    +0.038 A 
ATOM      7  C   UNL     1       4.002   4.080  -2.235  0.00  0.00    +0.025 A 
ATOM      8  C   UNL     1       4.162   5.276  -1.565  0.00  0.00    +0.032 A 
ATOM      9  C   UNL     1       5.437   5.763  -1.308  0.00  0.00    +0.102 A 
ATOM     10  C   UNL     1       6.552   5.044  -1.725  0.00  0.00    +0.150 A 
ATOM     11  C   UNL     1       6.391   3.844  -2.390  0.00  0.00    +0.063 A 
ATOM     12  F   UNL     1       7.793   5.517  -1.475  0.00  0.00    -0.203 F 
BRANCH   9  13
ATOM     13  N   UNL     1       5.599   6.980  -0.628  0.00  0.00    -0.218 N 
ATOM     14  C   UNL     1       6.764   7.579  -0.313  0.00  0.00    +0.225 A 
ATOM     15  N   UNL     1       6.488   8.693   0.317  0.00  0.00    -0.222 NA
ATOM     16  C   UNL     1       5.168   8.839   0.422  0.00  0.00    +0.245 A 
ATOM     17  N   UNL     1       4.581   7.818  -0.147  0.00  0.00    -0.153 NA
ENDBRANCH   9  13
ENDBRANCH   4   6
BRANCH   1  18
ATOM     18  C   UNL     1       4.688  -0.362  -4.445  0.00  0.00    +0.078 C 
ATOM     19  C   UNL     1       4.504  -1.593  -5.334  0.00  0.00    +0.024 C 
ATOM     20  C   UNL     1       4.539  -1.747  -3.812  0.00  0.00    +0.024 C 
ENDBRANCH   1  18
BRANCH   1  21
ATOM     21  C   UNL     1       2.246   0.188  -4.862  0.00  0.00    +0.144 C 
BRANCH  21  24
ATOM     22  C   UNL     1      -0.091  -0.453  -1.963  0.00  0.00    +0.162 A 
ATOM     23  C   UNL     1       0.640   0.199  -2.943  0.00  0.00    +0.054 A 
ATOM     24  C   UNL     1       1.452  -0.524  -3.797  0.00  0.00    -0.026 A 
ATOM     25  C   UNL     1       1.537  -1.898  -3.675  0.00  0.00    +0.009 A 
ATOM     26  C   UNL     1       0.811  -2.556  -2.700  0.00  0.00    +0.049 A 
ATOM     27  C   UNL     1      -0.001  -1.836  -1.838  0.00  0.00    +0.158 A 
BRANCH  22  29
ATOM     28  C   UNL     1      -0.933   1.673  -1.310  0.00  0.00    +0.277 C 
ATOM     29  O   UNL     1      -0.890   0.257  -1.123  0.00  0.00    -0.491 OA
ENDBRANCH  22  29
BRANCH  27  30
ATOM     30  O   UNL     1      -0.712  -2.481  -0.874  0.00  0.00    -0.503 OA
ATOM     31  H   UNL     1      -1.592  -2.762  -1.157  0.00  0.00    +0.292 HD
ENDBRANCH  27  30
ENDBRANCH  21  24
ENDBRANCH   1  21
TORSDOF 7
