REMARK  Name = ZINC09297906
REMARK  10 active torsions:
REMARK  status: ('A' for Active; 'I' for Inactive)
REMARK    1  A    between atoms: C_1  and  C_2
REMARK    2  A    between atoms: C_2  and  C_3
REMARK    3  A    between atoms: C_3  and  C_4
REMARK    4  A    between atoms: C_4  and  O_5
REMARK    5  A    between atoms: O_5  and  C_6
REMARK    6  A    between atoms: C_9  and  C_12
REMARK    7  A    between atoms: N_14  and  C_15
REMARK    8  A    between atoms: C_16  and  C_24
REMARK    9  A    between atoms: C_27  and  O_29
REMARK   10  A    between atoms: O_29  and  C_30
REMARK                            x       y       z     vdW  Elec       q    Type
REMARK                         _______ _______ _______ _____ _____    ______ ____
ROOT
ATOM      1  C   UNL     1      -1.282   1.553   3.623  0.00  0.00    +0.085 A 
ATOM      2  C   UNL     1      -0.558   0.999   2.575  0.00  0.00    +0.069 A 
ATOM      3  C   UNL     1      -0.732   1.580   1.257  0.00  0.00    -0.023 A 
ATOM      4  C   UNL     1      -1.601   2.615   1.194  0.00  0.00    -0.004 A 
ATOM      5  S   UNL     1      -2.178   2.821   2.855  0.00  0.00    -0.077 S 
ATOM      6  C   UNL     1      -1.979   3.405  -0.021  0.00  0.00    +0.043 C 
ATOM      7  C   UNL     1      -0.956   3.111  -1.127  0.00  0.00    +0.005 C 
ATOM      8  C   UNL     1      -0.758   1.595  -1.227  0.00  0.00    +0.005 C 
ATOM      9  C   UNL     1      -0.013   1.086   0.008  0.00  0.00    +0.037 C 
ENDROOT
BRANCH   2  10
ATOM     10  C   UNL     1       0.351  -0.130   2.793  0.00  0.00    +0.255 C 
ATOM     11  O   UNL     1      -0.061  -1.270   2.694  0.00  0.00    -0.270 OA
ATOM     12  N   UNL     1       1.643   0.096   3.104  0.00  0.00    -0.217 N 
ATOM     13  C   UNL     1       2.479  -0.942   3.304  0.00  0.00    +0.407 C 
ATOM     14  O   UNL     1       2.068  -2.081   3.205  0.00  0.00    -0.226 OA
ATOM     15  H   UNL     1       1.971   1.006   3.183  0.00  0.00    +0.161 HD
BRANCH  13  16
ATOM     16  O   UNL     1       3.769  -0.717   3.615  0.00  0.00    -0.453 OA
ATOM     17  C   UNL     1       4.612  -1.882   3.817  0.00  0.00    +0.282 C 
ENDBRANCH  13  16
ENDBRANCH   2  10
BRANCH   1  20
ATOM     18  C   UNL     1      -2.065   1.843   5.838  0.00  0.00    +0.249 C 
ATOM     19  O   UNL     1      -2.760   2.766   5.461  0.00  0.00    -0.270 OA
ATOM     20  N   UNL     1      -1.288   1.181   4.957  0.00  0.00    -0.275 N 
ATOM     21  H   UNL     1      -0.734   0.444   5.258  0.00  0.00    +0.156 HD
BRANCH  18  25
ATOM     22  C   UNL     1      -2.083   0.703   9.928  0.00  0.00    +0.121 A 
ATOM     23  C   UNL     1      -2.878   1.759   9.499  0.00  0.00    +0.046 A 
ATOM     24  C   UNL     1      -2.875   2.132   8.174  0.00  0.00    +0.016 A 
ATOM     25  C   UNL     1      -2.071   1.447   7.259  0.00  0.00    +0.037 A 
ATOM     26  C   UNL     1      -1.277   0.382   7.693  0.00  0.00    +0.016 A 
ATOM     27  C   UNL     1      -1.281   0.019   9.021  0.00  0.00    +0.046 A 
BRANCH  22  28
ATOM     28  O   UNL     1      -2.089   0.338  11.235  0.00  0.00    -0.492 OA
BRANCH  28  29
ATOM     29  C   UNL     1      -1.248  -0.756  11.607  0.00  0.00    +0.229 C 
BRANCH  29  30
ATOM     30  C   UNL     1      -1.388  -1.018  13.108  0.00  0.00    +0.041 C 
BRANCH  30  32
ATOM     31  C   UNL     1      -0.627  -2.452  15.008  0.00  0.00    +0.004 C 
ATOM     32  C   UNL     1      -0.488  -2.189  13.507  0.00  0.00    -0.000 C 
ENDBRANCH  30  32
ENDBRANCH  29  30
ENDBRANCH  28  29
ENDBRANCH  22  28
ENDBRANCH  18  25
ENDBRANCH   1  20
TORSDOF 8
