REMARK  Name = ZINC39963556
REMARK  6 active torsions:
REMARK  status: ('A' for Active; 'I' for Inactive)
REMARK    1  A    between atoms: C_1  and  C_2
REMARK    2  A    between atoms: C_7  and  S_12
REMARK    3  A    between atoms: S_12  and  C_13
REMARK    4  A    between atoms: C_13  and  C_14
REMARK    5  A    between atoms: N_16  and  C_17
REMARK    6  A    between atoms: C_23  and  N_27
REMARK                            x       y       z     vdW  Elec       q    Type
REMARK                         _______ _______ _______ _____ _____    ______ ____
ROOT
ATOM      1  C   UNL     1      -6.247   4.357  -7.179  0.00  0.00    +0.225 C 
ATOM      2  O   UNL     1      -7.355   4.395  -6.687  0.00  0.00    -0.275 OA
ATOM      3  N   UNL     1      -6.066   4.721  -8.464  0.00  0.00    -0.288 N 
ATOM      4  H   UNL     1      -5.180   4.691  -8.857  0.00  0.00    +0.151 HD
ENDROOT
BRANCH   3   5
ATOM      5  C   UNL     1      -7.209   5.164  -9.267  0.00  0.00    +0.224 C 
ATOM      6  N   UNL     1      -6.765   5.769 -10.530  0.00  0.00    -0.316 N 
ATOM      7  C   UNL     1      -7.162   5.151 -11.715  0.00  0.00    +0.043 A 
ATOM      8  C   UNL     1      -6.835   5.584 -13.013  0.00  0.00    +0.026 A 
ATOM      9  C   UNL     1      -7.277   4.903 -14.123  0.00  0.00    +0.034 A 
ATOM     10  C   UNL     1      -8.059   3.768 -14.001  0.00  0.00    +0.127 A 
ATOM     11  C   UNL     1      -8.396   3.319 -12.735  0.00  0.00    +0.049 A 
ATOM     12  C   UNL     1      -7.953   4.001 -11.625  0.00  0.00    +0.034 A 
ATOM     13  S   UNL     1      -8.180   3.729  -9.881  0.00  0.00    -0.082 S 
ATOM     14  H   UNL     1      -6.216   6.568 -10.539  0.00  0.00    +0.149 HD
BRANCH  10  15
ATOM     15  N   UNL     1      -8.527   3.046 -15.204  0.00  0.00    +0.056 N 
ATOM     16  O   UNL     1      -8.228   3.447 -16.305  0.00  0.00    -0.126 OA
ATOM     17  O   UNL     1      -9.210   2.055 -15.087  0.00  0.00    -0.126 OA
ENDBRANCH  10  15
ENDBRANCH   3   5
BRANCH   1  18
ATOM     18  C   UNL     1      -5.071   3.902  -6.352  0.00  0.00    +0.173 C 
BRANCH  18  19
ATOM     19  S   UNL     1      -5.634   3.484  -4.679  0.00  0.00    -0.079 S 
BRANCH  19  26
ATOM     20  C   UNL     1      -0.013   1.086   0.008  0.00  0.00    +0.044 C 
ATOM     21  C   UNL     1      -0.742   1.585  -1.213  0.00  0.00    -0.048 A 
ATOM     22  C   UNL     1      -0.039   1.825  -2.384  0.00  0.00    +0.005 A 
ATOM     23  C   UNL     1      -0.690   2.281  -3.509  0.00  0.00    +0.030 A 
ATOM     24  C   UNL     1      -2.069   2.504  -3.470  0.00  0.00    +0.090 A 
ATOM     25  N   UNL     1      -2.970   2.940  -4.388  0.00  0.00    -0.222 NA
ATOM     26  C   UNL     1      -4.165   2.978  -3.850  0.00  0.00    +0.168 A 
ATOM     27  H   UNL     1      -4.842   2.502  -1.927  0.00  0.00    +0.168 HD
ATOM     28  N   UNL     1      -4.099   2.566  -2.548  0.00  0.00    -0.333 N 
ATOM     29  C   UNL     1      -2.776   2.259  -2.281  0.00  0.00    +0.067 A 
ATOM     30  C   UNL     1      -2.104   1.795  -1.160  0.00  0.00    +0.031 A 
ENDBRANCH  19  26
ENDBRANCH  18  19
ENDBRANCH   1  18
TORSDOF 5
