REMARK  Name = ZINC22645074
REMARK  7 active torsions:
REMARK  status: ('A' for Active; 'I' for Inactive)
REMARK    1  A    between atoms: C_1  and  O_2
REMARK    2  A    between atoms: O_2  and  C_3
REMARK    3  A    between atoms: C_5  and  C_13
REMARK    4  A    between atoms: C_14  and  C_15
REMARK    5  A    between atoms: N_17  and  C_18
REMARK    6  A    between atoms: C_18  and  C_19
REMARK    7  A    between atoms: N_21  and  C_22
REMARK                            x       y       z     vdW  Elec       q    Type
REMARK                         _______ _______ _______ _____ _____    ______ ____
ROOT
ATOM      1  C   UNL     1      -0.018   1.459   0.001  0.00  0.00    +0.237 C 
ATOM      2  O   UNL     1      -1.081   2.053   0.000  0.00  0.00    -0.271 OA
ATOM      3  N   UNL     1       1.140   2.148  -0.000  0.00  0.00    -0.303 N 
ATOM      4  H   UNL     1       2.100   1.611  -0.004  0.00  0.00    +0.149 HD
ENDROOT
BRANCH   1   6
ATOM      5  C   UNL     1      -1.158  -0.694  -0.003  0.00  0.00    +0.013 C 
ATOM      6  C   UNL     1       0.001  -0.004  -0.003  0.00  0.00    +0.068 C 
BRANCH   5   9
ATOM      7  C   UNL     1       0.094  -4.231  -0.018  0.00  0.00    +0.166 A 
ATOM      8  C   UNL     1       0.081  -2.850  -0.018  0.00  0.00    +0.057 A 
ATOM      9  C   UNL     1      -1.139  -2.164  -0.007  0.00  0.00    -0.018 A 
ATOM     10  C   UNL     1      -2.339  -2.882  -0.006  0.00  0.00    +0.057 A 
ATOM     11  C   UNL     1      -2.319  -4.265  -0.011  0.00  0.00    +0.166 A 
ATOM     12  C   UNL     1      -1.104  -4.944  -0.018  0.00  0.00    +0.204 A 
ATOM     13  O   UNL     1      -1.067  -6.304  -0.027  0.00  0.00    -0.482 OA
ATOM     14  C   UNL     1      -2.269  -6.983   0.352  0.00  0.00    +0.270 C 
ATOM     15  C   UNL     1      -3.445  -6.327  -0.385  0.00  0.00    +0.270 C 
ATOM     16  O   UNL     1      -3.497  -4.947  -0.006  0.00  0.00    -0.485 OA
BRANCH   7  18
ATOM     17  C   UNL     1       2.469  -4.106  -0.023  0.00  0.00    +0.277 C 
ATOM     18  O   UNL     1       1.280  -4.898  -0.023  0.00  0.00    -0.491 OA
ENDBRANCH   7  18
ENDBRANCH   5   9
ENDBRANCH   1   6
BRANCH   3  19
ATOM     19  C   UNL     1       1.120   3.613   0.004  0.00  0.00    +0.200 C 
BRANCH  19  20
ATOM     20  C   UNL     1       2.534   4.135   0.002  0.00  0.00    +0.234 C 
ATOM     21  O   UNL     1       3.466   3.359  -0.003  0.00  0.00    -0.274 OA
ATOM     22  N   UNL     1       2.762   5.463   0.005  0.00  0.00    -0.284 N 
ATOM     23  H   UNL     1       1.920   6.166  -0.068  0.00  0.00    +0.155 HD
BRANCH  22  24
ATOM     24  C   UNL     1       4.072   5.948   0.101  0.00  0.00    +0.036 A 
ATOM     25  C   UNL     1       4.330   7.122   0.796  0.00  0.00    +0.026 A 
ATOM     26  C   UNL     1       5.623   7.596   0.895  0.00  0.00    +0.043 A 
ATOM     27  C   UNL     1       6.662   6.909   0.292  0.00  0.00    +0.159 A 
ATOM     28  C   UNL     1       6.408   5.739  -0.408  0.00  0.00    +0.160 A 
ATOM     29  C   UNL     1       5.114   5.258  -0.504  0.00  0.00    +0.064 A 
ATOM     30  F   UNL     1       7.423   5.069  -0.996  0.00  0.00    -0.202 F 
ATOM     31  F   UNL     1       7.926   7.378   0.386  0.00  0.00    -0.202 F 
ENDBRANCH  22  24
ENDBRANCH  19  20
ENDBRANCH   3  19
TORSDOF 6
