REMARK  Name = ZINC33810629
REMARK  10 active torsions:
REMARK  status: ('A' for Active; 'I' for Inactive)
REMARK    1  A    between atoms: C_1  and  C_2
REMARK    2  A    between atoms: C_2  and  O_3
REMARK    3  A    between atoms: O_3  and  C_4
REMARK    4  A    between atoms: C_7  and  C_10
REMARK    5  A    between atoms: C_15  and  S_19
REMARK    6  A    between atoms: S_19  and  C_20
REMARK    7  A    between atoms: C_20  and  C_21
REMARK    8  A    between atoms: C_24  and  C_27
REMARK    9  A    between atoms: C_34  and  C_36
REMARK   10  A    between atoms: C_34  and  C_37
REMARK                            x       y       z     vdW  Elec       q    Type
REMARK                         _______ _______ _______ _____ _____    ______ ____
ROOT
ATOM      1  C   UNL     1       2.336   0.062  -0.857  0.00  0.00    +0.092 C 
ATOM      2  C   UNL     1       2.315   1.492  -0.404  0.00  0.00    +0.069 A 
ATOM      3  C   UNL     1       1.158   2.080   0.002  0.00  0.00    +0.135 A 
ATOM      4  N   UNL     1       1.176   3.390   0.402  0.00  0.00    -0.208 NA
ATOM      5  C   UNL     1       2.344   4.091   0.395  0.00  0.00    +0.171 A 
ATOM      6  N   UNL     1       3.472   3.531   0.008  0.00  0.00    -0.302 N 
ATOM      7  C   UNL     1       3.505   2.252  -0.394  0.00  0.00    +0.258 A 
ATOM      8  O   UNL     1       4.560   1.746  -0.750  0.00  0.00    -0.267 OA
ATOM      9  N   UNL     1      -0.017   1.364   0.009  0.00  0.00    -0.302 N 
ATOM     10  C   UNL     1       0.002  -0.004   0.002  0.00  0.00    +0.017 C 
ATOM     11  C   UNL     1       1.102  -0.675  -0.402  0.00  0.00    +0.024 C 
ATOM     12  C   UNL     1       1.128  -2.080  -0.416  0.00  0.00    +0.162 C 
ATOM     13  O   UNL     1       2.140  -2.654  -0.768  0.00  0.00    -0.292 OA
ATOM     14  C   UNL     1      -0.072  -2.888  -0.004  0.00  0.00    +0.086 C 
ATOM     15  C   UNL     1      -1.340  -2.074  -0.283  0.00  0.00    -0.023 C 
ATOM     16  C   UNL     1      -1.233  -0.740   0.459  0.00  0.00    +0.058 C 
ATOM     17  C   UNL     1      -1.465  -1.817  -1.786  0.00  0.00    +0.011 C 
ATOM     18  C   UNL     1      -2.565  -2.846   0.210  0.00  0.00    +0.011 C 
ATOM     19  H   UNL     1      -0.982   1.892   0.021  0.00  0.00    +0.153 HD
ATOM     20  H   UNL     1       4.404   4.115   0.010  0.00  0.00    +0.171 HD
ENDROOT
BRANCH   1  24
ATOM     21  C   UNL     1       2.541  -0.052  -5.124  0.00  0.00    +0.121 A 
ATOM     22  C   UNL     1       3.563  -0.601  -4.364  0.00  0.00    +0.046 A 
ATOM     23  C   UNL     1       3.495  -0.563  -2.985  0.00  0.00    +0.008 A 
ATOM     24  C   UNL     1       2.408   0.022  -2.361  0.00  0.00    -0.035 A 
ATOM     25  C   UNL     1       1.385   0.565  -3.116  0.00  0.00    +0.008 A 
ATOM     26  C   UNL     1       1.452   0.535  -4.496  0.00  0.00    +0.046 A 
BRANCH  21  27
ATOM     27  O   UNL     1       2.605  -0.089  -6.481  0.00  0.00    -0.492 OA
BRANCH  27  29
ATOM     28  C   UNL     1       1.765   0.360  -8.702  0.00  0.00    +0.048 C 
ATOM     29  C   UNL     1       1.517   0.496  -7.198  0.00  0.00    +0.225 C 
ENDBRANCH  27  29
ENDBRANCH  21  27
ENDBRANCH   1  24
BRANCH   5  30
ATOM     30  S   UNL     1       2.347   5.775   0.913  0.00  0.00    -0.083 S 
BRANCH  30  31
ATOM     31  C   UNL     1       4.101   6.167   0.699  0.00  0.00    +0.112 C 
BRANCH  31  32
ATOM     32  C   UNL     1       4.347   7.601   1.093  0.00  0.00    -0.037 A 
ATOM     33  C   UNL     1       4.251   8.604   0.147  0.00  0.00    +0.005 A 
ATOM     34  C   UNL     1       4.472   9.919   0.510  0.00  0.00    +0.003 A 
ATOM     35  C   UNL     1       4.800  10.230   1.816  0.00  0.00    -0.050 A 
ATOM     36  C   UNL     1       4.901   9.226   2.761  0.00  0.00    +0.003 A 
ATOM     37  C   UNL     1       4.675   7.911   2.400  0.00  0.00    +0.005 A 
ATOM     38  C   UNL     1       5.046  11.664   2.211  0.00  0.00    +0.044 C 
ENDBRANCH  31  32
ENDBRANCH  30  31
ENDBRANCH   5  30
TORSDOF 6
