REMARK  Name = ZINC25638563
REMARK  11 active torsions:
REMARK  status: ('A' for Active; 'I' for Inactive)
REMARK    1  A    between atoms: C_1  and  C_2
REMARK    2  A    between atoms: C_2  and  C_3
REMARK    3  A    between atoms: C_2  and  C_4
REMARK    4  A    between atoms: C_4  and  C_5
REMARK    5  A    between atoms: C_4  and  C_6
REMARK    6  A    between atoms: C_4  and  N_8
REMARK    7  A    between atoms: C_9  and  C_11
REMARK    8  A    between atoms: C_11  and  O_12
REMARK    9  A    between atoms: O_12  and  C_13
REMARK   10  A    between atoms: C_13  and  C_15
REMARK   11  A    between atoms: C_17  and  N_23
REMARK                            x       y       z     vdW  Elec       q    Type
REMARK                         _______ _______ _______ _____ _____    ______ ____
ROOT
ATOM      1  C   UNL     1      -1.518  -1.844   0.007  0.00  0.00    +0.360 C 
ATOM      2  O   UNL     1      -0.545  -2.571  -0.006  0.00  0.00    -0.243 OA
ENDROOT
BRANCH   1   3
ATOM      3  C   UNL     1      -2.878  -2.428   0.017  0.00  0.00    +0.169 A 
ATOM      4  C   UNL     1      -3.034  -3.812   0.005  0.00  0.00    +0.095 A 
ATOM      5  C   UNL     1      -4.323  -4.346   0.019  0.00  0.00    +0.067 A 
ATOM      6  C   UNL     1      -5.404  -3.467   0.035  0.00  0.00    +0.100 A 
ATOM      7  C   UNL     1      -5.167  -2.102   0.040  0.00  0.00    +0.150 A 
ATOM      8  N   UNL     1      -3.938  -1.627   0.031  0.00  0.00    -0.226 NA
ATOM      9 CL   UNL     1      -6.509  -1.000   0.058  0.00  0.00    -0.060 Cl
ATOM     10 CL   UNL     1      -7.030  -4.075   0.046  0.00  0.00    -0.078 Cl
ATOM     11 CL   UNL     1      -1.647  -4.855  -0.021  0.00  0.00    -0.079 Cl
BRANCH   5  12
ATOM     12  N   UNL     1      -4.524  -5.725   0.014  0.00  0.00    -0.356 N 
ATOM     13  H   UNL     1      -5.546  -6.132   0.026  0.00  0.00    +0.142 HD
ATOM     14  H   UNL     1      -3.660  -6.407  -0.002  0.00  0.00    +0.142 HD
ENDBRANCH   5  12
ENDBRANCH   1   3
BRANCH   1  15
ATOM     15  O   UNL     1      -1.360  -0.507   0.012  0.00  0.00    -0.451 OA
BRANCH  15  16
ATOM     16  C   UNL     1       0.002  -0.004   0.002  0.00  0.00    +0.328 C 
BRANCH  16  18
ATOM     17  N   UNL     1       1.139   2.192   0.003  0.00  0.00    -0.295 N 
ATOM     18  C   UNL     1      -0.018   1.503   0.010  0.00  0.00    +0.252 C 
ATOM     19  O   UNL     1      -1.077   2.095   0.018  0.00  0.00    -0.272 OA
ATOM     20  H   UNL     1       2.099   1.655  -0.009  0.00  0.00    +0.150 HD
BRANCH  17  21
ATOM     21  C   UNL     1       1.120   3.657   0.011  0.00  0.00    +0.121 C 
ATOM     22  C   UNL     1       0.380   4.164  -1.228  0.00  0.00    +0.048 C 
BRANCH  21  24
ATOM     23  C   UNL     1       2.535   5.712  -0.117  0.00  0.00    +0.010 C 
ATOM     24  C   UNL     1       2.555   4.187   0.000  0.00  0.00    +0.020 C 
ATOM     25  C   UNL     1       3.257   3.784   1.299  0.00  0.00    +0.010 C 
ENDBRANCH  21  24
BRANCH  21  26
ATOM     26  C   UNL     1       0.431   4.132   1.222  0.00  0.00    +0.088 C 
ATOM     27  N   UNL     1      -0.101   4.498   2.157  0.00  0.00    -0.194 NA
ENDBRANCH  21  26
ENDBRANCH  17  21
ENDBRANCH  16  18
ENDBRANCH  15  16
ENDBRANCH   1  15
TORSDOF 8
