REMARK  Name = ZINC07646825
REMARK  10 active torsions:
REMARK  status: ('A' for Active; 'I' for Inactive)
REMARK    1  A    between atoms: C_1  and  N_2
REMARK    2  A    between atoms: N_2  and  C_3
REMARK    3  A    between atoms: N_2  and  S_4
REMARK    4  A    between atoms: S_4  and  C_7
REMARK    5  A    between atoms: C_11  and  N_13
REMARK    6  A    between atoms: C_14  and  C_16
REMARK    7  A    between atoms: C_16  and  O_17
REMARK    8  A    between atoms: O_17  and  C_18
REMARK    9  A    between atoms: C_18  and  C_20
REMARK   10  A    between atoms: C_20  and  C_21
REMARK                            x       y       z     vdW  Elec       q    Type
REMARK                         _______ _______ _______ _____ _____    ______ ____
ROOT
ATOM      1  N   UNL     1      -2.728   5.500   0.045  0.00  0.00    -0.283 N 
ATOM      2  C   UNL     1      -2.534   4.166   0.035  0.00  0.00    +0.255 C 
ATOM      3  O   UNL     1      -3.485   3.414   0.027  0.00  0.00    -0.272 OA
ATOM      4  H   UNL     1      -1.970   6.100   0.119  0.00  0.00    +0.155 HD
ENDROOT
BRANCH   1   9
ATOM      5  C   UNL     1      -6.365   5.863   0.444  0.00  0.00    +0.107 A 
ATOM      6  C   UNL     1      -6.587   7.043  -0.243  0.00  0.00    +0.028 A 
ATOM      7  C   UNL     1      -5.531   7.712  -0.834  0.00  0.00    +0.004 A 
ATOM      8  C   UNL     1      -4.250   7.205  -0.736  0.00  0.00    +0.023 A 
ATOM      9  C   UNL     1      -4.024   6.018  -0.052  0.00  0.00    +0.035 A 
ATOM     10  C   UNL     1      -5.088   5.349   0.541  0.00  0.00    +0.051 A 
BRANCH   5  11
ATOM     11  S   UNL     1      -7.715   5.016   1.196  0.00  0.00    +0.060 S 
ATOM     12  O   UNL     1      -8.886   5.416   0.497  0.00  0.00    -0.153 OA
ATOM     13  O   UNL     1      -7.325   3.654   1.313  0.00  0.00    -0.153 OA
BRANCH  11  15
ATOM     14  C   UNL     1      -8.721   6.756   3.006  0.00  0.00    +0.131 C 
ATOM     15  N   UNL     1      -7.861   5.600   2.739  0.00  0.00    -0.183 NA
ATOM     16  C   UNL     1      -7.131   4.961   3.836  0.00  0.00    +0.131 C 
ENDBRANCH  11  15
ENDBRANCH   5  11
ENDBRANCH   1   9
BRANCH   2  17
ATOM     17  C   UNL     1      -1.133   3.609   0.034  0.00  0.00    +0.328 C 
BRANCH  17  18
ATOM     18  O   UNL     1      -1.189   2.158   0.022  0.00  0.00    -0.455 OA
BRANCH  18  19
ATOM     19  C   UNL     1      -0.018   1.503   0.020  0.00  0.00    +0.308 C 
ATOM     20  O   UNL     1       1.020   2.121   0.022  0.00  0.00    -0.251 OA
BRANCH  19  21
ATOM     21  C   UNL     1       0.003  -0.004   0.008  0.00  0.00    +0.124 C 
BRANCH  21  22
ATOM     22  C   UNL     1       1.452  -0.494   0.001  0.00  0.00    +0.003 C 
ATOM     23  C   UNL     1       2.145  -0.108  -1.326  0.00  0.00    +0.008 C 
ATOM     24  C   UNL     1       2.545  -1.470  -1.972  0.00  0.00    -0.010 C 
ATOM     25  C   UNL     1       3.696  -2.007  -1.068  0.00  0.00    +0.004 C 
ATOM     26  C   UNL     1       3.003  -2.393   0.259  0.00  0.00    +0.004 C 
ATOM     27  C   UNL     1       1.499  -2.052   0.032  0.00  0.00    -0.007 C 
ATOM     28  C   UNL     1       1.355  -2.377  -1.497  0.00  0.00    +0.007 C 
ENDBRANCH  21  22
ENDBRANCH  19  21
ENDBRANCH  18  19
ENDBRANCH  17  18
ENDBRANCH   2  17
TORSDOF 8
