REMARK  Name = ZINC66545582
REMARK  12 active torsions:
REMARK  status: ('A' for Active; 'I' for Inactive)
REMARK    1  A    between atoms: C_1  and  C_2
REMARK    2  A    between atoms: C_2  and  O_3
REMARK    3  A    between atoms: O_3  and  C_4
REMARK    4  A    between atoms: C_4  and  C_6
REMARK    5  A    between atoms: C_6  and  C_7
REMARK    6  A    between atoms: C_6  and  C_8
REMARK    7  A    between atoms: C_6  and  N_9
REMARK    8  A    between atoms: C_10  and  C_12
REMARK    9  A    between atoms: C_12  and  N_13
REMARK   10  A    between atoms: C_18  and  C_25
REMARK   11  A    between atoms: C_21  and  C_23
REMARK   12  A    between atoms: C_21  and  C_24
REMARK                            x       y       z     vdW  Elec       q    Type
REMARK                         _______ _______ _______ _____ _____    ______ ____
ROOT
ATOM      1  N   UNL     1       2.120  -1.456  -7.277  0.00  0.00    -0.215 N 
ATOM      2  C   UNL     1       3.369  -1.116  -7.667  0.00  0.00    +0.247 C 
ATOM      3  O   UNL     1       4.038  -0.209  -7.223  0.00  0.00    -0.273 OA
ATOM      4  C   UNL     1       3.728  -2.095  -8.758  0.00  0.00    +0.113 C 
ATOM      5  C   UNL     1       4.252  -1.370  -9.988  0.00  0.00    +0.038 C 
ATOM      6  C   UNL     1       5.660  -0.837  -9.721  0.00  0.00    -0.011 C 
ATOM      7  C   UNL     1       6.586  -2.019  -9.443  0.00  0.00    +0.009 C 
ATOM      8  C   UNL     1       6.135  -2.788  -8.205  0.00  0.00    -0.032 C 
ATOM      9  C   UNL     1       4.668  -3.177  -8.263  0.00  0.00    +0.041 C 
ATOM     10  C   UNL     1       6.431  -1.972  -6.944  0.00  0.00    +0.011 C 
ATOM     11  C   UNL     1       6.971  -4.083  -8.126  0.00  0.00    +0.011 C 
ATOM     12  C   UNL     1       6.159  -0.083 -10.958  0.00  0.00    +0.007 C 
ATOM     13  N   UNL     1       2.425  -2.716  -9.089  0.00  0.00    -0.285 N 
ATOM     14  C   UNL     1       1.570  -2.333  -8.124  0.00  0.00    +0.310 C 
ATOM     15  O   UNL     1       0.427  -2.737  -8.031  0.00  0.00    -0.252 OA
ATOM     16  H   UNL     1       2.242  -3.282  -9.851  0.00  0.00    +0.151 HD
ENDROOT
BRANCH   1  17
ATOM     17  C   UNL     1       1.448  -0.912  -6.096  0.00  0.00    +0.213 C 
BRANCH  17  19
ATOM     18  N   UNL     1       1.201  -1.492  -3.704  0.00  0.00    -0.299 N 
ATOM     19  C   UNL     1       1.722  -1.798  -4.909  0.00  0.00    +0.232 C 
ATOM     20  O   UNL     1       2.412  -2.787  -5.037  0.00  0.00    -0.274 OA
ATOM     21  H   UNL     1       0.649  -0.701  -3.602  0.00  0.00    +0.150 HD
BRANCH  18  22
ATOM     22  C   UNL     1       1.468  -2.353  -2.550  0.00  0.00    +0.126 C 
ATOM     23  C   UNL     1       2.975  -2.413  -2.296  0.00  0.00    +0.043 C 
ATOM     24  C   UNL     1       0.942  -3.762  -2.833  0.00  0.00    +0.043 C 
BRANCH  22  25
ATOM     25  C   UNL     1       0.775  -1.794  -1.334  0.00  0.00    +0.330 C 
ATOM     26  O   UNL     1       0.314  -2.540  -0.504  0.00  0.00    -0.248 OA
BRANCH  25  27
ATOM     27  O   UNL     1       0.671  -0.465  -1.174  0.00  0.00    -0.463 OA
BRANCH  27  29
ATOM     28  C   UNL     1      -0.019   1.526   0.010  0.00  0.00    +0.048 C 
ATOM     29  C   UNL     1       0.002  -0.004   0.002  0.00  0.00    +0.229 C 
ENDBRANCH  27  29
ENDBRANCH  25  27
ENDBRANCH  22  25
ENDBRANCH  18  22
ENDBRANCH  17  19
ENDBRANCH   1  17
TORSDOF 6
