REMARK  Name = ZINC50732991
REMARK  12 active torsions:
REMARK  status: ('A' for Active; 'I' for Inactive)
REMARK    1  A    between atoms: C_1  and  C_2
REMARK    2  A    between atoms: C_2  and  C_3
REMARK    3  A    between atoms: C_3  and  C_4
REMARK    4  A    between atoms: C_4  and  C_6
REMARK    5  A    between atoms: C_4  and  N_7
REMARK    6  A    between atoms: C_8  and  C_10
REMARK    7  A    between atoms: C_17  and  C_19
REMARK    8  A    between atoms: C_19  and  S_20
REMARK    9  A    between atoms: S_20  and  C_21
REMARK   10  A    between atoms: N_25  and  C_26
REMARK   11  A    between atoms: C_26  and  C_27
REMARK   12  A    between atoms: C_26  and  C_28
REMARK                            x       y       z     vdW  Elec       q    Type
REMARK                         _______ _______ _______ _____ _____    ______ ____
ROOT
ATOM      1  C   UNL     1       0.343  -4.238  -2.611  0.00  0.00    +0.092 C 
ATOM      2  C   UNL     1       0.935  -5.635  -2.409  0.00  0.00    +0.016 C 
ATOM      3  C   UNL     1       1.568  -6.117  -3.716  0.00  0.00    +0.020 C 
ATOM      4  C   UNL     1       0.490  -6.202  -4.801  0.00  0.00    +0.108 C 
ATOM      5  N   UNL     1      -0.183  -4.899  -4.901  0.00  0.00    -0.300 N 
ATOM      6  C   UNL     1      -0.749  -4.300  -3.684  0.00  0.00    +0.120 C 
ATOM      7  C   UNL     1      -0.280  -4.265  -6.086  0.00  0.00    +0.226 C 
ATOM      8  O   UNL     1      -0.838  -3.191  -6.155  0.00  0.00    -0.275 OA
ENDROOT
BRANCH   1  10
ATOM      9  N   UNL     1      -0.834  -2.537  -1.256  0.00  0.00    -0.312 N 
ATOM     10  C   UNL     1      -0.252  -3.751  -1.315  0.00  0.00    +0.218 C 
ATOM     11  O   UNL     1      -0.206  -4.451  -0.326  0.00  0.00    -0.275 OA
ATOM     12  H   UNL     1      -0.871  -1.977  -2.047  0.00  0.00    +0.149 HD
BRANCH   9  13
ATOM     13  C   UNL     1      -1.413  -2.063   0.004  0.00  0.00    +0.070 C 
ATOM     14  C   UNL     1      -2.841  -2.594   0.141  0.00  0.00    +0.028 C 
BRANCH  13  15
ATOM     15  C   UNL     1      -1.433  -0.534   0.013  0.00  0.00    +0.022 C 
BRANCH  15  17
ATOM     16  C   UNL     1      -0.019   1.526   0.010  0.00  0.00    +0.004 C 
ATOM     17  C   UNL     1       0.002  -0.004   0.002  0.00  0.00    -0.002 C 
ENDBRANCH  15  17
ENDBRANCH  13  15
ENDBRANCH   9  13
ENDBRANCH   1  10
BRANCH   7  18
ATOM     18  C   UNL     1       0.306  -4.892  -7.325  0.00  0.00    +0.173 C 
BRANCH  18  19
ATOM     19  S   UNL     1       0.016  -3.804  -8.748  0.00  0.00    -0.077 S 
BRANCH  19  20
ATOM     20  C   UNL     1       0.749  -4.665 -10.099  0.00  0.00    +0.192 A 
ATOM     21  N   UNL     1       1.352  -5.829 -10.048  0.00  0.00    -0.123 NA
ATOM     22  N   UNL     1       1.767  -6.158 -11.219  0.00  0.00    -0.137 NA
ATOM     23  C   UNL     1       1.457  -5.231 -12.080  0.00  0.00    +0.226 A 
ATOM     24  N   UNL     1       0.792  -4.249 -11.399  0.00  0.00    -0.306 N 
BRANCH  24  25
ATOM     25  C   UNL     1       0.242  -3.007 -11.949  0.00  0.00    +0.084 C 
ATOM     26  C   UNL     1       1.370  -2.185 -12.576  0.00  0.00    +0.030 C 
ATOM     27  C   UNL     1      -0.801  -3.340 -13.018  0.00  0.00    +0.030 C 
ENDBRANCH  24  25
ENDBRANCH  19  20
ENDBRANCH  18  19
ENDBRANCH   7  18
TORSDOF 8
