REMARK  Name = ZINC14500835
REMARK  7 active torsions:
REMARK  status: ('A' for Active; 'I' for Inactive)
REMARK    1  A    between atoms: C_1  and  S_2
REMARK    2  A    between atoms: S_2  and  C_3
REMARK    3  A    between atoms: C_8  and  N_12
REMARK    4  A    between atoms: C_13  and  C_15
REMARK    5  A    between atoms: C_18  and  N_24
REMARK    6  A    between atoms: C_19  and  N_21
REMARK    7  A    between atoms: N_24  and  C_25
REMARK                            x       y       z     vdW  Elec       q    Type
REMARK                         _______ _______ _______ _____ _____    ______ ____
ROOT
ATOM      1  N   UNL     1      -0.782   3.754   0.021  0.00  0.00    -0.281 N 
ATOM      2  C   UNL     1      -0.986   2.422   0.037  0.00  0.00    +0.248 C 
ATOM      3  O   UNL     1      -2.119   1.980   0.074  0.00  0.00    -0.270 OA
ATOM      4  H   UNL     1       0.119   4.107   0.077  0.00  0.00    +0.155 HD
ENDROOT
BRANCH   1  10
ATOM      5  C   UNL     1      -6.248   6.675  -0.998  0.00  0.00    +0.135 A 
ATOM      6  N   UNL     1      -5.168   7.147  -0.417  0.00  0.00    -0.233 NA
ATOM      7  C   UNL     1      -4.047   6.408  -0.259  0.00  0.00    +0.080 A 
ATOM      8  C   UNL     1      -2.827   6.792   0.344  0.00  0.00    +0.031 A 
ATOM      9  C   UNL     1      -1.784   5.924   0.426  0.00  0.00    +0.025 A 
ATOM     10  C   UNL     1      -1.872   4.628  -0.076  0.00  0.00    +0.035 A 
ATOM     11  C   UNL     1      -3.053   4.215  -0.680  0.00  0.00    +0.040 A 
ATOM     12  C   UNL     1      -4.109   5.088  -0.760  0.00  0.00    +0.042 A 
ATOM     13  S   UNL     1      -5.759   5.007  -1.415  0.00  0.00    -0.061 S 
BRANCH   5  15
ATOM     14  C   UNL     1      -7.435   9.103  -0.571  0.00  0.00    +0.092 C 
ATOM     15  S   UNL     1      -7.787   7.481  -1.292  0.00  0.00    -0.102 S 
ENDBRANCH   5  15
ENDBRANCH   1  10
BRANCH   2  16
ATOM     16  C   UNL     1       0.164   1.499   0.011  0.00  0.00    +0.039 A 
ATOM     17  C   UNL     1       1.467   2.005  -0.037  0.00  0.00    +0.015 A 
ATOM     18  C   UNL     1       2.538   1.141  -0.068  0.00  0.00    +0.026 A 
ATOM     19  C   UNL     1       2.325  -0.235  -0.051  0.00  0.00    +0.058 A 
ATOM     20  C   UNL     1       1.030  -0.741  -0.004  0.00  0.00    +0.148 A 
ATOM     21  C   UNL     1      -0.046   0.117   0.027  0.00  0.00    +0.047 A 
BRANCH  20  22
ATOM     22  N   UNL     1       0.808  -2.205   0.015  0.00  0.00    +0.058 N 
ATOM     23  O   UNL     1      -0.317  -2.649   0.155  0.00  0.00    -0.126 OA
ATOM     24  O   UNL     1       1.752  -2.965  -0.111  0.00  0.00    -0.126 OA
ENDBRANCH  20  22
BRANCH  19  25
ATOM     25  N   UNL     1       3.410  -1.105  -0.083  0.00  0.00    -0.339 N 
ATOM     26  H   UNL     1       3.262  -2.061  -0.151  0.00  0.00    +0.146 HD
BRANCH  25  27
ATOM     27  C   UNL     1       4.774  -0.577  -0.013  0.00  0.00    +0.071 C 
ATOM     28  C   UNL     1       5.783  -1.088  -1.043  0.00  0.00    +0.024 C 
ATOM     29  C   UNL     1       5.883  -1.540   0.415  0.00  0.00    +0.024 C 
ENDBRANCH  25  27
ENDBRANCH  19  25
ENDBRANCH   2  16
TORSDOF 6
