REMARK  Name = ZINC09644984
REMARK  7 active torsions:
REMARK  status: ('A' for Active; 'I' for Inactive)
REMARK    1  A    between atoms: C_4  and  C_7
REMARK    2  A    between atoms: C_7  and  C_9
REMARK    3  A    between atoms: C_7  and  O_22
REMARK    4  A    between atoms: N_11  and  C_12
REMARK    5  A    between atoms: C_16  and  N_18
REMARK    6  A    between atoms: O_22  and  C_23
REMARK    7  A    between atoms: C_23  and  C_25
REMARK                            x       y       z     vdW  Elec       q    Type
REMARK                         _______ _______ _______ _____ _____    ______ ____
ROOT
ATOM      1  C   UNL     1      -2.478  -2.828  -0.206  0.00  0.00    +0.292 C 
ENDROOT
BRANCH   1   5
ATOM      2  C   UNL     1      -4.693  -2.385   3.420  0.00  0.00    +0.000 A 
ATOM      3  C   UNL     1      -5.014  -1.618   2.316  0.00  0.00    +0.000 A 
ATOM      4  C   UNL     1      -4.298  -1.762   1.143  0.00  0.00    +0.008 A 
ATOM      5  C   UNL     1      -3.260  -2.672   1.073  0.00  0.00    +0.002 A 
ATOM      6  C   UNL     1      -2.942  -3.442   2.176  0.00  0.00    +0.008 A 
ATOM      7  C   UNL     1      -3.655  -3.296   3.351  0.00  0.00    +0.000 A 
ENDBRANCH   1   5
BRANCH   1   8
ATOM      8  C   UNL     1      -1.183  -2.065  -0.100  0.00  0.00    +0.263 C 
ATOM      9  O   UNL     1      -0.126  -2.659  -0.113  0.00  0.00    -0.271 OA
ATOM     10  N   UNL     1      -1.200  -0.722   0.009  0.00  0.00    -0.282 N 
ATOM     11  H   UNL     1      -2.044  -0.252   0.097  0.00  0.00    +0.155 HD
BRANCH  10  12
ATOM     12  C   UNL     1       0.002  -0.004  -0.004  0.00  0.00    +0.036 A 
ATOM     13  C   UNL     1       0.126   1.158   0.747  0.00  0.00    +0.025 A 
ATOM     14  C   UNL     1       1.312   1.865   0.733  0.00  0.00    +0.024 A 
ATOM     15  C   UNL     1       2.377   1.415  -0.028  0.00  0.00    +0.071 A 
ATOM     16  C   UNL     1       2.256   0.258  -0.777  0.00  0.00    +0.146 A 
ATOM     17  C   UNL     1       1.072  -0.452  -0.766  0.00  0.00    +0.057 A 
ATOM     18 CL   UNL     1       3.868   2.305  -0.044  0.00  0.00    -0.081 Cl
BRANCH  16  19
ATOM     19  N   UNL     1       3.398  -0.220  -1.590  0.00  0.00    +0.058 N 
ATOM     20  O   UNL     1       3.292  -1.238  -2.249  0.00  0.00    -0.126 OA
ATOM     21  O   UNL     1       4.442   0.406  -1.599  0.00  0.00    -0.126 OA
ENDBRANCH  16  19
ENDBRANCH  10  12
ENDBRANCH   1   8
BRANCH   1  22
ATOM     22  O   UNL     1      -2.195  -4.234  -0.431  0.00  0.00    -0.442 OA
BRANCH  22  23
ATOM     23  C   UNL     1      -3.101  -4.935  -1.139  0.00  0.00    +0.360 C 
ATOM     24  O   UNL     1      -4.101  -4.387  -1.556  0.00  0.00    -0.243 OA
BRANCH  23  25
ATOM     25  C   UNL     1      -2.878  -6.373  -1.407  0.00  0.00    +0.167 A 
ATOM     26  C   UNL     1      -3.820  -7.094  -2.141  0.00  0.00    +0.073 A 
ATOM     27  C   UNL     1      -3.597  -8.442  -2.385  0.00  0.00    +0.025 A 
ATOM     28  C   UNL     1      -2.441  -9.021  -1.887  0.00  0.00    +0.041 A 
ATOM     29  C   UNL     1      -1.547  -8.243  -1.165  0.00  0.00    +0.130 A 
ATOM     30  N   UNL     1      -1.780  -6.966  -0.952  0.00  0.00    -0.227 NA
ATOM     31 CL   UNL     1      -0.097  -8.964  -0.540  0.00  0.00    -0.062 Cl
ATOM     32 CL   UNL     1      -5.252  -6.316  -2.740  0.00  0.00    -0.081 Cl
ENDBRANCH  23  25
ENDBRANCH  22  23
ENDBRANCH   1  22
TORSDOF 7
