REMARK  Name = ZINC06860435
REMARK  10 active torsions:
REMARK  status: ('A' for Active; 'I' for Inactive)
REMARK    1  A    between atoms: C_1  and  C_2
REMARK    2  A    between atoms: C_2  and  C_3
REMARK    3  A    between atoms: C_7  and  C_30
REMARK    4  A    between atoms: C_8  and  N_9
REMARK    5  A    between atoms: C_10  and  C_12
REMARK    6  A    between atoms: C_12  and  S_13
REMARK    7  A    between atoms: S_13  and  C_14
REMARK    8  A    between atoms: C_20  and  C_27
REMARK    9  A    between atoms: C_22  and  C_26
REMARK   10  A    between atoms: C_30  and  C_31
REMARK                            x       y       z     vdW  Elec       q    Type
REMARK                         _______ _______ _______ _____ _____    ______ ____
ROOT
ATOM      1  S   UNL     1      -0.226  -1.798   6.183  0.00  0.00    -0.075 S 
ENDROOT
BRANCH   1   2
ATOM      2  C   UNL     1      -0.160  -0.891   7.692  0.00  0.00    +0.212 A 
ATOM      3  N   UNL     1      -0.380  -1.520   8.839  0.00  0.00    -0.201 NA
ATOM      4  C   UNL     1      -0.326  -0.836   9.977  0.00  0.00    +0.162 A 
ATOM      5  C   UNL     1      -0.044   0.545   9.914  0.00  0.00    +0.137 A 
ATOM      6  C   UNL     1      -0.054   1.033  11.304  0.00  0.00    +0.030 A 
ATOM      7  C   UNL     1       0.151   2.282  11.884  0.00  0.00    +0.015 A 
ATOM      8  C   UNL     1       0.072   2.423  13.253  0.00  0.00    -0.049 A 
ATOM      9  C   UNL     1      -0.210   1.326  14.053  0.00  0.00    +0.008 A 
ATOM     10  C   UNL     1      -0.416   0.084  13.491  0.00  0.00    -0.026 A 
ATOM     11  C   UNL     1      -0.340  -0.079  12.112  0.00  0.00    +0.053 A 
ATOM     12  N   UNL     1      -0.499  -1.185  11.293  0.00  0.00    -0.337 N 
ATOM     13  H   UNL     1      -0.729  -2.227  11.560  0.00  0.00    +0.167 HD
ATOM     14  C   UNL     1      -0.723  -1.099  14.373  0.00  0.00    +0.046 C 
ATOM     15  C   UNL     1       0.294   3.774  13.883  0.00  0.00    +0.044 C 
ATOM     16  N   UNL     1       0.162   1.115   8.736  0.00  0.00    -0.143 NA
ATOM     17  N   UNL     1       0.104   0.411   7.659  0.00  0.00    -0.122 NA
ENDBRANCH   1   2
BRANCH   1  18
ATOM     18  C   UNL     1       0.132  -0.473   5.003  0.00  0.00    +0.173 C 
BRANCH  18  20
ATOM     19  N   UNL     1       0.371  -0.221   2.554  0.00  0.00    -0.284 N 
ATOM     20  C   UNL     1       0.128  -1.031   3.603  0.00  0.00    +0.228 C 
ATOM     21  O   UNL     1      -0.095  -2.209   3.421  0.00  0.00    -0.275 OA
ATOM     22  H   UNL     1       0.653   0.829   2.724  0.00  0.00    +0.155 HD
BRANCH  19  28
ATOM     23  C   UNL     1      -0.967  -0.738   0.611  0.00  0.00    -0.026 A 
ATOM     24  C   UNL     1      -1.069  -1.232  -0.674  0.00  0.00    +0.005 A 
ATOM     25  C   UNL     1       0.057  -1.694  -1.330  0.00  0.00    +0.001 A 
ATOM     26  C   UNL     1       1.287  -1.672  -0.698  0.00  0.00    +0.005 A 
ATOM     27  C   UNL     1       1.394  -1.184   0.590  0.00  0.00    -0.026 A 
ATOM     28  C   UNL     1       0.266  -0.715   1.250  0.00  0.00    +0.040 A 
BRANCH  23  30
ATOM     29  C   UNL     1      -2.296   1.287   1.146  0.00  0.00    +0.009 C 
ATOM     30  C   UNL     1      -2.195  -0.229   1.323  0.00  0.00    +0.033 C 
ENDBRANCH  23  30
BRANCH  27  31
ATOM     31  C   UNL     1       2.735  -1.162   1.279  0.00  0.00    +0.033 C 
ATOM     32  C   UNL     1       2.881  -2.412   2.149  0.00  0.00    +0.009 C 
ENDBRANCH  27  31
ENDBRANCH  19  28
ENDBRANCH  18  20
ENDBRANCH   1  18
TORSDOF 6
