REMARK  Name = ZINC01068535
REMARK  8 active torsions:
REMARK  status: ('A' for Active; 'I' for Inactive)
REMARK    1  A    between atoms: C_1  and  C_2
REMARK    2  A    between atoms: C_6  and  C_10
REMARK    3  A    between atoms: C_7  and  O_8
REMARK    4  A    between atoms: O_8  and  C_9
REMARK    5  A    between atoms: N_12  and  C_13
REMARK    6  A    between atoms: C_13  and  N_15
REMARK    7  A    between atoms: N_15  and  C_16
REMARK    8  A    between atoms: C_21  and  N_22
REMARK                            x       y       z     vdW  Elec       q    Type
REMARK                         _______ _______ _______ _____ _____    ______ ____
ROOT
ATOM      1  C   UNL     1       1.215   4.018   3.804  0.00  0.00    +0.141 C 
ATOM      2  S   UNL     1       2.150   3.367   5.082  0.00  0.00    -0.018 S 
ENDROOT
BRANCH   1   5
ATOM      3  C   UNL     1       1.865   6.172   4.426  0.00  0.00    +0.253 C 
ATOM      4  O   UNL     1       2.529   5.710   5.333  0.00  0.00    -0.270 OA
ATOM      5  N   UNL     1       1.171   5.352   3.612  0.00  0.00    -0.263 N 
ATOM      6  H   UNL     1       0.641   5.721   2.888  0.00  0.00    +0.157 HD
BRANCH   3  12
ATOM      7  C   UNL     1       3.255  10.786   5.758  0.00  0.00    +0.047 C 
ATOM      8  C   UNL     1       2.484   9.859   4.854  0.00  0.00    -0.008 A 
ATOM      9  C   UNL     1       1.727  10.375   3.821  0.00  0.00    +0.007 A 
ATOM     10  C   UNL     1       1.015   9.531   2.984  0.00  0.00    +0.001 A 
ATOM     11  C   UNL     1       1.055   8.167   3.175  0.00  0.00    +0.017 A 
ATOM     12  C   UNL     1       1.817   7.631   4.216  0.00  0.00    +0.079 A 
ATOM     13  C   UNL     1       2.532   8.489   5.064  0.00  0.00    +0.135 A 
BRANCH  13  14
ATOM     14  O   UNL     1       3.272   7.981   6.082  0.00  0.00    -0.494 OA
ATOM     15  C   UNL     1       4.634   7.660   5.796  0.00  0.00    +0.277 C 
ENDBRANCH  13  14
ENDBRANCH   3  12
ENDBRANCH   1   5
BRANCH   1  16
ATOM     16  N   UNL     1       0.521   3.197   2.990  0.00  0.00    -0.295 N 
ATOM     17  H   UNL     1       0.053   3.559   2.221  0.00  0.00    +0.154 HD
BRANCH  16  18
ATOM     18  C   UNL     1       0.477   1.822   3.255  0.00  0.00    +0.055 A 
ATOM     19  C   UNL     1       1.624   1.154   3.658  0.00  0.00    +0.025 A 
ATOM     20  C   UNL     1       1.580  -0.203   3.914  0.00  0.00    +0.003 A 
ATOM     21  C   UNL     1       0.393  -0.900   3.774  0.00  0.00    +0.022 A 
ATOM     22  C   UNL     1      -0.757  -0.241   3.377  0.00  0.00    +0.064 A 
ATOM     23  C   UNL     1      -0.721   1.122   3.119  0.00  0.00    +0.070 A 
ATOM     24 CL   UNL     1      -2.244  -1.119   3.204  0.00  0.00    -0.082 Cl
BRANCH  23  25
ATOM     25  N   UNL     1      -1.883   1.792   2.717  0.00  0.00    -0.327 N 
ATOM     26  C   UNL     1      -2.912   1.735   3.764  0.00  0.00    +0.105 C 
ATOM     27  C   UNL     1      -4.108   2.596   3.352  0.00  0.00    +0.019 C 
ATOM     28  C   UNL     1      -4.673   2.076   2.027  0.00  0.00    +0.003 C 
ATOM     29  C   UNL     1      -3.569   2.100   0.967  0.00  0.00    +0.019 C 
ATOM     30  C   UNL     1      -2.388   1.254   1.447  0.00  0.00    +0.105 C 
ENDBRANCH  23  25
ENDBRANCH  16  18
ENDBRANCH   1  16
TORSDOF 6
