REMARK  Name = ZINC16626208
REMARK  9 active torsions:
REMARK  status: ('A' for Active; 'I' for Inactive)
REMARK    1  A    between atoms: C_1  and  C_2
REMARK    2  A    between atoms: C_5  and  C_14
REMARK    3  A    between atoms: C_7  and  N_8
REMARK    4  A    between atoms: C_9  and  C_11
REMARK    5  A    between atoms: C_11  and  C_12
REMARK    6  A    between atoms: C_11  and  C_13
REMARK    7  A    between atoms: N_19  and  C_21
REMARK    8  A    between atoms: C_21  and  C_22
REMARK    9  A    between atoms: N_24  and  C_25
REMARK                            x       y       z     vdW  Elec       q    Type
REMARK                         _______ _______ _______ _____ _____    ______ ____
ROOT
ATOM      1  C   UNL     1      -7.385   3.059   1.684  0.00  0.00    +0.092 A 
ATOM      2  C   UNL     1      -8.093   3.554   0.564  0.00  0.00    +0.035 A 
ATOM      3  C   UNL     1      -7.706   3.141  -0.677  0.00  0.00    +0.074 A 
ATOM      4  C   UNL     1      -6.616   2.247  -0.767  0.00  0.00    +0.268 A 
ATOM      5  O   UNL     1      -6.231   1.854  -1.856  0.00  0.00    -0.266 OA
ATOM      6  N   UNL     1      -6.008   1.828   0.359  0.00  0.00    -0.220 N 
ATOM      7  N   UNL     1      -6.385   2.226   1.520  0.00  0.00    -0.168 NA
ENDROOT
BRANCH   1  12
ATOM      8  C   UNL     1      -8.913   4.717   6.989  0.00  0.00    +0.045 C 
ATOM      9  C   UNL     1      -8.513   4.282   5.603  0.00  0.00    -0.029 A 
ATOM     10  C   UNL     1      -9.200   4.762   4.504  0.00  0.00    +0.006 A 
ATOM     11  C   UNL     1      -8.838   4.368   3.232  0.00  0.00    +0.010 A 
ATOM     12  C   UNL     1      -7.776   3.483   3.051  0.00  0.00    +0.004 A 
ATOM     13  C   UNL     1      -7.086   2.995   4.158  0.00  0.00    +0.033 A 
ATOM     14  C   UNL     1      -7.453   3.400   5.432  0.00  0.00    +0.037 A 
BRANCH  14  15
ATOM     15  N   UNL     1      -6.760   2.916   6.547  0.00  0.00    -0.285 N 
ATOM     16  C   UNL     1      -5.435   2.681   6.467  0.00  0.00    +0.220 C 
ATOM     17  O   UNL     1      -4.859   2.808   5.407  0.00  0.00    -0.275 OA
ATOM     18  H   UNL     1      -7.232   2.749   7.378  0.00  0.00    +0.155 HD
BRANCH  16  19
ATOM     19  C   UNL     1      -4.669   2.259   7.694  0.00  0.00    +0.069 C 
ATOM     20  C   UNL     1      -5.245   0.947   8.230  0.00  0.00    +0.017 C 
ATOM     21  C   UNL     1      -3.196   2.059   7.332  0.00  0.00    +0.017 C 
ENDBRANCH  16  19
ENDBRANCH  14  15
ENDBRANCH   1  12
BRANCH   6  22
ATOM     22  C   UNL     1      -4.881   0.897   0.256  0.00  0.00    +0.243 C 
BRANCH  22  23
ATOM     23  C   UNL     1      -3.596   1.675   0.136  0.00  0.00    +0.239 C 
ATOM     24  O   UNL     1      -3.619   2.887   0.137  0.00  0.00    -0.273 OA
ATOM     25  N   UNL     1      -2.422   1.023   0.029  0.00  0.00    -0.284 N 
ATOM     26  H   UNL     1      -2.409   0.057  -0.057  0.00  0.00    +0.155 HD
BRANCH  25  27
ATOM     27  C   UNL     1      -1.220   1.739   0.041  0.00  0.00    +0.036 A 
ATOM     28  C   UNL     1      -1.152   2.973   0.676  0.00  0.00    +0.023 A 
ATOM     29  C   UNL     1       0.036   3.676   0.691  0.00  0.00    +0.005 A 
ATOM     30  C   UNL     1       1.158   3.157   0.071  0.00  0.00    +0.038 A 
ATOM     31  C   UNL     1       1.093   1.931  -0.569  0.00  0.00    +0.125 A 
ATOM     32  C   UNL     1      -0.095   1.222  -0.587  0.00  0.00    +0.061 A 
ATOM     33  F   UNL     1       2.190   1.426  -1.174  0.00  0.00    -0.205 F 
ENDBRANCH  25  27
ENDBRANCH  22  23
ENDBRANCH   6  22
TORSDOF 6
