REMARK  Name = ZINC39695962
REMARK  11 active torsions:
REMARK  status: ('A' for Active; 'I' for Inactive)
REMARK    1  A    between atoms: C_1  and  C_2
REMARK    2  A    between atoms: C_2  and  C_3
REMARK    3  A    between atoms: C_6  and  C_9
REMARK    4  A    between atoms: C_9  and  C_11
REMARK    5  A    between atoms: C_9  and  N_12
REMARK    6  A    between atoms: C_13  and  C_15
REMARK    7  A    between atoms: C_26  and  C_28
REMARK    8  A    between atoms: C_31  and  O_36
REMARK    9  A    between atoms: C_32  and  O_34
REMARK   10  A    between atoms: O_34  and  C_35
REMARK   11  A    between atoms: O_36  and  C_37
REMARK                            x       y       z     vdW  Elec       q    Type
REMARK                         _______ _______ _______ _____ _____    ______ ____
ROOT
ATOM      1  C   UNL     1       1.989  -4.383   7.178  0.00  0.00    +0.100 C 
ATOM      2  C   UNL     1       0.869  -3.976   8.162  0.00  0.00    +0.121 C 
ATOM      3  N   UNL     1       0.879  -5.035   9.199  0.00  0.00    -0.296 N 
ATOM      4  C   UNL     1       2.317  -5.328   9.413  0.00  0.00    +0.115 C 
ATOM      5  C   UNL     1       2.937  -5.269   8.003  0.00  0.00    -0.004 C 
ATOM      6  C   UNL     1       4.327  -4.643   8.064  0.00  0.00    -0.010 C 
ATOM      7  C   UNL     1       5.266  -5.570   8.840  0.00  0.00    -0.082 C 
ATOM      8  N   UNL     1       5.326  -6.877   8.175  0.00  0.00    +0.379 N 
ATOM      9  C   UNL     1       4.004  -7.514   8.203  0.00  0.00    -0.082 C 
ATOM     10  C   UNL     1       3.011  -6.669   7.400  0.00  0.00    -0.010 C 
ATOM     11  C   UNL     1      -0.180  -5.604   9.809  0.00  0.00    +0.247 C 
ATOM     12  O   UNL     1      -1.307  -5.348   9.433  0.00  0.00    -0.270 OA
ATOM     13  H   UNL     1       5.618  -6.753   7.217  0.00  0.00    -0.086 HD
ATOM     14  H   UNL     1       5.992  -7.466   8.652  0.00  0.00    -0.086 HD
ENDROOT
BRANCH  11  15
ATOM     15  C   UNL     1       0.030  -6.537  10.934  0.00  0.00    +0.041 A 
ATOM     16  C   UNL     1       1.228  -6.511  11.651  0.00  0.00    +0.017 A 
ATOM     17  C   UNL     1       1.422  -7.382  12.700  0.00  0.00    +0.050 A 
ATOM     18  C   UNL     1       0.429  -8.287  13.048  0.00  0.00    +0.162 A 
ATOM     19  C   UNL     1      -0.769  -8.319  12.336  0.00  0.00    +0.162 A 
ATOM     20  C   UNL     1      -0.972  -7.444  11.287  0.00  0.00    +0.062 A 
BRANCH  19  21
ATOM     21  O   UNL     1      -1.740  -9.207  12.678  0.00  0.00    -0.491 OA
ATOM     22  C   UNL     1      -2.942  -9.184  11.906  0.00  0.00    +0.277 C 
ENDBRANCH  19  21
BRANCH  18  23
ATOM     23  O   UNL     1       0.625  -9.144  14.083  0.00  0.00    -0.491 OA
ATOM     24  C   UNL     1       1.876  -9.058  14.768  0.00  0.00    +0.277 C 
ENDBRANCH  18  23
ENDBRANCH  11  15
BRANCH   1  26
ATOM     25  N   UNL     1       3.265  -3.163   5.446  0.00  0.00    -0.308 N 
ATOM     26  C   UNL     1       2.716  -3.162   6.676  0.00  0.00    +0.219 C 
ATOM     27  O   UNL     1       2.806  -2.178   7.380  0.00  0.00    -0.275 OA
ATOM     28  H   UNL     1       3.193  -3.950   4.883  0.00  0.00    +0.149 HD
BRANCH  25  29
ATOM     29  C   UNL     1       3.972  -1.976   4.958  0.00  0.00    +0.100 C 
ATOM     30  C   UNL     1       2.966  -0.999   4.347  0.00  0.00    +0.033 C 
BRANCH  29  34
ATOM     31  C   UNL     1       6.816  -3.134   1.988  0.00  0.00    -0.048 A 
ATOM     32  C   UNL     1       7.143  -2.163   2.917  0.00  0.00    +0.004 A 
ATOM     33  C   UNL     1       6.222  -1.788   3.877  0.00  0.00    +0.006 A 
ATOM     34  C   UNL     1       4.975  -2.384   3.910  0.00  0.00    -0.027 A 
ATOM     35  C   UNL     1       4.649  -3.355   2.981  0.00  0.00    +0.006 A 
ATOM     36  C   UNL     1       5.568  -3.727   2.018  0.00  0.00    +0.004 A 
BRANCH  31  38
ATOM     37  C   UNL     1       7.654  -2.659  -0.297  0.00  0.00    +0.009 C 
ATOM     38  C   UNL     1       7.820  -3.543   0.941  0.00  0.00    +0.032 C 
ENDBRANCH  31  38
ENDBRANCH  29  34
ENDBRANCH  25  29
ENDBRANCH   1  26
TORSDOF 7
