REMARK  Name = ZINC21657950
REMARK  5 active torsions:
REMARK  status: ('A' for Active; 'I' for Inactive)
REMARK    1  A    between atoms: C_4  and  C_7
REMARK    2  A    between atoms: C_14  and  S_19
REMARK    3  A    between atoms: S_19  and  C_20
REMARK    4  A    between atoms: C_20  and  C_21
REMARK    5  A    between atoms: C_23  and  C_26
REMARK                            x       y       z     vdW  Elec       q    Type
REMARK                         _______ _______ _______ _____ _____    ______ ____
ROOT
ATOM      1  C   UNL     1       3.698  -0.688  -0.038  0.00  0.00    +0.026 A 
ATOM      2  C   UNL     1       4.743  -0.461  -0.881  0.00  0.00    +0.093 A 
ATOM      3  N   UNL     1       5.755  -1.318  -0.593  0.00  0.00    -0.355 N 
ATOM      4  H   UNL     1       6.606  -1.350  -1.057  0.00  0.00    +0.166 HD
ATOM      5  C   UNL     1       5.396  -2.137   0.456  0.00  0.00    +0.131 A 
ATOM      6  C   UNL     1       4.103  -1.778   0.852  0.00  0.00    +0.104 A 
ATOM      7  N   UNL     1       3.511  -2.424   1.870  0.00  0.00    -0.221 NA
ATOM      8  C   UNL     1       4.131  -3.392   2.507  0.00  0.00    +0.170 A 
ATOM      9  N   UNL     1       5.394  -3.782   2.165  0.00  0.00    -0.300 N 
ATOM     10  H   UNL     1       5.825  -4.500   2.654  0.00  0.00    +0.171 HD
ATOM     11  C   UNL     1       6.045  -3.180   1.146  0.00  0.00    +0.276 A 
ATOM     12  O   UNL     1       7.174  -3.523   0.838  0.00  0.00    -0.266 OA
ENDROOT
BRANCH   1  16
ATOM     13  C   UNL     1      -0.017   1.379   0.010  0.00  0.00    +0.000 A 
ATOM     14  C   UNL     1       1.169   2.092   0.002  0.00  0.00    +0.001 A 
ATOM     15  C   UNL     1       2.377   1.427  -0.013  0.00  0.00    +0.008 A 
ATOM     16  C   UNL     1       2.402   0.033  -0.021  0.00  0.00    -0.014 A 
ATOM     17  C   UNL     1       1.205  -0.680  -0.013  0.00  0.00    +0.008 A 
ATOM     18  C   UNL     1       0.002  -0.004   0.002  0.00  0.00    +0.001 A 
ENDBRANCH   1  16
BRANCH   8  19
ATOM     19  S   UNL     1       3.311  -4.208   3.836  0.00  0.00    -0.078 S 
BRANCH  19  20
ATOM     20  C   UNL     1       1.699  -3.381   3.931  0.00  0.00    +0.176 C 
BRANCH  20  21
ATOM     21  C   UNL     1       0.886  -3.991   5.043  0.00  0.00    +0.238 A 
ATOM     22  N   UNL     1       0.873  -3.592   6.282  0.00  0.00    -0.190 NA
ATOM     23  C   UNL     1       0.037  -4.361   7.006  0.00  0.00    +0.209 A 
ATOM     24  N   UNL     1      -0.491  -5.264   6.213  0.00  0.00    -0.056 NA
ATOM     25  O   UNL     1       0.051  -5.031   4.921  0.00  0.00    -0.337 OA
BRANCH  23  26
ATOM     26  C   UNL     1      -0.240  -4.213   8.449  0.00  0.00    +0.060 A 
ATOM     27  C   UNL     1      -1.068  -4.955   9.250  0.00  0.00    +0.019 A 
ATOM     28  C   UNL     1      -1.167  -4.627  10.583  0.00  0.00    +0.008 A 
ATOM     29  C   UNL     1      -0.444  -3.583  11.064  0.00  0.00    +0.046 A 
ATOM     30  S   UNL     1       0.423  -3.025   9.606  0.00  0.00    -0.093 S 
ENDBRANCH  23  26
ENDBRANCH  20  21
ENDBRANCH  19  20
ENDBRANCH   8  19
TORSDOF 5
