REMARK  Name = ZINC66709911
REMARK  10 active torsions:
REMARK  status: ('A' for Active; 'I' for Inactive)
REMARK    1  A    between atoms: C_1  and  C_2
REMARK    2  A    between atoms: C_6  and  C_23
REMARK    3  A    between atoms: C_10  and  C_12
REMARK    4  A    between atoms: C_12  and  C_14
REMARK    5  A    between atoms: C_12  and  N_15
REMARK    6  A    between atoms: C_16  and  O_18
REMARK    7  A    between atoms: O_18  and  C_19
REMARK    8  A    between atoms: C_19  and  C_20
REMARK    9  A    between atoms: C_19  and  C_21
REMARK   10  A    between atoms: C_19  and  C_22
REMARK                            x       y       z     vdW  Elec       q    Type
REMARK                         _______ _______ _______ _____ _____    ______ ____
ROOT
ATOM      1  C   UNL     1      -0.659   0.786   0.200  0.00  0.00    +0.030 C 
ATOM      2  C   UNL     1      -0.219  -0.676   0.303  0.00  0.00    +0.099 C 
ATOM      3  C   UNL     1      -1.435  -1.561   0.603  0.00  0.00    +0.182 C 
ATOM      4  O   UNL     1      -1.918  -1.268   1.917  0.00  0.00    -0.369 OA
ATOM      5  C   UNL     1      -0.982  -1.550   2.960  0.00  0.00    +0.166 C 
ATOM      6  C   UNL     1       0.256  -0.665   2.781  0.00  0.00    +0.144 C 
ATOM      7  N   UNL     1       0.747  -0.826   1.403  0.00  0.00    -0.292 N 
ATOM      8  C   UNL     1       2.043  -1.104   1.154  0.00  0.00    +0.236 C 
ATOM      9  O   UNL     1       2.842  -1.130   2.066  0.00  0.00    -0.274 OA
ENDROOT
BRANCH   5  10
ATOM     10  C   UNL     1      -1.618  -1.264   4.296  0.00  0.00    -0.017 A 
ATOM     11  C   UNL     1      -2.512  -0.218   4.427  0.00  0.00    +0.006 A 
ATOM     12  C   UNL     1      -3.095   0.044   5.652  0.00  0.00    +0.000 A 
ATOM     13  C   UNL     1      -2.784  -0.740   6.748  0.00  0.00    +0.000 A 
ATOM     14  C   UNL     1      -1.890  -1.786   6.617  0.00  0.00    +0.000 A 
ATOM     15  C   UNL     1      -1.311  -2.051   5.391  0.00  0.00    +0.006 A 
ENDBRANCH   5  10
BRANCH   8  16
ATOM     16  C   UNL     1       2.497  -1.381  -0.256  0.00  0.00    +0.159 C 
ATOM     17  C   UNL     1       2.798  -0.058  -0.964  0.00  0.00    +0.038 C 
BRANCH  16  18
ATOM     18  N   UNL     1       3.708  -2.205  -0.225  0.00  0.00    -0.270 N 
ATOM     19  C   UNL     1       4.017  -2.987  -1.278  0.00  0.00    +0.401 C 
ATOM     20  O   UNL     1       3.291  -3.010  -2.252  0.00  0.00    -0.226 OA
ATOM     21  H   UNL     1       4.287  -2.187   0.553  0.00  0.00    +0.153 HD
BRANCH  19  22
ATOM     22  O   UNL     1       5.130  -3.745  -1.250  0.00  0.00    -0.445 OA
BRANCH  22  23
ATOM     23  C   UNL     1       5.396  -4.550  -2.400  0.00  0.00    +0.107 C 
ATOM     24  C   UNL     1       5.541  -3.651  -3.630  0.00  0.00    +0.055 C 
ATOM     25  C   UNL     1       6.692  -5.334  -2.186  0.00  0.00    +0.055 C 
ATOM     26  C   UNL     1       4.239  -5.527  -2.617  0.00  0.00    +0.055 C 
ENDBRANCH  22  23
ENDBRANCH  19  22
ENDBRANCH  16  18
ENDBRANCH   8  16
TORSDOF 5
