REMARK  Name = ZINC09491812
REMARK  10 active torsions:
REMARK  status: ('A' for Active; 'I' for Inactive)
REMARK    1  A    between atoms: C_1  and  C_2
REMARK    2  A    between atoms: C_2  and  N_66
REMARK    3  A    between atoms: C_3  and  C_4
REMARK    4  A    between atoms: C_3  and  N_66
REMARK    5  A    between atoms: C_16  and  C_17
REMARK    6  A    between atoms: C_16  and  N_66
REMARK    7  A    between atoms: C_20  and  C_31
REMARK    8  A    between atoms: C_23  and  C_25
REMARK    9  A    between atoms: C_34  and  O_37
REMARK   10  A    between atoms: O_37  and  C_38
REMARK                            x       y       z     vdW  Elec       q    Type
REMARK                         _______ _______ _______ _____ _____    ______ ____
ROOT
ATOM      1  C   UNL     1       3.375  -6.181   0.413  0.00  0.00    +0.219 C 
ATOM      2  O   UNL     1       4.129  -5.232   0.445  0.00  0.00    -0.276 OA
ATOM      3  N   UNL     1       3.852  -7.428   0.602  0.00  0.00    -0.187 N 
ATOM      4  C   UNL     1       5.258  -7.776   0.857  0.00  0.00    +0.137 C 
ATOM      5  C   UNL     1       5.231  -9.312   0.994  0.00  0.00    +0.087 C 
ATOM      6  C   UNL     1       3.775  -9.669   0.796  0.00  0.00    +0.069 C 
ATOM      7  N   UNL     1       3.092  -8.596   0.595  0.00  0.00    -0.181 NA
ENDROOT
BRANCH   6   8
ATOM      8  C   UNL     1       3.222 -11.036   0.834  0.00  0.00    -0.002 A 
ATOM      9  C   UNL     1       4.063 -12.127   1.062  0.00  0.00    +0.010 A 
ATOM     10  C   UNL     1       3.537 -13.402   1.101  0.00  0.00    +0.001 A 
ATOM     11  C   UNL     1       2.182 -13.602   0.904  0.00  0.00    +0.000 A 
ATOM     12  C   UNL     1       1.344 -12.525   0.673  0.00  0.00    +0.001 A 
ATOM     13  C   UNL     1       1.855 -11.245   0.636  0.00  0.00    +0.010 A 
ENDBRANCH   6   8
BRANCH   4  14
ATOM     14  C   UNL     1       5.739  -7.139   2.135  0.00  0.00    -0.024 A 
ATOM     15  C   UNL     1       4.895  -7.058   3.227  0.00  0.00    +0.009 A 
ATOM     16  C   UNL     1       5.336  -6.478   4.401  0.00  0.00    +0.046 A 
ATOM     17  C   UNL     1       6.623  -5.968   4.481  0.00  0.00    +0.120 A 
ATOM     18  C   UNL     1       7.467  -6.045   3.382  0.00  0.00    +0.046 A 
ATOM     19  C   UNL     1       7.023  -6.631   2.212  0.00  0.00    +0.009 A 
BRANCH  17  20
ATOM     20  O   UNL     1       7.057  -5.393   5.633  0.00  0.00    -0.495 OA
ATOM     21  C   UNL     1       6.135  -5.348   6.723  0.00  0.00    +0.277 C 
ENDBRANCH  17  20
ENDBRANCH   4  14
BRANCH   1  22
ATOM     22  C   UNL     1       1.905  -5.967   0.160  0.00  0.00    +0.021 C 
BRANCH  22  23
ATOM     23  N   UNL     1       1.653  -4.519   0.009  0.00  0.00    +0.390 N 
ATOM     24  H   UNL     1       2.061  -4.024   0.811  0.00  0.00    -0.081 HD
BRANCH  23  26
ATOM     25  C   UNL     1       2.431  -2.503  -1.133  0.00  0.00    -0.017 C 
ATOM     26  C   UNL     1       2.283  -4.023  -1.232  0.00  0.00    -0.081 C 
ENDBRANCH  23  26
BRANCH  23  27
ATOM     27  C   UNL     1       0.198  -4.260  -0.025  0.00  0.00    -0.003 C 
BRANCH  27  28
ATOM     28  C   UNL     1      -0.338  -4.327   1.382  0.00  0.00    +0.094 A 
ATOM     29  N   UNL     1      -1.646  -4.024   1.589  0.00  0.00    -0.312 N 
ATOM     30  H   UNL     1      -2.205  -3.773   0.838  0.00  0.00    +0.170 HD
ATOM     31  C   UNL     1      -2.175  -4.069   2.834  0.00  0.00    +0.259 A 
ATOM     32  O   UNL     1      -3.345  -3.800   3.034  0.00  0.00    -0.267 OA
ATOM     33  C   UNL     1      -1.281  -4.456   3.936  0.00  0.00    +0.065 A 
ATOM     34  C   UNL     1      -1.727  -4.534   5.254  0.00  0.00    +0.015 A 
ATOM     35  C   UNL     1      -0.846  -4.902   6.247  0.00  0.00    +0.001 A 
ATOM     36  C   UNL     1       0.478  -5.194   5.945  0.00  0.00    +0.002 A 
ATOM     37  C   UNL     1       0.938  -5.123   4.650  0.00  0.00    +0.028 A 
ATOM     38  C   UNL     1       0.064  -4.753   3.625  0.00  0.00    +0.078 A 
ATOM     39  N   UNL     1       0.475  -4.671   2.335  0.00  0.00    -0.236 NA
ENDBRANCH  27  28
ENDBRANCH  23  27
ENDBRANCH  22  23
ENDBRANCH   1  22
TORSDOF 8
