REMARK  Name = ZINC39659409
REMARK  7 active torsions:
REMARK  status: ('A' for Active; 'I' for Inactive)
REMARK    1  A    between atoms: C_1  and  C_2
REMARK    2  A    between atoms: C_2  and  C_31
REMARK    3  A    between atoms: C_5  and  C_8
REMARK    4  A    between atoms: C_8  and  N_9
REMARK    5  A    between atoms: C_10  and  C_12
REMARK    6  A    between atoms: C_23  and  C_25
REMARK    7  A    between atoms: N_29  and  C_30
REMARK                            x       y       z     vdW  Elec       q    Type
REMARK                         _______ _______ _______ _____ _____    ______ ____
ROOT
ATOM      1  C   UNL     1       4.487  -1.325   4.551  0.00  0.00    +0.100 C 
ATOM      2  C   UNL     1       5.488  -0.199   4.895  0.00  0.00    +0.121 C 
ATOM      3  N   UNL     1       5.870  -0.455   6.304  0.00  0.00    -0.295 N 
ATOM      4  C   UNL     1       5.983  -1.931   6.393  0.00  0.00    +0.115 C 
ATOM      5  C   UNL     1       4.816  -2.460   5.536  0.00  0.00    -0.004 C 
ATOM      6  C   UNL     1       5.245  -3.711   4.776  0.00  0.00    -0.010 C 
ATOM      7  C   UNL     1       5.510  -4.843   5.773  0.00  0.00    -0.082 C 
ATOM      8  N   UNL     1       4.292  -5.110   6.548  0.00  0.00    +0.379 N 
ATOM      9  C   UNL     1       3.938  -3.931   7.348  0.00  0.00    -0.082 C 
ATOM     10  C   UNL     1       3.607  -2.761   6.417  0.00  0.00    -0.010 C 
ATOM     11  C   UNL     1       6.069   0.449   7.283  0.00  0.00    +0.263 C 
ATOM     12  O   UNL     1       6.569   0.104   8.338  0.00  0.00    -0.268 OA
ATOM     13  H   UNL     1       3.534  -5.326   5.917  0.00  0.00    -0.086 HD
ATOM     14  H   UNL     1       4.450  -5.896   7.160  0.00  0.00    -0.086 HD
ENDROOT
BRANCH  11  15
ATOM     15  C   UNL     1       5.685   1.849   7.077  0.00  0.00    +0.104 A 
ATOM     16  C   UNL     1       4.817   2.324   6.117  0.00  0.00    +0.032 A 
ATOM     17  C   UNL     1       4.740   3.710   6.281  0.00  0.00    +0.020 A 
ATOM     18  C   UNL     1       5.545   4.051   7.315  0.00  0.00    +0.086 A 
ATOM     19  N   UNL     1       6.121   2.929   7.811  0.00  0.00    -0.346 N 
ATOM     20  C   UNL     1       7.054   2.874   8.940  0.00  0.00    +0.149 C 
ENDBRANCH  11  15
BRANCH   1  22
ATOM     21  N   UNL     1       3.675  -2.386   2.469  0.00  0.00    -0.312 N 
ATOM     22  C   UNL     1       4.686  -1.789   3.131  0.00  0.00    +0.218 C 
ATOM     23  O   UNL     1       5.756  -1.624   2.584  0.00  0.00    -0.275 OA
ATOM     24  H   UNL     1       2.820  -2.518   2.907  0.00  0.00    +0.149 HD
BRANCH  21  25
ATOM     25  C   UNL     1       3.869  -2.837   1.089  0.00  0.00    +0.138 C 
BRANCH  25  30
ATOM     26  C   UNL     1       0.020  -5.284   0.664  0.00  0.00    +0.074 C 
ATOM     27  C   UNL     1       1.504  -5.482   0.351  0.00  0.00    +0.165 C 
ATOM     28  O   UNL     1       1.779  -5.034  -0.982  0.00  0.00    -0.347 OA
ATOM     29  C   UNL     1       2.743  -3.966  -0.885  0.00  0.00    +0.196 C 
ATOM     30  C   UNL     1       2.577  -3.476   0.575  0.00  0.00    +0.164 C 
ATOM     31  O   UNL     1       2.298  -4.715   1.271  0.00  0.00    -0.342 OA
ATOM     32  C   UNL     1       1.862  -6.965   0.476  0.00  0.00    +0.074 C 
ENDBRANCH  25  30
ENDBRANCH  21  25
ENDBRANCH   1  22
TORSDOF 4
