REMARK  Name = ZINC63830650
REMARK  7 active torsions:
REMARK  status: ('A' for Active; 'I' for Inactive)
REMARK    1  A    between atoms: C_7  and  C_10
REMARK    2  A    between atoms: C_10  and  C_11
REMARK    3  A    between atoms: C_11  and  N_12
REMARK    4  A    between atoms: C_13  and  C_15
REMARK    5  A    between atoms: C_17  and  S_23
REMARK    6  A    between atoms: S_23  and  N_26
REMARK    7  A    between atoms: N_26  and  C_27
REMARK                            x       y       z     vdW  Elec       q    Type
REMARK                         _______ _______ _______ _____ _____    ______ ____
ROOT
ATOM      1  N   UNL     1      -0.231  -4.773  -0.496  0.00  0.00    -0.311 N 
ATOM      2  C   UNL     1      -0.505  -5.169  -1.754  0.00  0.00    +0.246 C 
ATOM      3  O   UNL     1       0.035  -4.622  -2.695  0.00  0.00    -0.270 OA
ATOM      4  H   UNL     1      -0.662  -5.210   0.255  0.00  0.00    +0.149 HD
ENDROOT
BRANCH   2   5
ATOM      5  C   UNL     1      -1.464  -6.268  -1.990  0.00  0.00    +0.057 A 
ATOM      6  C   UNL     1      -2.091  -6.895  -0.911  0.00  0.00    +0.044 A 
ATOM      7  C   UNL     1      -2.984  -7.920  -1.137  0.00  0.00    +0.124 A 
ATOM      8  C   UNL     1      -3.261  -8.330  -2.432  0.00  0.00    +0.069 A 
ATOM      9  C   UNL     1      -2.643  -7.714  -3.506  0.00  0.00    +0.042 A 
ATOM     10  C   UNL     1      -1.751  -6.681  -3.294  0.00  0.00    +0.055 A 
ATOM     11 CL   UNL     1      -0.982  -5.904  -4.642  0.00  0.00    -0.083 Cl
ATOM     12 CL   UNL     1      -4.387  -9.622  -2.708  0.00  0.00    -0.081 Cl
BRANCH   7  13
ATOM     13  S   UNL     1      -3.776  -8.712   0.223  0.00  0.00    +0.060 S 
ATOM     14  O   UNL     1      -3.258  -8.110   1.401  0.00  0.00    -0.153 OA
ATOM     15  O   UNL     1      -5.166  -8.734  -0.073  0.00  0.00    -0.153 OA
BRANCH  13  16
ATOM     16  N   UNL     1      -3.270 -10.289   0.234  0.00  0.00    -0.187 NA
ATOM     17  H   UNL     1      -3.906 -11.004   0.079  0.00  0.00    +0.148 HD
BRANCH  16  18
ATOM     18  C   UNL     1      -1.860 -10.603   0.479  0.00  0.00    +0.077 C 
ATOM     19  C   UNL     1      -1.273 -11.820  -0.239  0.00  0.00    +0.022 C 
ATOM     20  C   UNL     1      -1.547 -11.878   1.265  0.00  0.00    +0.022 C 
ENDBRANCH  16  18
ENDBRANCH  13  16
ENDBRANCH   7  13
ENDBRANCH   2   5
BRANCH   1  21
ATOM     21  C   UNL     1       0.720  -3.683  -0.262  0.00  0.00    +0.109 C 
BRANCH  21  22
ATOM     22  C   UNL     1       0.850  -3.434   1.242  0.00  0.00    +0.052 C 
BRANCH  22  29
ATOM     23  C   UNL     1       0.298   1.078   1.875  0.00  0.00    +0.001 A 
ATOM     24  C   UNL     1       1.502   1.770   2.067  0.00  0.00    +0.002 A 
ATOM     25  C   UNL     1       2.704   1.156   2.065  0.00  0.00    +0.026 A 
ATOM     26  C   UNL     1       2.794  -0.249   1.863  0.00  0.00    +0.043 A 
ATOM     27  N   UNL     1       3.822  -1.061   1.817  0.00  0.00    -0.380 N 
ATOM     28  C   UNL     1       3.333  -2.423   1.578  0.00  0.00    +0.144 C 
ATOM     29  C   UNL     1       1.827  -2.312   1.483  0.00  0.00    -0.040 C 
ATOM     30  C   UNL     1       1.536  -1.003   1.657  0.00  0.00    -0.001 A 
ATOM     31  C   UNL     1       0.271  -0.259   1.674  0.00  0.00    +0.010 A 
ATOM     32  H   UNL     1       4.751  -0.804   1.924  0.00  0.00    +0.160 HD
ENDBRANCH  22  29
ENDBRANCH  21  22
ENDBRANCH   1  21
TORSDOF 7
