REMARK  Name = ZINC22739165
REMARK  11 active torsions:
REMARK  status: ('A' for Active; 'I' for Inactive)
REMARK    1  A    between atoms: C_1  and  C_2
REMARK    2  A    between atoms: C_2  and  C_3
REMARK    3  A    between atoms: C_3  and  C_4
REMARK    4  A    between atoms: C_4  and  O_5
REMARK    5  A    between atoms: O_5  and  C_6
REMARK    6  A    between atoms: C_9  and  C_12
REMARK    7  A    between atoms: N_14  and  C_15
REMARK    8  A    between atoms: C_15  and  N_17
REMARK    9  A    between atoms: N_17  and  C_18
REMARK   10  A    between atoms: C_20  and  C_26
REMARK   11  A    between atoms: C_23  and  C_24
REMARK                            x       y       z     vdW  Elec       q    Type
REMARK                         _______ _______ _______ _____ _____    ______ ____
ROOT
ATOM      1  C   UNL     1       1.208  -8.091  -3.553  0.00  0.00    +0.250 C 
ATOM      2  O   UNL     1       0.473  -8.860  -2.966  0.00  0.00    -0.270 OA
ATOM      3  N   UNL     1       2.144  -8.566  -4.399  0.00  0.00    -0.264 N 
ATOM      4  H   UNL     1       2.730  -7.952  -4.868  0.00  0.00    +0.157 HD
ENDROOT
BRANCH   1   8
ATOM      5  C   UNL     1       0.830  -3.906  -2.939  0.00  0.00    +0.121 A 
ATOM      6  C   UNL     1      -0.012  -4.785  -2.267  0.00  0.00    +0.046 A 
ATOM      7  C   UNL     1       0.107  -6.142  -2.463  0.00  0.00    +0.016 A 
ATOM      8  C   UNL     1       1.076  -6.637  -3.340  0.00  0.00    +0.037 A 
ATOM      9  C   UNL     1       1.921  -5.751  -4.015  0.00  0.00    +0.016 A 
ATOM     10  C   UNL     1       1.792  -4.394  -3.817  0.00  0.00    +0.046 A 
BRANCH   5  11
ATOM     11  O   UNL     1       0.709  -2.569  -2.743  0.00  0.00    -0.492 OA
BRANCH  11  12
ATOM     12  C   UNL     1      -0.299  -2.136  -1.828  0.00  0.00    +0.229 C 
BRANCH  12  13
ATOM     13  C   UNL     1      -0.284  -0.609  -1.738  0.00  0.00    +0.041 C 
BRANCH  13  15
ATOM     14  C   UNL     1      -1.350   1.382  -0.668  0.00  0.00    +0.004 C 
ATOM     15  C   UNL     1      -1.365  -0.145  -0.758  0.00  0.00    -0.000 C 
ENDBRANCH  13  15
ENDBRANCH  12  13
ENDBRANCH  11  12
ENDBRANCH   5  11
ENDBRANCH   1   8
BRANCH   3  16
ATOM     16  C   UNL     1       2.264  -9.894  -4.594  0.00  0.00    +0.141 C 
ATOM     17  S   UNL     1       1.229 -10.978  -3.766  0.00  0.00    -0.018 S 
BRANCH  16  18
ATOM     18  N   UNL     1       3.199 -10.369  -5.440  0.00  0.00    -0.296 N 
ATOM     19  H   UNL     1       3.732  -9.755  -5.968  0.00  0.00    +0.154 HD
BRANCH  18  20
ATOM     20  C   UNL     1       3.402 -11.749  -5.556  0.00  0.00    +0.036 A 
ATOM     21  C   UNL     1       3.458 -12.542  -4.417  0.00  0.00    +0.028 A 
ATOM     22  C   UNL     1       3.657 -13.903  -4.534  0.00  0.00    -0.036 A 
ATOM     23  C   UNL     1       3.801 -14.477  -5.785  0.00  0.00    +0.017 A 
ATOM     24  C   UNL     1       3.746 -13.690  -6.921  0.00  0.00    +0.019 A 
ATOM     25  C   UNL     1       3.541 -12.329  -6.810  0.00  0.00    -0.028 A 
ATOM     26  C   UNL     1       3.474 -11.472  -8.048  0.00  0.00    +0.046 C 
ATOM     27  I   UNL     1       4.104 -16.543  -5.958  0.00  0.00    -0.044 I 
ATOM     28  C   UNL     1       3.718 -14.765  -3.299  0.00  0.00    +0.045 C 
ENDBRANCH  18  20
ENDBRANCH  16  18
ENDBRANCH   3  16
TORSDOF 8
