REMARK  Name = ZINC40117416
REMARK  5 active torsions:
REMARK  status: ('A' for Active; 'I' for Inactive)
REMARK    1  A    between atoms: C_4  and  O_7
REMARK    2  A    between atoms: O_7  and  C_8
REMARK    3  A    between atoms: C_12  and  C_14
REMARK    4  A    between atoms: C_16  and  C_22
REMARK    5  A    between atoms: C_22  and  C_24
REMARK                            x       y       z     vdW  Elec       q    Type
REMARK                         _______ _______ _______ _____ _____    ______ ____
ROOT
ATOM      1  C   UNL     1       5.778  -4.878   0.283  0.00  0.00    +0.142 C 
ATOM      2  C   UNL     1       6.435  -5.341  -0.996  0.00  0.00    +0.076 C 
ATOM      3  C   UNL     1       6.677  -6.665  -0.853  0.00  0.00    +0.249 C 
ATOM      4  C   UNL     1       6.205  -7.105   0.476  0.00  0.00    +0.285 C 
ATOM      5  O   UNL     1       6.281  -8.240   0.904  0.00  0.00    -0.267 OA
ATOM      6  N   UNL     1       5.678  -6.062   1.145  0.00  0.00    -0.298 N 
ATOM      7  O   UNL     1       7.259  -7.460  -1.781  0.00  0.00    -0.282 OA
ATOM      8  H   UNL     1       5.300  -6.087   2.038  0.00  0.00    +0.150 HD
ENDROOT
BRANCH   1  13
ATOM      9  C   UNL     1       2.923  -2.466  -0.277  0.00  0.00    +0.129 A 
ATOM     10  C   UNL     1       1.877  -3.337  -0.545  0.00  0.00    +0.046 A 
ATOM     11  C   UNL     1       2.097  -4.701  -0.545  0.00  0.00    +0.004 A 
ATOM     12  C   UNL     1       3.359  -5.198  -0.277  0.00  0.00    +0.006 A 
ATOM     13  C   UNL     1       4.404  -4.333  -0.009  0.00  0.00    -0.019 A 
ATOM     14  C   UNL     1       4.190  -2.968  -0.014  0.00  0.00    +0.052 A 
BRANCH   9  15
ATOM     15  O   UNL     1       2.709  -1.125  -0.278  0.00  0.00    -0.456 OA
BRANCH  15  19
ATOM     16  C   UNL     1      -1.137   0.223  -0.919  0.00  0.00    +0.000 A 
ATOM     17  C   UNL     1      -0.785  -0.297   0.313  0.00  0.00    +0.004 A 
ATOM     18  C   UNL     1       0.502  -0.750   0.530  0.00  0.00    +0.046 A 
ATOM     19  C   UNL     1       1.442  -0.681  -0.489  0.00  0.00    +0.128 A 
ATOM     20  C   UNL     1       1.085  -0.158  -1.724  0.00  0.00    +0.046 A 
ATOM     21  C   UNL     1      -0.203   0.293  -1.936  0.00  0.00    +0.004 A 
ENDBRANCH  15  19
ENDBRANCH   9  15
ENDBRANCH   1  13
BRANCH   2  22
ATOM     22  C   UNL     1       6.750  -4.516  -2.165  0.00  0.00    +0.195 C 
ATOM     23  O   UNL     1       6.171  -4.705  -3.218  0.00  0.00    -0.287 OA
BRANCH  22  24
ATOM     24  C   UNL     1       7.773  -3.453  -2.066  0.00  0.00    +0.022 A 
ATOM     25  C   UNL     1       8.518  -3.304  -0.894  0.00  0.00    +0.013 A 
ATOM     26  C   UNL     1       9.470  -2.311  -0.807  0.00  0.00    +0.016 A 
ATOM     27  C   UNL     1       9.688  -1.461  -1.879  0.00  0.00    +0.018 A 
ATOM     28  C   UNL     1       8.952  -1.603  -3.044  0.00  0.00    +0.016 A 
ATOM     29  C   UNL     1       8.001  -2.596  -3.145  0.00  0.00    +0.013 A 
ATOM     30 BR   UNL     1      10.996  -0.101  -1.752  0.00  0.00    -0.050 Br
ENDBRANCH  22  24
ENDBRANCH   2  22
TORSDOF 5
