REMARK  Name = ZINC63383727
REMARK  8 active torsions:
REMARK  status: ('A' for Active; 'I' for Inactive)
REMARK    1  A    between atoms: C_1  and  C_2
REMARK    2  A    between atoms: C_2  and  C_3
REMARK    3  A    between atoms: C_3  and  C_5
REMARK    4  A    between atoms: C_3  and  C_6
REMARK    5  A    between atoms: C_6  and  C_8
REMARK    6  A    between atoms: C_6  and  N_16
REMARK    7  A    between atoms: N_10  and  C_11
REMARK    8  A    between atoms: C_17  and  C_19
REMARK                            x       y       z     vdW  Elec       q    Type
REMARK                         _______ _______ _______ _____ _____    ______ ____
ROOT
ATOM      1  C   UNL     1       2.656   3.405   0.118  0.00  0.00    +0.167 C 
ATOM      2  C   UNL     1       4.038   3.771  -0.455  0.00  0.00    +0.065 C 
ATOM      3  C   UNL     1       4.826   4.406   0.663  0.00  0.00    -0.034 C 
ATOM      4  C   UNL     1       5.494   5.556   0.704  0.00  0.00    -0.001 A 
ATOM      5  C   UNL     1       5.781   6.557  -0.336  0.00  0.00    +0.010 A 
ATOM      6  C   UNL     1       6.492   7.645   0.060  0.00  0.00    +0.001 A 
ATOM      7  C   UNL     1       6.942   7.835   1.370  0.00  0.00    +0.002 A 
ATOM      8  C   UNL     1       6.730   6.963   2.388  0.00  0.00    +0.026 A 
ATOM      9  C   UNL     1       5.998   5.777   2.093  0.00  0.00    +0.043 A 
ATOM     10  N   UNL     1       5.671   4.778   2.859  0.00  0.00    -0.375 N 
ATOM     11  C   UNL     1       4.973   3.782   2.044  0.00  0.00    +0.131 C 
ATOM     12  C   UNL     1       3.566   3.497   2.566  0.00  0.00    +0.134 C 
ATOM     13  N   UNL     1       2.601   3.868   1.511  0.00  0.00    -0.276 N 
ATOM     14  C   UNL     1       1.688   4.705   2.040  0.00  0.00    +0.248 C 
ATOM     15  O   UNL     1       0.689   5.097   1.469  0.00  0.00    -0.270 OA
ATOM     16  C   UNL     1       2.075   5.073   3.403  0.00  0.00    +0.042 A 
ATOM     17  C   UNL     1       3.244   4.330   3.763  0.00  0.00    -0.013 A 
ATOM     18  C   UNL     1       3.855   4.452   4.991  0.00  0.00    +0.006 A 
ATOM     19  C   UNL     1       3.276   5.332   5.900  0.00  0.00    +0.000 A 
ATOM     20  C   UNL     1       2.139   6.052   5.593  0.00  0.00    +0.001 A 
ATOM     21  C   UNL     1       1.489   5.960   4.310  0.00  0.00    +0.013 A 
ATOM     22  H   UNL     1       5.857   4.705   3.808  0.00  0.00    +0.160 HD
ENDROOT
BRANCH   1  24
ATOM     23  N   UNL     1       2.491   1.266  -1.113  0.00  0.00    -0.302 N 
ATOM     24  C   UNL     1       2.464   1.911   0.070  0.00  0.00    +0.235 C 
ATOM     25  O   UNL     1       2.285   1.290   1.096  0.00  0.00    -0.274 OA
ATOM     26  H   UNL     1       2.705   1.751  -1.925  0.00  0.00    +0.150 HD
BRANCH  23  27
ATOM     27  C   UNL     1       2.196  -0.168  -1.172  0.00  0.00    +0.162 C 
BRANCH  27  28
ATOM     28  C   UNL     1       2.992  -0.799  -2.284  0.00  0.00    +0.234 C 
ATOM     29  O   UNL     1       3.732  -0.118  -2.963  0.00  0.00    -0.274 OA
ATOM     30  N   UNL     1       2.883  -2.120  -2.526  0.00  0.00    -0.311 N 
ATOM     31  H   UNL     1       2.237  -2.651  -2.034  0.00  0.00    +0.149 HD
BRANCH  30  32
ATOM     32  C   UNL     1       3.739  -2.755  -3.531  0.00  0.00    +0.073 C 
ATOM     33  C   UNL     1       3.075  -2.667  -4.921  0.00  0.00    +0.022 C 
ATOM     34  C   UNL     1       3.431  -4.014  -5.598  0.00  0.00    +0.002 C 
ATOM     35  C   UNL     1       3.332  -5.021  -4.425  0.00  0.00    +0.002 C 
ATOM     36  C   UNL     1       3.902  -4.252  -3.216  0.00  0.00    +0.022 C 
ENDBRANCH  30  32
ENDBRANCH  27  28
BRANCH  27  37
ATOM     37  C   UNL     1       0.702  -0.370  -1.435  0.00  0.00    +0.015 C 
ATOM     38  C   UNL     1      -0.100   0.118  -0.227  0.00  0.00    +0.010 C 
BRANCH  37  40
ATOM     39  C   UNL     1       0.931  -0.199  -3.917  0.00  0.00    +0.004 C 
ATOM     40  C   UNL     1       0.290   0.425  -2.675  0.00  0.00    +0.002 C 
ENDBRANCH  37  40
ENDBRANCH  27  37
ENDBRANCH  23  27
ENDBRANCH   1  24
TORSDOF 6
