REMARK  Name = ZINC20138444
REMARK  8 active torsions:
REMARK  status: ('A' for Active; 'I' for Inactive)
REMARK    1  A    between atoms: C_1  and  C_2
REMARK    2  A    between atoms: C_2  and  C_3
REMARK    3  A    between atoms: C_3  and  C_4
REMARK    4  A    between atoms: C_4  and  C_5
REMARK    5  A    between atoms: C_9  and  C_11
REMARK    6  A    between atoms: C_11  and  N_12
REMARK    7  A    between atoms: C_16  and  N_19
REMARK    8  A    between atoms: N_22  and  C_25
REMARK                            x       y       z     vdW  Elec       q    Type
REMARK                         _______ _______ _______ _____ _____    ______ ____
ROOT
ATOM      1  N   UNL     1      -6.653  -2.486  -1.954  0.00  0.00    -0.298 NA
ATOM      2  C   UNL     1      -5.849  -1.584  -2.789  0.00  0.00    +0.084 C 
ATOM      3  C   UNL     1      -6.639  -0.303  -3.067  0.00  0.00    +0.014 C 
ATOM      4  C   UNL     1      -7.946  -0.661  -3.781  0.00  0.00    -0.013 C 
ATOM      5  C   UNL     1      -8.742  -1.639  -2.912  0.00  0.00    -0.054 C 
ATOM      6  C   UNL     1      -7.891  -2.881  -2.639  0.00  0.00    +0.069 C 
ENDROOT
BRANCH   5   7
ATOM      7  N   UNL     1      -9.971  -2.031  -3.615  0.00  0.00    +0.384 N 
ATOM      8  C   UNL     1     -10.779  -0.836  -3.889  0.00  0.00    -0.059 C 
ATOM      9  C   UNL     1     -12.004  -1.228  -4.722  0.00  0.00    +0.086 C 
ATOM     10  N   UNL     1     -12.724  -2.299  -4.016  0.00  0.00    -0.333 N 
ATOM     11  C   UNL     1     -11.955  -3.466  -3.558  0.00  0.00    +0.086 C 
ATOM     12  C   UNL     1     -10.733  -2.968  -2.780  0.00  0.00    -0.059 C 
ATOM     13  H   UNL     1      -9.730  -2.478  -4.487  0.00  0.00    -0.081 HD
BRANCH  10  14
ATOM     14  C   UNL     1     -14.099  -2.209  -3.786  0.00  0.00    +0.031 A 
ATOM     15  C   UNL     1     -14.787  -1.050  -4.125  0.00  0.00    +0.023 A 
ATOM     16  C   UNL     1     -16.146  -0.965  -3.898  0.00  0.00    +0.003 A 
ATOM     17  C   UNL     1     -16.823  -2.030  -3.333  0.00  0.00    +0.020 A 
ATOM     18  C   UNL     1     -16.141  -3.185  -2.994  0.00  0.00    +0.043 A 
ATOM     19  C   UNL     1     -14.782  -3.280  -3.224  0.00  0.00    +0.043 A 
ATOM     20 CL   UNL     1     -16.995  -4.520  -2.284  0.00  0.00    -0.083 Cl
ENDBRANCH  10  14
ENDBRANCH   5   7
BRANCH   1  21
ATOM     21  C   UNL     1      -5.875  -3.665  -1.552  0.00  0.00    +0.139 C 
BRANCH  21  26
ATOM     22  C   UNL     1      -2.823  -2.519   0.011  0.00  0.00    +0.084 A 
ATOM     23  N   UNL     1      -3.551  -2.780   1.117  0.00  0.00    -0.350 N 
ATOM     24  H   UNL     1      -3.263  -2.666   2.036  0.00  0.00    +0.166 HD
ATOM     25  C   UNL     1      -4.772  -3.237   0.700  0.00  0.00    +0.106 A 
ATOM     26  C   UNL     1      -4.748  -3.239  -0.647  0.00  0.00    +0.047 A 
ATOM     27  N   UNL     1      -3.547  -2.790  -1.041  0.00  0.00    -0.346 N 
ATOM     28  H   UNL     1      -3.260  -2.686  -1.962  0.00  0.00    +0.167 HD
BRANCH  22  29
ATOM     29  C   UNL     1      -1.410  -1.995  -0.007  0.00  0.00    +0.072 C 
BRANCH  29  30
ATOM     30  C   UNL     1      -1.434  -0.465  -0.017  0.00  0.00    +0.007 C 
BRANCH  30  32
ATOM     31  C   UNL     1      -0.023   1.597  -0.044  0.00  0.00    +0.004 C 
ATOM     32  C   UNL     1       0.001   0.067  -0.035  0.00  0.00    -0.003 C 
ENDBRANCH  30  32
ENDBRANCH  29  30
ENDBRANCH  22  29
ENDBRANCH  21  26
ENDBRANCH   1  21
TORSDOF 7
