REMARK  Name = ZINC39665790
REMARK  14 active torsions:
REMARK  status: ('A' for Active; 'I' for Inactive)
REMARK    1  A    between atoms: C_1  and  C_2
REMARK    2  A    between atoms: C_2  and  C_3
REMARK    3  A    between atoms: C_3  and  C_4
REMARK    4  A    between atoms: C_4  and  C_5
REMARK    5  A    between atoms: C_5  and  C_7
REMARK    6  A    between atoms: C_5  and  C_8
REMARK    7  A    between atoms: C_12  and  C_21
REMARK    8  A    between atoms: N_23  and  C_24
REMARK    9  A    between atoms: C_24  and  C_25
REMARK   10  A    between atoms: C_25  and  C_27
REMARK   11  A    between atoms: C_25  and  O_28
REMARK   12  A    between atoms: O_28  and  C_29
REMARK   13  A    between atoms: C_32  and  O_35
REMARK   14  A    between atoms: O_35  and  C_36
REMARK                            x       y       z     vdW  Elec       q    Type
REMARK                         _______ _______ _______ _____ _____    ______ ____
ROOT
ATOM      1  C   UNL     1      -2.854  -4.223  -0.028  0.00  0.00    +0.218 C 
ATOM      2  O   UNL     1      -1.810  -4.808   0.170  0.00  0.00    -0.275 OA
ATOM      3  N   UNL     1      -3.998  -4.919  -0.182  0.00  0.00    -0.300 N 
ATOM      4  C   UNL     1      -5.338  -4.396  -0.537  0.00  0.00    +0.121 C 
ATOM      5  C   UNL     1      -5.925  -5.451  -1.502  0.00  0.00    +0.100 C 
ATOM      6  C   UNL     1      -5.175  -6.751  -1.165  0.00  0.00    -0.004 C 
ATOM      7  C   UNL     1      -4.198  -6.381  -0.040  0.00  0.00    +0.115 C 
ATOM      8  C   UNL     1      -6.155  -7.817  -0.686  0.00  0.00    -0.010 C 
ATOM      9  C   UNL     1      -5.394  -9.118  -0.413  0.00  0.00    -0.082 C 
ATOM     10  N   UNL     1      -4.721  -9.559  -1.640  0.00  0.00    +0.379 N 
ATOM     11  C   UNL     1      -3.714  -8.570  -2.043  0.00  0.00    -0.082 C 
ATOM     12  C   UNL     1      -4.404  -7.247  -2.385  0.00  0.00    -0.010 C 
ATOM     13  H   UNL     1      -4.270 -10.447  -1.474  0.00  0.00    -0.086 HD
ATOM     14  H   UNL     1      -5.402  -9.663  -2.377  0.00  0.00    -0.086 HD
ENDROOT
BRANCH   5  15
ATOM     15  C   UNL     1      -5.672  -5.052  -2.933  0.00  0.00    +0.218 C 
ATOM     16  O   UNL     1      -4.737  -4.329  -3.204  0.00  0.00    -0.275 OA
ATOM     17  N   UNL     1      -6.485  -5.499  -3.911  0.00  0.00    -0.312 N 
ATOM     18  H   UNL     1      -7.233  -6.077  -3.693  0.00  0.00    +0.149 HD
BRANCH  17  19
ATOM     19  C   UNL     1      -6.239  -5.111  -5.302  0.00  0.00    +0.148 C 
BRANCH  19  20
ATOM     20  C   UNL     1      -7.298  -5.748  -6.204  0.00  0.00    +0.187 C 
ATOM     21  C   UNL     1      -7.041  -5.343  -7.657  0.00  0.00    +0.053 C 
BRANCH  20  22
ATOM     22  O   UNL     1      -7.229  -7.171  -6.087  0.00  0.00    -0.488 OA
BRANCH  22  23
ATOM     23  C   UNL     1      -8.361  -7.869  -6.371  0.00  0.00    +0.121 A 
ATOM     24  C   UNL     1      -8.401  -9.240  -6.163  0.00  0.00    +0.049 A 
ATOM     25  C   UNL     1      -9.550  -9.949  -6.452  0.00  0.00    +0.049 A 
ATOM     26  C   UNL     1     -10.665  -9.290  -6.949  0.00  0.00    +0.120 A 
ATOM     27  C   UNL     1     -10.626  -7.919  -7.156  0.00  0.00    +0.049 A 
ATOM     28  C   UNL     1      -9.477  -7.209  -6.863  0.00  0.00    +0.049 A 
BRANCH  26  29
ATOM     29  O   UNL     1     -11.797  -9.988  -7.234  0.00  0.00    -0.495 OA
ATOM     30  C   UNL     1     -12.907  -9.246  -7.743  0.00  0.00    +0.277 C 
ENDBRANCH  26  29
ENDBRANCH  22  23
ENDBRANCH  20  22
ENDBRANCH  19  20
ENDBRANCH  17  19
ENDBRANCH   5  15
BRANCH   1  31
ATOM     31  C   UNL     1      -2.872  -2.717  -0.101  0.00  0.00    +0.072 C 
ATOM     32  C   UNL     1      -1.577  -2.223  -0.749  0.00  0.00    +0.017 C 
BRANCH  31  33
ATOM     33  C   UNL     1      -2.990  -2.139   1.310  0.00  0.00    +0.012 C 
BRANCH  33  34
ATOM     34  C   UNL     1      -3.134  -0.618   1.228  0.00  0.00    +0.000 C 
BRANCH  34  36
ATOM     35  C   UNL     1      -3.396   1.481   2.558  0.00  0.00    +0.004 C 
ATOM     36  C   UNL     1      -3.252  -0.040   2.640  0.00  0.00    -0.003 C 
ENDBRANCH  34  36
ENDBRANCH  33  34
ENDBRANCH  31  33
ENDBRANCH   1  31
TORSDOF 10
