REMARK  Name = ZINC13049466
REMARK  13 active torsions:
REMARK  status: ('A' for Active; 'I' for Inactive)
REMARK    1  A    between atoms: C_1  and  C_2
REMARK    2  A    between atoms: C_2  and  C_3
REMARK    3  A    between atoms: C_2  and  C_4
REMARK    4  A    between atoms: C_4  and  N_5
REMARK    5  A    between atoms: C_11  and  C_33
REMARK    6  A    between atoms: C_15  and  S_16
REMARK    7  A    between atoms: S_16  and  C_17
REMARK    8  A    between atoms: C_17  and  C_18
REMARK    9  A    between atoms: N_20  and  C_21
REMARK   10  A    between atoms: N_20  and  C_30
REMARK   11  A    between atoms: C_21  and  C_22
REMARK   12  A    between atoms: C_25  and  O_28
REMARK   13  A    between atoms: O_28  and  C_29
REMARK                            x       y       z     vdW  Elec       q    Type
REMARK                         _______ _______ _______ _____ _____    ______ ____
ROOT
ATOM      1  N   UNL     1       5.856   5.947   5.284  0.00  0.00    -0.287 N 
ATOM      2  C   UNL     1       6.033   6.182   6.605  0.00  0.00    +0.262 A 
ATOM      3  O   UNL     1       7.100   6.575   7.038  0.00  0.00    -0.267 OA
ATOM      4  C   UNL     1       4.890   5.939   7.499  0.00  0.00    +0.065 A 
ATOM      5  C   UNL     1       4.979   6.146   8.875  0.00  0.00    +0.016 A 
ATOM      6  C   UNL     1       3.895   5.909   9.671  0.00  0.00    +0.016 A 
ATOM      7  C   UNL     1       2.690   5.457   9.118  0.00  0.00    +0.065 A 
ATOM      8  C   UNL     1       2.579   5.243   7.750  0.00  0.00    +0.043 A 
ATOM      9  C   UNL     1       3.681   5.483   6.925  0.00  0.00    +0.080 A 
ATOM     10  N   UNL     1       3.619   5.287   5.587  0.00  0.00    -0.223 NA
ATOM     11  C   UNL     1       4.651   5.511   4.812  0.00  0.00    +0.173 A 
ENDROOT
BRANCH   7  12
ATOM     12  C   UNL     1       1.527   5.205   9.997  0.00  0.00    +0.387 C 
ATOM     13  O   UNL     1       0.480   4.813   9.523  0.00  0.00    -0.241 OA
ATOM     14  O   UNL     1       1.629   5.412  11.324  0.00  0.00    -0.241 OA
ENDBRANCH   7  12
BRANCH   1  15
ATOM     15  C   UNL     1       6.965   6.168   4.352  0.00  0.00    +0.130 C 
BRANCH  15  17
ATOM     16  C   UNL     1       7.183   8.567   5.015  0.00  0.00    +0.009 C 
ATOM     17  C   UNL     1       6.927   7.612   3.848  0.00  0.00    +0.003 C 
ATOM     18  C   UNL     1       8.007   7.808   2.782  0.00  0.00    +0.009 C 
ENDBRANCH  15  17
ENDBRANCH   1  15
BRANCH  11  19
ATOM     19  S   UNL     1       4.479   5.229   3.081  0.00  0.00    -0.078 S 
BRANCH  19  20
ATOM     20  C   UNL     1       2.756   4.679   3.022  0.00  0.00    +0.173 C 
BRANCH  20  21
ATOM     21  C   UNL     1       2.376   4.372   1.596  0.00  0.00    +0.226 C 
ATOM     22  O   UNL     1       3.212   4.430   0.720  0.00  0.00    -0.275 OA
ATOM     23  N   UNL     1       1.107   4.032   1.296  0.00  0.00    -0.293 N 
BRANCH  23  24
ATOM     24  C   UNL     1       0.776   3.550  -0.047  0.00  0.00    +0.077 C 
ATOM     25  C   UNL     1       1.933   3.106  -0.944  0.00  0.00    +0.024 C 
ATOM     26  C   UNL     1       1.201   4.417  -1.234  0.00  0.00    +0.024 C 
ENDBRANCH  23  24
BRANCH  23  27
ATOM     27  C   UNL     1       0.058   4.145   2.313  0.00  0.00    +0.143 C 
BRANCH  27  28
ATOM     28  C   UNL     1      -0.659   5.460   2.151  0.00  0.00    -0.030 A 
ATOM     29  C   UNL     1      -1.690   5.577   1.238  0.00  0.00    +0.009 A 
ATOM     30  C   UNL     1      -2.349   6.782   1.088  0.00  0.00    +0.046 A 
ATOM     31  C   UNL     1      -1.975   7.876   1.855  0.00  0.00    +0.120 A 
ATOM     32  C   UNL     1      -0.940   7.756   2.771  0.00  0.00    +0.046 A 
ATOM     33  C   UNL     1      -0.284   6.549   2.917  0.00  0.00    +0.009 A 
BRANCH  31  34
ATOM     34  O   UNL     1      -2.621   9.062   1.709  0.00  0.00    -0.495 OA
ATOM     35  C   UNL     1      -2.182  10.145   2.531  0.00  0.00    +0.277 C 
ENDBRANCH  31  34
ENDBRANCH  27  28
ENDBRANCH  23  27
ENDBRANCH  20  21
ENDBRANCH  19  20
ENDBRANCH  11  19
TORSDOF 10
