REMARK  Name = ZINC39710660
REMARK  13 active torsions:
REMARK  status: ('A' for Active; 'I' for Inactive)
REMARK    1  A    between atoms: C_1  and  C_2
REMARK    2  A    between atoms: C_7  and  C_14
REMARK    3  A    between atoms: C_14  and  C_16
REMARK    4  A    between atoms: C_14  and  N_26
REMARK    5  A    between atoms: N_21  and  C_22
REMARK    6  A    between atoms: C_22  and  C_23
REMARK    7  A    between atoms: C_22  and  C_24
REMARK    8  A    between atoms: C_22  and  C_25
REMARK    9  A    between atoms: N_26  and  C_27
REMARK   10  A    between atoms: N_26  and  C_35
REMARK   11  A    between atoms: C_27  and  C_28
REMARK   12  A    between atoms: C_28  and  C_29
REMARK   13  A    between atoms: C_35  and  C_36
REMARK                            x       y       z     vdW  Elec       q    Type
REMARK                         _______ _______ _______ _____ _____    ______ ____
ROOT
ATOM      1  C   UNL     1       1.436  -5.820   1.346  0.00  0.00    -0.009 C 
ENDROOT
BRANCH   1   8
ATOM      2  C   UNL     1      -4.948  -5.343   5.248  0.00  0.00    +0.044 C 
ATOM      3  C   UNL     1      -3.674  -5.071   4.490  0.00  0.00    -0.049 A 
ATOM      4  C   UNL     1      -2.794  -4.107   4.983  0.00  0.00    +0.004 A 
ATOM      5  C   UNL     1      -1.631  -3.818   4.344  0.00  0.00    +0.010 A 
ATOM      6  C   UNL     1      -1.304  -4.539   3.113  0.00  0.00    -0.007 A 
ATOM      7  C   UNL     1      -0.148  -4.283   2.438  0.00  0.00    -0.006 C 
ATOM      8  C   UNL     1       0.109  -5.077   1.173  0.00  0.00    +0.088 C 
ATOM      9  C   UNL     1      -0.937  -6.089   0.762  0.00  0.00    +0.223 C 
ATOM     10  O   UNL     1      -0.782  -6.754  -0.244  0.00  0.00    -0.275 OA
ATOM     11  N   UNL     1      -2.022  -6.248   1.502  0.00  0.00    -0.285 N 
ATOM     12  C   UNL     1      -2.252  -5.552   2.615  0.00  0.00    +0.041 A 
ATOM     13  C   UNL     1      -3.426  -5.778   3.356  0.00  0.00    +0.027 A 
ATOM     14  H   UNL     1      -2.681  -6.902   1.222  0.00  0.00    +0.155 HD
ENDBRANCH   1   8
BRANCH   1  15
ATOM     15  C   UNL     1       1.568  -6.888   0.259  0.00  0.00    +0.205 C 
ATOM     16  N   UNL     1       2.898  -7.510   0.309  0.00  0.00    -0.152 NA
ATOM     17  N   UNL     1       3.476  -7.303  -0.759  0.00  0.00    -0.070 NA
ATOM     18  N   UNL     1       2.708  -6.564  -1.658  0.00  0.00    -0.179 N 
ATOM     19  N   UNL     1       1.496  -6.271  -1.083  0.00  0.00    -0.183 NA
ATOM     20  H   UNL     1       2.985  -6.299  -2.549  0.00  0.00    +0.191 HD
BRANCH  19  21
ATOM     21  C   UNL     1       1.296  -4.819  -0.984  0.00  0.00    +0.035 C 
ATOM     22  C   UNL     1       1.956  -4.299   0.295  0.00  0.00    +0.029 C 
ATOM     23  C   UNL     1       1.926  -4.134  -2.198  0.00  0.00    +0.029 C 
ATOM     24  C   UNL     1      -0.202  -4.512  -0.946  0.00  0.00    +0.029 C 
ENDBRANCH  19  21
ENDBRANCH   1  15
BRANCH   1  25
ATOM     25  N   UNL     1       1.470  -6.459   2.668  0.00  0.00    +0.387 N 
ATOM     26  H   UNL     1       1.221  -5.784   3.375  0.00  0.00    -0.081 HD
BRANCH  25  27
ATOM     27  C   UNL     1       0.515  -7.575   2.697  0.00  0.00    -0.073 C 
BRANCH  27  28
ATOM     28  C   UNL     1       0.374  -8.088   4.131  0.00  0.00    +0.016 C 
BRANCH  28  29
ATOM     29  C   UNL     1      -0.606  -9.233   4.161  0.00  0.00    -0.049 A 
ATOM     30  C   UNL     1      -1.952  -8.985   4.357  0.00  0.00    +0.003 A 
ATOM     31  C   UNL     1      -2.850 -10.035   4.385  0.00  0.00    +0.000 A 
ATOM     32  C   UNL     1      -2.403 -11.332   4.216  0.00  0.00    +0.000 A 
ATOM     33  C   UNL     1      -1.058 -11.579   4.019  0.00  0.00    +0.000 A 
ATOM     34  C   UNL     1      -0.159 -10.529   3.987  0.00  0.00    +0.003 A 
ENDBRANCH  28  29
ENDBRANCH  27  28
ENDBRANCH  25  27
BRANCH  25  35
ATOM     35  C   UNL     1       2.824  -6.966   2.931  0.00  0.00    -0.042 C 
BRANCH  35  36
ATOM     36  C   UNL     1       3.763  -5.806   3.138  0.00  0.00    -0.064 A 
ATOM     37  C   UNL     1       4.350  -5.190   2.048  0.00  0.00    +0.004 A 
ATOM     38  C   UNL     1       5.211  -4.126   2.236  0.00  0.00    +0.038 A 
ATOM     39  C   UNL     1       5.487  -3.677   3.516  0.00  0.00    +0.123 A 
ATOM     40  C   UNL     1       4.899  -4.295   4.607  0.00  0.00    +0.038 A 
ATOM     41  C   UNL     1       4.034  -5.356   4.416  0.00  0.00    +0.004 A 
ATOM     42  F   UNL     1       6.329  -2.637   3.701  0.00  0.00    -0.205 F 
ENDBRANCH  35  36
ENDBRANCH  25  35
ENDBRANCH   1  25
TORSDOF 9
