REMARK  Name = ZINC00687054
REMARK  6 active torsions:
REMARK  status: ('A' for Active; 'I' for Inactive)
REMARK    1  A    between atoms: C_1  and  C_2
REMARK    2  A    between atoms: C_4  and  C_11
REMARK    3  A    between atoms: C_7  and  N_8
REMARK    4  A    between atoms: N_13  and  C_14
REMARK    5  A    between atoms: C_15  and  C_25
REMARK    6  A    between atoms: C_20  and  C_24
REMARK                            x       y       z     vdW  Elec       q    Type
REMARK                         _______ _______ _______ _____ _____    ______ ____
ROOT
ATOM      1  C   UNL     1      -3.236  -6.404   0.025  0.00  0.00    +0.249 C 
ATOM      2  O   UNL     1      -3.827  -5.534  -0.585  0.00  0.00    -0.270 OA
ATOM      3  N   UNL     1      -1.970  -6.197   0.438  0.00  0.00    -0.275 N 
ATOM      4  H   UNL     1      -1.498  -6.891   0.924  0.00  0.00    +0.156 HD
ENDROOT
BRANCH   3   5
ATOM      5  C   UNL     1      -1.341  -4.991   0.166  0.00  0.00    +0.090 A 
ATOM      6  C   UNL     1      -0.056  -4.594   0.505  0.00  0.00    +0.084 A 
ATOM      7  C   UNL     1       0.366  -3.264   0.099  0.00  0.00    -0.018 A 
ATOM      8  C   UNL     1      -0.560  -2.549  -0.577  0.00  0.00    -0.004 A 
ATOM      9  S   UNL     1      -1.971  -3.614  -0.677  0.00  0.00    -0.077 S 
ATOM     10  C   UNL     1      -0.410  -1.161  -1.119  0.00  0.00    +0.046 C 
ATOM     11  C   UNL     1       1.083  -0.802  -1.122  0.00  0.00    -0.009 C 
ATOM     12  C   UNL     1       1.680  -1.163   0.241  0.00  0.00    +0.008 C 
ATOM     13  C   UNL     1       1.743  -2.684   0.395  0.00  0.00    +0.037 C 
ATOM     14  C   UNL     1       1.249   0.698  -1.373  0.00  0.00    +0.008 C 
BRANCH   6  15
ATOM     15  C   UNL     1       0.823  -5.463   1.228  0.00  0.00    +0.102 C 
ATOM     16  N   UNL     1       1.521  -6.152   1.801  0.00  0.00    -0.191 NA
ENDBRANCH   6  15
ENDBRANCH   3   5
BRANCH   1  20
ATOM     17  C   UNL     1      -7.254  -9.346  -0.295  0.00  0.00    +0.046 C 
ATOM     18  C   UNL     1      -5.838  -9.109   0.163  0.00  0.00    -0.020 A 
ATOM     19  C   UNL     1      -5.220  -7.905  -0.107  0.00  0.00    +0.018 A 
ATOM     20  C   UNL     1      -3.906  -7.689   0.314  0.00  0.00    +0.037 A 
ATOM     21  C   UNL     1      -3.231  -8.691   1.014  0.00  0.00    +0.015 A 
ATOM     22  C   UNL     1      -3.862  -9.888   1.281  0.00  0.00    +0.034 A 
ATOM     23  C   UNL     1      -5.162 -10.097   0.856  0.00  0.00    +0.129 A 
BRANCH  23  24
ATOM     24  N   UNL     1      -5.833 -11.384   1.146  0.00  0.00    +0.057 N 
ATOM     25  O   UNL     1      -7.021 -11.404   1.418  0.00  0.00    -0.126 OA
ATOM     26  O   UNL     1      -5.199 -12.423   1.113  0.00  0.00    -0.126 OA
ENDBRANCH  23  24
ENDBRANCH   1  20
TORSDOF 4
