REMARK  Name = ZINC09892232
REMARK  10 active torsions:
REMARK  status: ('A' for Active; 'I' for Inactive)
REMARK    1  A    between atoms: C_1  and  C_2
REMARK    2  A    between atoms: C_5  and  N_8
REMARK    3  A    between atoms: C_9  and  C_11
REMARK    4  A    between atoms: C_11  and  C_13
REMARK    5  A    between atoms: C_11  and  N_17
REMARK    6  A    between atoms: C_13  and  C_14
REMARK    7  A    between atoms: C_14  and  S_15
REMARK    8  A    between atoms: S_15  and  C_16
REMARK    9  A    between atoms: C_18  and  C_20
REMARK   10  A    between atoms: C_23  and  C_26
REMARK                            x       y       z     vdW  Elec       q    Type
REMARK                         _______ _______ _______ _____ _____    ______ ____
ROOT
ATOM      1  N   UNL     1      -0.011   0.966   0.007  0.00  0.00    -0.300 N 
ATOM      2  C   UNL     1      -1.187   1.624   0.017  0.00  0.00    +0.245 C 
ATOM      3  O   UNL     1      -1.204   2.839   0.023  0.00  0.00    -0.270 OA
ATOM      4  H   UNL     1       0.002  -0.004   0.002  0.00  0.00    +0.150 HD
ENDROOT
BRANCH   2   5
ATOM      5  C   UNL     1      -2.458   0.867   0.018  0.00  0.00    +0.037 A 
ATOM      6  C   UNL     1      -2.442  -0.528   0.005  0.00  0.00    +0.013 A 
ATOM      7  C   UNL     1      -3.631  -1.228   0.011  0.00  0.00    +0.005 A 
ATOM      8  C   UNL     1      -4.837  -0.550   0.021  0.00  0.00    -0.041 A 
ATOM      9  C   UNL     1      -4.859   0.834   0.029  0.00  0.00    +0.005 A 
ATOM     10  C   UNL     1      -3.677   1.546   0.028  0.00  0.00    +0.013 A 
BRANCH   8  11
ATOM     11  C   UNL     1      -6.131  -1.321   0.021  0.00  0.00    -0.003 C 
ATOM     12  C   UNL     1      -6.944  -0.955  -1.223  0.00  0.00    +0.015 C 
ATOM     13  C   UNL     1      -8.258  -1.738  -1.222  0.00  0.00    -0.010 C 
ATOM     14  C   UNL     1      -7.958  -3.238  -1.233  0.00  0.00    +0.007 C 
ATOM     15  C   UNL     1      -7.146  -3.604   0.011  0.00  0.00    -0.010 C 
ATOM     16  C   UNL     1      -5.832  -2.821   0.011  0.00  0.00    +0.015 C 
ATOM     17  C   UNL     1      -7.948  -3.253   1.266  0.00  0.00    +0.007 C 
ATOM     18  C   UNL     1      -8.248  -1.753   1.276  0.00  0.00    -0.010 C 
ATOM     19  C   UNL     1      -9.060  -1.387   0.032  0.00  0.00    +0.007 C 
ATOM     20  C   UNL     1      -6.934  -0.970   1.276  0.00  0.00    +0.015 C 
ENDBRANCH   8  11
ENDBRANCH   2   5
BRANCH   1  21
ATOM     21  C   UNL     1       1.248   1.716  -0.001  0.00  0.00    +0.160 C 
BRANCH  21  23
ATOM     22  N   UNL     1       3.584   1.356  -0.730  0.00  0.00    -0.311 N 
ATOM     23  C   UNL     1       2.332   0.870  -0.616  0.00  0.00    +0.234 C 
ATOM     24  O   UNL     1       2.079  -0.249  -1.009  0.00  0.00    -0.274 OA
ATOM     25  H   UNL     1       3.787   2.251  -0.415  0.00  0.00    +0.149 HD
BRANCH  22  30
ATOM     26  C   UNL     1       7.525   2.248   1.403  0.00  0.00    +0.007 C 
ATOM     27  C   UNL     1       6.930   1.391   0.284  0.00  0.00    -0.014 C 
ATOM     28  C   UNL     1       6.322   2.299  -0.786  0.00  0.00    +0.005 C 
ATOM     29  C   UNL     1       5.727   1.441  -1.905  0.00  0.00    +0.022 C 
ATOM     30  C   UNL     1       4.638   0.534  -1.328  0.00  0.00    +0.073 C 
ATOM     31  C   UNL     1       5.246  -0.374  -0.257  0.00  0.00    +0.022 C 
ATOM     32  C   UNL     1       5.841   0.483   0.862  0.00  0.00    +0.005 C 
ENDBRANCH  22  30
ENDBRANCH  21  23
BRANCH  21  33
ATOM     33  C   UNL     1       1.635   2.077   1.435  0.00  0.00    +0.042 C 
BRANCH  33  34
ATOM     34  C   UNL     1       0.596   3.037   2.017  0.00  0.00    +0.071 C 
BRANCH  34  35
ATOM     35  S   UNL     1       1.055   3.465   3.719  0.00  0.00    -0.164 S 
ATOM     36  C   UNL     1      -0.259   4.593   4.258  0.00  0.00    +0.084 C 
ENDBRANCH  34  35
ENDBRANCH  33  34
ENDBRANCH  21  33
ENDBRANCH   1  21
TORSDOF 8
