REMARK  Name = ZINC60275498
REMARK  9 active torsions:
REMARK  status: ('A' for Active; 'I' for Inactive)
REMARK    1  A    between atoms: C_1  and  C_2
REMARK    2  A    between atoms: N_5  and  C_8
REMARK    3  A    between atoms: C_8  and  C_9
REMARK    4  A    between atoms: C_16  and  C_18
REMARK    5  A    between atoms: C_18  and  C_19
REMARK    6  A    between atoms: C_19  and  C_20
REMARK    7  A    between atoms: C_22  and  C_25
REMARK    8  A    between atoms: C_25  and  N_32
REMARK    9  A    between atoms: C_33  and  C_35
REMARK                            x       y       z     vdW  Elec       q    Type
REMARK                         _______ _______ _______ _____ _____    ______ ____
ROOT
ATOM      1  C   UNL     1       4.237  -4.419   5.567  0.00  0.00    +0.105 C 
ENDROOT
BRANCH   1   8
ATOM      2  C   UNL     1       2.681  -4.331   1.070  0.00  0.00    -0.010 C 
ATOM      3  C   UNL     1       3.028  -5.812   0.907  0.00  0.00    +0.005 C 
ATOM      4  C   UNL     1       4.030  -6.225   1.987  0.00  0.00    +0.019 C 
ATOM      5  C   UNL     1       3.398  -6.026   3.368  0.00  0.00    +0.108 C 
ATOM      6  N   UNL     1       2.930  -4.638   3.478  0.00  0.00    -0.301 N 
ATOM      7  C   UNL     1       2.034  -4.109   2.441  0.00  0.00    +0.109 C 
ATOM      8  C   UNL     1       3.317  -3.863   4.511  0.00  0.00    +0.216 C 
ATOM      9  O   UNL     1       2.924  -2.718   4.591  0.00  0.00    -0.276 OA
BRANCH   2  10
ATOM     10  C   UNL     1       1.704  -3.911  -0.029  0.00  0.00    -0.074 C 
BRANCH  10  15
ATOM     11  C   UNL     1       1.090   1.702  -0.829  0.00  0.00    +0.007 C 
ATOM     12  C   UNL     1       1.373   0.215  -1.045  0.00  0.00    -0.018 C 
ATOM     13  C   UNL     1       2.482  -0.240  -0.091  0.00  0.00    -0.016 C 
ATOM     14  C   UNL     1       2.705  -1.744  -0.257  0.00  0.00    -0.079 C 
ATOM     15  N   UNL     1       1.464  -2.464   0.055  0.00  0.00    +0.380 N 
ATOM     16  C   UNL     1       0.416  -2.087  -0.901  0.00  0.00    -0.079 C 
ATOM     17  C   UNL     1       0.105  -0.595  -0.760  0.00  0.00    -0.016 C 
ATOM     18  H   UNL     1       1.165  -2.228   0.990  0.00  0.00    -0.082 HD
ENDBRANCH  10  15
ENDBRANCH   2  10
ENDBRANCH   1   8
BRANCH   1  19
ATOM     19  C   UNL     1       4.517  -3.342   6.618  0.00  0.00    +0.108 C 
BRANCH  19  20
ATOM     20  C   UNL     1       5.437  -3.898   7.674  0.00  0.00    +0.228 A 
ATOM     21  N   UNL     1       6.740  -3.850   7.655  0.00  0.00    -0.194 NA
ATOM     22  C   UNL     1       7.237  -4.439   8.748  0.00  0.00    +0.195 A 
ATOM     23  N   UNL     1       6.251  -4.871   9.480  0.00  0.00    -0.059 NA
ATOM     24  O   UNL     1       5.057  -4.522   8.796  0.00  0.00    -0.338 OA
BRANCH  22  25
ATOM     25  C   UNL     1       8.701  -4.579   9.079  0.00  0.00    +0.097 C 
ATOM     26  C   UNL     1       9.405  -5.322   7.925  0.00  0.00    +0.034 C 
ATOM     27  C   UNL     1      10.878  -5.021   7.991  0.00  0.00    +0.003 C 
ATOM     28  C   UNL     1      11.663  -6.089   8.776  0.00  0.00    +0.000 C 
ATOM     29  C   UNL     1      10.932  -6.549  10.052  0.00  0.00    +0.000 C 
ATOM     30  C   UNL     1      10.302  -5.405  10.800  0.00  0.00    +0.003 C 
ATOM     31  C   UNL     1       8.832  -5.276  10.350  0.00  0.00    +0.034 C 
BRANCH  25  32
ATOM     32  N   UNL     1       9.288  -3.243   9.208  0.00  0.00    -0.303 N 
ATOM     33  C   UNL     1       9.261  -2.391   8.164  0.00  0.00    +0.211 C 
ATOM     34  O   UNL     1       8.751  -2.731   7.117  0.00  0.00    -0.276 OA
ATOM     35  C   UNL     1       9.864  -1.016   8.296  0.00  0.00    +0.109 C 
ATOM     36  H   UNL     1       9.695  -2.971  10.045  0.00  0.00    +0.150 HD
ENDBRANCH  25  32
ENDBRANCH  22  25
ENDBRANCH  19  20
ENDBRANCH   1  19
TORSDOF 7
