REMARK  Name = ZINC64591720
REMARK  6 active torsions:
REMARK  status: ('A' for Active; 'I' for Inactive)
REMARK    1  A    between atoms: C_1  and  C_2
REMARK    2  A    between atoms: C_7  and  N_8
REMARK    3  A    between atoms: N_8  and  S_9
REMARK    4  A    between atoms: S_9  and  C_12
REMARK    5  A    between atoms: N_19  and  C_24
REMARK    6  A    between atoms: N_22  and  C_23
REMARK                            x       y       z     vdW  Elec       q    Type
REMARK                         _______ _______ _______ _____ _____    ______ ____
ROOT
ATOM      1  C   UNL     1       0.165   1.691   0.143  0.00  0.00    +0.046 C 
ATOM      2  C   UNL     1       0.265   0.192   0.022  0.00  0.00    -0.026 A 
ATOM      3  C   UNL     1       0.434  -0.388  -1.219  0.00  0.00    +0.033 A 
ATOM      4  C   UNL     1       0.527  -1.767  -1.332  0.00  0.00    +0.070 A 
ATOM      5  C   UNL     1       0.448  -2.567  -0.190  0.00  0.00    +0.071 A 
ATOM      6  C   UNL     1       0.277  -1.982   1.054  0.00  0.00    +0.052 A 
ATOM      7  C   UNL     1       0.191  -0.601   1.161  0.00  0.00    +0.053 A 
ATOM      8  N   UNL     1       0.571  -3.888  -0.615  0.00  0.00    -0.295 N 
ATOM      9  C   UNL     1       0.718  -3.892  -1.953  0.00  0.00    +0.330 A 
ATOM     10  O   UNL     1       0.851  -4.888  -2.640  0.00  0.00    -0.246 OA
ATOM     11  N   UNL     1       0.696  -2.628  -2.416  0.00  0.00    -0.295 N 
ATOM     12  C   UNL     1       0.827  -2.226  -3.819  0.00  0.00    +0.154 C 
ATOM     13  C   UNL     1       0.545  -5.072   0.248  0.00  0.00    +0.154 C 
ENDROOT
BRANCH   7  14
ATOM     14  N   UNL     1       0.025  -0.007   2.417  0.00  0.00    -0.216 N 
ATOM     15  H   UNL     1      -0.519   0.791   2.507  0.00  0.00    +0.174 HD
BRANCH  14  16
ATOM     16  S   UNL     1       0.758  -0.665   3.748  0.00  0.00    +0.072 S 
ATOM     17  O   UNL     1       0.515   0.226   4.828  0.00  0.00    -0.150 OA
ATOM     18  O   UNL     1       0.375  -2.033   3.787  0.00  0.00    -0.150 OA
BRANCH  16  19
ATOM     19  C   UNL     1       2.495  -0.637   3.453  0.00  0.00    +0.109 A 
ATOM     20  C   UNL     1       3.108  -1.709   2.833  0.00  0.00    +0.031 A 
ATOM     21  C   UNL     1       4.471  -1.688   2.601  0.00  0.00    +0.040 A 
ATOM     22  C   UNL     1       5.221  -0.592   2.991  0.00  0.00    +0.124 A 
ATOM     23  C   UNL     1       4.607   0.481   3.612  0.00  0.00    +0.040 A 
ATOM     24  C   UNL     1       3.243   0.460   3.838  0.00  0.00    +0.031 A 
ATOM     25  F   UNL     1       6.553  -0.571   2.765  0.00  0.00    -0.205 F 
ENDBRANCH  16  19
ENDBRANCH  14  16
ENDBRANCH   7  14
TORSDOF 3
