REMARK  Name = ZINC15079767
REMARK  7 active torsions:
REMARK  status: ('A' for Active; 'I' for Inactive)
REMARK    1  A    between atoms: C_1  and  C_2
REMARK    2  A    between atoms: C_2  and  O_37
REMARK    3  A    between atoms: C_6  and  C_28
REMARK    4  A    between atoms: C_8  and  C_21
REMARK    5  A    between atoms: C_10  and  C_12
REMARK    6  A    between atoms: N_14  and  C_15
REMARK    7  A    between atoms: N_30  and  C_31
REMARK                            x       y       z     vdW  Elec       q    Type
REMARK                         _______ _______ _______ _____ _____    ______ ____
ROOT
ATOM      1  C   UNL     1      -0.425   0.284  -2.256  0.00  0.00    +0.042 C 
ATOM      2  C   UNL     1       0.059   1.723  -2.448  0.00  0.00    +0.082 C 
ATOM      3  C   UNL     1       1.577   1.782  -2.250  0.00  0.00    +0.110 C 
ATOM      4  C   UNL     1       1.889   1.441  -0.810  0.00  0.00    +0.148 C 
ATOM      5  O   UNL     1       2.704   0.593  -0.537  0.00  0.00    -0.296 OA
ATOM      6  C   UNL     1       1.152   2.188   0.280  0.00  0.00    +0.149 C 
ATOM      7  C   UNL     1      -0.351   2.114  -0.010  0.00  0.00    +0.053 C 
ATOM      8  C   UNL     1      -0.623   2.631  -1.423  0.00  0.00    +0.115 C 
ENDROOT
BRANCH   7   9
ATOM      9  C   UNL     1      -1.098   2.962   0.988  0.00  0.00    -0.042 A 
ATOM     10  C   UNL     1      -0.836   4.316   1.077  0.00  0.00    +0.005 A 
ATOM     11  C   UNL     1      -1.524   5.095   1.988  0.00  0.00    +0.020 A 
ATOM     12  C   UNL     1      -2.467   4.517   2.818  0.00  0.00    +0.041 A 
ATOM     13  C   UNL     1      -2.725   3.160   2.733  0.00  0.00    +0.020 A 
ATOM     14  C   UNL     1      -2.040   2.384   1.818  0.00  0.00    +0.005 A 
ATOM     15 CL   UNL     1      -3.327   5.494   3.967  0.00  0.00    -0.084 Cl
ENDBRANCH   7   9
BRANCH   8  16
ATOM     16  C   UNL     1      -2.108   2.644  -1.676  0.00  0.00    +0.224 C 
ATOM     17  O   UNL     1      -2.874   2.276  -0.810  0.00  0.00    -0.275 OA
ATOM     18  N   UNL     1      -2.587   3.065  -2.863  0.00  0.00    -0.285 N 
ATOM     19  H   UNL     1      -1.982   3.430  -3.528  0.00  0.00    +0.155 HD
BRANCH  18  20
ATOM     20  C   UNL     1      -3.956   2.976  -3.137  0.00  0.00    +0.033 A 
ATOM     21  C   UNL     1      -4.571   3.935  -3.931  0.00  0.00    +0.023 A 
ATOM     22  C   UNL     1      -5.922   3.841  -4.204  0.00  0.00    +0.002 A 
ATOM     23  C   UNL     1      -6.664   2.799  -3.679  0.00  0.00    +0.000 A 
ATOM     24  C   UNL     1      -6.056   1.845  -2.884  0.00  0.00    +0.002 A 
ATOM     25  C   UNL     1      -4.704   1.931  -2.612  0.00  0.00    +0.023 A 
ENDBRANCH  18  20
ENDBRANCH   8  16
BRANCH   6  26
ATOM     26  C   UNL     1       1.441   1.556   1.617  0.00  0.00    +0.228 C 
ATOM     27  O   UNL     1       0.536   1.091   2.277  0.00  0.00    -0.275 OA
ATOM     28  N   UNL     1       2.706   1.508   2.079  0.00  0.00    -0.285 N 
ATOM     29  H   UNL     1       3.419   1.945   1.588  0.00  0.00    +0.155 HD
BRANCH  28  30
ATOM     30  C   UNL     1       2.991   0.828   3.269  0.00  0.00    +0.033 A 
ATOM     31  C   UNL     1       4.005   1.279   4.103  0.00  0.00    +0.023 A 
ATOM     32  C   UNL     1       4.280   0.609   5.279  0.00  0.00    +0.002 A 
ATOM     33  C   UNL     1       3.554  -0.517   5.620  0.00  0.00    +0.000 A 
ATOM     34  C   UNL     1       2.546  -0.972   4.789  0.00  0.00    +0.002 A 
ATOM     35  C   UNL     1       2.263  -0.303   3.615  0.00  0.00    +0.023 A 
ENDBRANCH  28  30
ENDBRANCH   6  26
BRANCH   2  36
ATOM     36  O   UNL     1      -0.267   2.164  -3.768  0.00  0.00    -0.388 OA
ATOM     37  H   UNL     1       0.133   1.633  -4.470  0.00  0.00    +0.210 HD
ENDBRANCH   2  36
TORSDOF 6
