REMARK  Name = ZINC49408119
REMARK  4 active torsions:
REMARK  status: ('A' for Active; 'I' for Inactive)
REMARK    1  A    between atoms: C_4  and  C_8
REMARK    2  A    between atoms: C_8  and  N_9
REMARK    3  A    between atoms: C_14  and  S_19
REMARK    4  A    between atoms: S_19  and  N_22
REMARK                            x       y       z     vdW  Elec       q    Type
REMARK                         _______ _______ _______ _____ _____    ______ ____
ROOT
ATOM      1  N   UNL     1       4.152  -0.955   1.338  0.00  0.00    -0.208 N 
ATOM      2  C   UNL     1       3.865  -2.041   2.085  0.00  0.00    +0.351 A 
ATOM      3  O   UNL     1       3.191  -2.995   1.734  0.00  0.00    -0.244 OA
ATOM      4  N   UNL     1       4.455  -1.885   3.287  0.00  0.00    -0.249 N 
ATOM      5  C   UNL     1       4.481  -2.684   4.405  0.00  0.00    +0.126 A 
ATOM      6  C   UNL     1       5.152  -2.302   5.506  0.00  0.00    +0.122 A 
ATOM      7  C   UNL     1       5.843  -1.074   5.534  0.00  0.00    +0.033 A 
ATOM      8  C   UNL     1       5.833  -0.268   4.444  0.00  0.00    +0.050 A 
ATOM      9  C   UNL     1       5.124  -0.676   3.287  0.00  0.00    +0.162 A 
ATOM     10  N   UNL     1       4.954  -0.108   2.115  0.00  0.00    -0.148 NA
ENDROOT
BRANCH   6  11
ATOM     11  S   UNL     1       5.167  -3.346   6.925  0.00  0.00    +0.062 S 
ATOM     12  O   UNL     1       4.955  -2.505   8.050  0.00  0.00    -0.153 OA
ATOM     13  O   UNL     1       4.321  -4.448   6.628  0.00  0.00    -0.153 OA
BRANCH  11  14
ATOM     14  N   UNL     1       6.701  -3.953   7.070  0.00  0.00    -0.172 NA
ATOM     15  C   UNL     1       7.084  -5.212   6.411  0.00  0.00    +0.137 C 
ATOM     16  C   UNL     1       8.377  -4.972   5.624  0.00  0.00    +0.177 C 
ATOM     17  O   UNL     1       9.353  -4.386   6.489  0.00  0.00    -0.377 OA
ATOM     18  C   UNL     1       8.985  -3.104   7.004  0.00  0.00    +0.177 C 
ATOM     19  C   UNL     1       7.724  -3.245   7.857  0.00  0.00    +0.137 C 
ENDBRANCH  11  14
ENDBRANCH   6  11
BRANCH   1  20
ATOM     20  C   UNL     1       3.713  -0.710  -0.038  0.00  0.00    +0.188 C 
BRANCH  20  24
ATOM     21  C   UNL     1      -0.017   1.378   0.010  0.00  0.00    +0.004 A 
ATOM     22  C   UNL     1       1.170   2.086   0.002  0.00  0.00    +0.039 A 
ATOM     23  C   UNL     1       2.379   1.411  -0.013  0.00  0.00    +0.130 A 
ATOM     24  C   UNL     1       2.398   0.026  -0.021  0.00  0.00    +0.027 A 
ATOM     25  C   UNL     1       1.209  -0.680  -0.013  0.00  0.00    +0.049 A 
ATOM     26  C   UNL     1       0.002  -0.004   0.002  0.00  0.00    +0.020 A 
ATOM     27 CL   UNL     1       1.232  -2.416  -0.022  0.00  0.00    -0.083 Cl
ATOM     28  F   UNL     1       3.539   2.103  -0.021  0.00  0.00    -0.205 F 
ENDBRANCH  20  24
ENDBRANCH   1  20
TORSDOF 4
