REMARK  Name = ZINC13464893
REMARK  6 active torsions:
REMARK  status: ('A' for Active; 'I' for Inactive)
REMARK    1  A    between atoms: C_1  and  C_2
REMARK    2  A    between atoms: C_10  and  C_20
REMARK    3  A    between atoms: N_12  and  C_13
REMARK    4  A    between atoms: C_13  and  C_14
REMARK    5  A    between atoms: N_22  and  C_23
REMARK    6  A    between atoms: C_23  and  C_24
REMARK                            x       y       z     vdW  Elec       q    Type
REMARK                         _______ _______ _______ _____ _____    ______ ____
ROOT
ATOM      1  C   UNL     1       0.178   1.491  -7.389  0.00  0.00    +0.045 C 
ATOM      2  C   UNL     1       0.084   1.464  -5.885  0.00  0.00    -0.034 A 
ATOM      3  C   UNL     1      -1.101   1.046  -5.265  0.00  0.00    +0.008 A 
ATOM      4  C   UNL     1      -1.177   1.025  -3.904  0.00  0.00    +0.047 A 
ATOM      5  C   UNL     1      -0.065   1.423  -3.140  0.00  0.00    +0.143 A 
ATOM      6  N   UNL     1      -0.152   1.398  -1.810  0.00  0.00    -0.211 NA
ATOM      7  C   UNL     1       0.864   1.762  -1.038  0.00  0.00    +0.150 A 
ATOM      8  C   UNL     1       2.071   2.188  -1.639  0.00  0.00    +0.083 A 
ATOM      9  C   UNL     1       3.164   2.579  -0.853  0.00  0.00    +0.033 A 
ATOM     10  C   UNL     1       3.055   2.547   0.531  0.00  0.00    +0.078 A 
ATOM     11  C   UNL     1       1.790   2.105   1.137  0.00  0.00    +0.119 A 
ATOM     12  N   UNL     1       0.741   1.724   0.329  0.00  0.00    -0.307 N 
ATOM     13  C   UNL     1       2.155   2.211  -3.056  0.00  0.00    +0.268 A 
ATOM     14  O   UNL     1       3.177   2.571  -3.612  0.00  0.00    -0.267 OA
ATOM     15  N   UNL     1       1.077   1.826  -3.774  0.00  0.00    -0.267 N 
ATOM     16  C   UNL     1       1.144   1.843  -5.136  0.00  0.00    +0.099 A 
ATOM     17  H   UNL     1       2.316   2.389   3.090  0.00  0.00    +0.157 HD
ATOM     18  N   UNL     1       1.599   2.041   2.453  0.00  0.00    -0.384 N 
ATOM     19  H   UNL     1       0.730   1.641   2.827  0.00  0.00    +0.157 HD
ENDROOT
BRANCH  10  20
ATOM     20  C   UNL     1       4.184   2.952   1.375  0.00  0.00    +0.248 C 
ATOM     21  O   UNL     1       4.047   3.020   2.583  0.00  0.00    -0.270 OA
ATOM     22  N   UNL     1       5.373   3.248   0.815  0.00  0.00    -0.304 N 
ATOM     23  H   UNL     1       5.483   3.194  -0.148  0.00  0.00    +0.149 HD
BRANCH  22  24
ATOM     24  C   UNL     1       6.501   3.653   1.658  0.00  0.00    +0.179 C 
BRANCH  24  25
ATOM     25  C   UNL     1       7.704   3.926   0.792  0.00  0.00    +0.122 A 
ATOM     26  C   UNL     1       8.027   5.112   0.246  0.00  0.00    +0.046 A 
ATOM     27  C   UNL     1       9.222   4.915  -0.483  0.00  0.00    +0.041 A 
ATOM     28  C   UNL     1       9.558   3.621  -0.339  0.00  0.00    +0.195 A 
ATOM     29  O   UNL     1       8.637   3.028   0.439  0.00  0.00    -0.466 OA
ENDBRANCH  24  25
ENDBRANCH  22  24
ENDBRANCH  10  20
BRANCH  12  30
ATOM     30  C   UNL     1      -0.518   1.280   0.933  0.00  0.00    +0.160 C 
BRANCH  30  31
ATOM     31  C   UNL     1      -0.474  -0.211   1.145  0.00  0.00    -0.028 A 
ATOM     32  C   UNL     1      -0.923  -1.064   0.154  0.00  0.00    +0.005 A 
ATOM     33  C   UNL     1      -0.879  -2.432   0.347  0.00  0.00    +0.000 A 
ATOM     34  C   UNL     1      -0.395  -2.947   1.535  0.00  0.00    +0.000 A 
ATOM     35  C   UNL     1       0.049  -2.095   2.528  0.00  0.00    +0.000 A 
ATOM     36  C   UNL     1       0.009  -0.727   2.333  0.00  0.00    +0.005 A 
ENDBRANCH  30  31
ENDBRANCH  12  30
TORSDOF 5
