REMARK  Name = ZINC66390403
REMARK  7 active torsions:
REMARK  status: ('A' for Active; 'I' for Inactive)
REMARK    1  A    between atoms: C_1  and  C_2
REMARK    2  A    between atoms: C_2  and  C_4
REMARK    3  A    between atoms: C_2  and  N_15
REMARK    4  A    between atoms: N_6  and  C_7
REMARK    5  A    between atoms: N_15  and  C_16
REMARK    6  A    between atoms: C_16  and  C_17
REMARK    7  A    between atoms: C_17  and  C_23
REMARK                            x       y       z     vdW  Elec       q    Type
REMARK                         _______ _______ _______ _____ _____    ______ ____
ROOT
ATOM      1  N   UNL     1       0.619  -0.371   1.132  0.00  0.00    +0.387 N 
ATOM      2  H   UNL     1       0.379   0.170   1.949  0.00  0.00    -0.085 HD
ATOM      3  H   UNL     1       0.581  -1.354   1.356  0.00  0.00    -0.085 HD
ENDROOT
BRANCH   1   5
ATOM      4  C   UNL     1      -0.369   1.430  -0.201  0.00  0.00    -0.004 C 
ATOM      5  C   UNL     1      -0.335  -0.078   0.054  0.00  0.00    +0.013 C 
BRANCH   5   6
ATOM      6  C   UNL     1      -1.708  -0.551   0.455  0.00  0.00    +0.203 C 
ATOM      7  O   UNL     1      -1.876  -1.080   1.534  0.00  0.00    -0.277 OA
ATOM      8  N   UNL     1      -2.750  -0.386  -0.384  0.00  0.00    -0.287 N 
ATOM      9  H   UNL     1      -2.630   0.096  -1.217  0.00  0.00    +0.155 HD
BRANCH   8  10
ATOM     10  C   UNL     1      -4.005  -0.912  -0.054  0.00  0.00    +0.036 A 
ATOM     11  C   UNL     1      -4.829  -1.421  -1.049  0.00  0.00    +0.026 A 
ATOM     12  C   UNL     1      -6.067  -1.939  -0.723  0.00  0.00    +0.043 A 
ATOM     13  C   UNL     1      -6.488  -1.952   0.596  0.00  0.00    +0.159 A 
ATOM     14  C   UNL     1      -5.667  -1.444   1.592  0.00  0.00    +0.160 A 
ATOM     15  C   UNL     1      -4.424  -0.930   1.269  0.00  0.00    +0.064 A 
ATOM     16  F   UNL     1      -6.079  -1.457   2.879  0.00  0.00    -0.202 F 
ATOM     17  F   UNL     1      -7.699  -2.459   0.913  0.00  0.00    -0.202 F 
ENDBRANCH   8  10
ENDBRANCH   5   6
ENDBRANCH   1   5
BRANCH   1  18
ATOM     18  C   UNL     1       1.976  -0.020   0.694  0.00  0.00    -0.070 C 
BRANCH  18  19
ATOM     19  C   UNL     1       2.977  -0.389   1.791  0.00  0.00    -0.015 C 
ATOM     20  C   UNL     1       2.555   0.264   3.111  0.00  0.00    +0.038 C 
ATOM     21  C   UNL     1       2.596   1.786   2.954  0.00  0.00    +0.160 C 
ATOM     22  O   UNL     1       3.911   2.189   2.565  0.00  0.00    -0.380 OA
ATOM     23  C   UNL     1       4.341   1.647   1.315  0.00  0.00    +0.160 C 
ATOM     24  C   UNL     1       4.370   0.119   1.405  0.00  0.00    +0.038 C 
BRANCH  19  25
ATOM     25  C   UNL     1       3.015  -1.886   1.956  0.00  0.00    -0.043 A 
ATOM     26  C   UNL     1       2.341  -2.697   1.061  0.00  0.00    +0.007 A 
ATOM     27  C   UNL     1       2.375  -4.070   1.211  0.00  0.00    +0.038 A 
ATOM     28  C   UNL     1       3.084  -4.634   2.259  0.00  0.00    +0.123 A 
ATOM     29  C   UNL     1       3.757  -3.822   3.154  0.00  0.00    +0.038 A 
ATOM     30  C   UNL     1       3.727  -2.449   2.999  0.00  0.00    +0.007 A 
ATOM     31  F   UNL     1       3.117  -5.977   2.407  0.00  0.00    -0.205 F 
ENDBRANCH  19  25
ENDBRANCH  18  19
ENDBRANCH   1  18
TORSDOF 6
