REMARK  Name = ZINC13981847
REMARK  11 active torsions:
REMARK  status: ('A' for Active; 'I' for Inactive)
REMARK    1  A    between atoms: C_1  and  C_2
REMARK    2  A    between atoms: C_2  and  C_3
REMARK    3  A    between atoms: C_2  and  C_4
REMARK    4  A    between atoms: C_2  and  C_5
REMARK    5  A    between atoms: C_8  and  C_11
REMARK    6  A    between atoms: N_13  and  C_14
REMARK    7  A    between atoms: C_14  and  N_16
REMARK    8  A    between atoms: N_16  and  C_17
REMARK    9  A    between atoms: C_20  and  S_23
REMARK   10  A    between atoms: S_23  and  N_26
REMARK   11  A    between atoms: N_26  and  C_27
REMARK                            x       y       z     vdW  Elec       q    Type
REMARK                         _______ _______ _______ _____ _____    ______ ____
ROOT
ATOM      1  N   UNL     1       3.119  -4.967   0.087  0.00  0.00    -0.297 N 
ATOM      2  H   UNL     1       3.979  -4.307   0.279  0.00  0.00    +0.154 HD
ENDROOT
BRANCH   1   3
ATOM      3  C   UNL     1       3.271  -6.355   0.173  0.00  0.00    +0.033 A 
ATOM      4  C   UNL     1       3.958  -6.916   1.242  0.00  0.00    +0.025 A 
ATOM      5  C   UNL     1       4.101  -8.287   1.325  0.00  0.00    +0.030 A 
ATOM      6  C   UNL     1       3.571  -9.100   0.341  0.00  0.00    +0.109 A 
ATOM      7  C   UNL     1       2.891  -8.545  -0.728  0.00  0.00    +0.030 A 
ATOM      8  C   UNL     1       2.740  -7.175  -0.815  0.00  0.00    +0.025 A 
BRANCH   6   9
ATOM      9  S   UNL     1       3.762 -10.848   0.448  0.00  0.00    +0.072 S 
ATOM     10  O   UNL     1       3.858 -11.163   1.831  0.00  0.00    -0.150 OA
ATOM     11  O   UNL     1       2.770 -11.418  -0.395  0.00  0.00    -0.150 OA
BRANCH   9  12
ATOM     12  N   UNL     1       5.228 -11.223  -0.226  0.00  0.00    -0.216 N 
ATOM     13  H   UNL     1       5.272 -11.819  -1.150  0.00  0.00    +0.174 HD
BRANCH  12  14
ATOM     14  C   UNL     1       6.407 -10.783   0.379  0.00  0.00    +0.048 A 
ATOM     15  C   UNL     1       7.137  -9.747  -0.190  0.00  0.00    +0.024 A 
ATOM     16  C   UNL     1       8.300  -9.311   0.413  0.00  0.00    +0.002 A 
ATOM     17  C   UNL     1       8.745  -9.912   1.576  0.00  0.00    +0.000 A 
ATOM     18  C   UNL     1       8.023 -10.947   2.143  0.00  0.00    +0.002 A 
ATOM     19  C   UNL     1       6.856 -11.384   1.548  0.00  0.00    +0.024 A 
ENDBRANCH  12  14
ENDBRANCH   9  12
ENDBRANCH   6   9
ENDBRANCH   1   3
BRANCH   1  20
ATOM     20  C   UNL     1       1.921  -4.438  -0.230  0.00  0.00    +0.141 C 
ATOM     21  S   UNL     1       0.612  -5.464  -0.635  0.00  0.00    -0.018 S 
BRANCH  20  24
ATOM     22  C   UNL     1       0.555  -2.571  -0.545  0.00  0.00    +0.250 C 
ATOM     23  O   UNL     1      -0.374  -3.300  -0.833  0.00  0.00    -0.270 OA
ATOM     24  N   UNL     1       1.753  -3.100  -0.228  0.00  0.00    -0.264 N 
ATOM     25  H   UNL     1       2.594  -2.441   0.032  0.00  0.00    +0.157 HD
BRANCH  22  29
ATOM     26  C   UNL     1       0.025   1.642  -0.538  0.00  0.00    -0.042 A 
ATOM     27  C   UNL     1      -1.035   0.816  -0.867  0.00  0.00    +0.005 A 
ATOM     28  C   UNL     1      -0.870  -0.554  -0.871  0.00  0.00    +0.013 A 
ATOM     29  C   UNL     1       0.371  -1.105  -0.543  0.00  0.00    +0.037 A 
ATOM     30  C   UNL     1       1.436  -0.265  -0.213  0.00  0.00    +0.013 A 
ATOM     31  C   UNL     1       1.257   1.103  -0.212  0.00  0.00    +0.005 A 
BRANCH  26  33
ATOM     32  C   UNL     1      -1.253   3.513   0.470  0.00  0.00    +0.015 C 
ATOM     33  C   UNL     1      -0.163   3.138  -0.536  0.00  0.00    -0.013 C 
ATOM     34  C   UNL     1       1.151   3.816  -0.142  0.00  0.00    +0.015 C 
ATOM     35  C   UNL     1      -0.578   3.602  -1.933  0.00  0.00    +0.015 C 
ENDBRANCH  26  33
ENDBRANCH  22  29
ENDBRANCH  20  24
ENDBRANCH   1  20
TORSDOF 8
