REMARK  Name = ZINC34952721
REMARK  9 active torsions:
REMARK  status: ('A' for Active; 'I' for Inactive)
REMARK    1  A    between atoms: C_1  and  C_2
REMARK    2  A    between atoms: C_2  and  C_3
REMARK    3  A    between atoms: C_3  and  C_4
REMARK    4  A    between atoms: C_4  and  C_6
REMARK    5  A    between atoms: C_4  and  N_23
REMARK    6  A    between atoms: N_11  and  C_14
REMARK    7  A    between atoms: C_14  and  C_15
REMARK    8  A    between atoms: C_16  and  C_17
REMARK    9  A    between atoms: N_26  and  C_27
REMARK                            x       y       z     vdW  Elec       q    Type
REMARK                         _______ _______ _______ _____ _____    ______ ____
ROOT
ATOM      1  C   UNL     1       0.322  -2.439  -1.163  0.00  0.00    +0.161 C 
ENDROOT
BRANCH   1   2
ATOM      2  C   UNL     1       1.055  -2.891  -2.399  0.00  0.00    +0.236 C 
ATOM      3  O   UNL     1       0.448  -3.420  -3.306  0.00  0.00    -0.274 OA
ATOM      4  N   UNL     1       2.387  -2.708  -2.498  0.00  0.00    -0.298 N 
ATOM      5  C   UNL     1       3.163  -2.183  -1.363  0.00  0.00    +0.123 C 
ATOM      6  C   UNL     1       4.353  -3.115  -1.115  0.00  0.00    +0.103 C 
ATOM      7  N   UNL     1       5.111  -3.280  -2.363  0.00  0.00    -0.296 NA
ATOM      8  C   UNL     1       4.296  -3.926  -3.400  0.00  0.00    +0.103 C 
ATOM      9  C   UNL     1       3.104  -3.033  -3.740  0.00  0.00    +0.123 C 
BRANCH   7  10
ATOM     10  C   UNL     1       6.355  -4.026  -2.129  0.00  0.00    +0.111 C 
BRANCH  10  11
ATOM     11  C   UNL     1       7.217  -3.964  -3.363  0.00  0.00    -0.011 C 
ATOM     12  C   UNL     1       8.463  -3.519  -3.280  0.00  0.00    +0.005 C 
BRANCH  12  13
ATOM     13  C   UNL     1       9.309  -3.458  -4.491  0.00  0.00    -0.025 A 
ATOM     14  C   UNL     1       8.797  -3.864  -5.724  0.00  0.00    +0.008 A 
ATOM     15  C   UNL     1       9.592  -3.805  -6.850  0.00  0.00    +0.001 A 
ATOM     16  C   UNL     1      10.893  -3.345  -6.759  0.00  0.00    +0.000 A 
ATOM     17  C   UNL     1      11.407  -2.942  -5.539  0.00  0.00    +0.001 A 
ATOM     18  C   UNL     1      10.620  -2.990  -4.406  0.00  0.00    +0.008 A 
ENDBRANCH  12  13
ENDBRANCH  10  11
ENDBRANCH   7  10
ENDBRANCH   1   2
BRANCH   1  19
ATOM     19  N   UNL     1      -0.935  -3.183  -1.041  0.00  0.00    -0.288 N 
ATOM     20  C   UNL     1      -1.507  -3.345   0.168  0.00  0.00    +0.305 C 
ATOM     21  O   UNL     1      -0.981  -2.875   1.158  0.00  0.00    -0.252 OA
ATOM     22  N   UNL     1      -2.663  -4.029   0.280  0.00  0.00    -0.268 N 
ATOM     23  H   UNL     1      -1.355  -3.558  -1.831  0.00  0.00    +0.151 HD
ATOM     24  H   UNL     1      -3.123  -4.338  -0.516  0.00  0.00    +0.156 HD
BRANCH  22  25
ATOM     25  C   UNL     1      -3.201  -4.292   1.545  0.00  0.00    +0.055 A 
ATOM     26  C   UNL     1      -2.381  -4.280   2.666  0.00  0.00    +0.025 A 
ATOM     27  C   UNL     1      -2.914  -4.540   3.914  0.00  0.00    +0.003 A 
ATOM     28  C   UNL     1      -4.263  -4.813   4.048  0.00  0.00    +0.021 A 
ATOM     29  C   UNL     1      -5.084  -4.827   2.935  0.00  0.00    +0.061 A 
ATOM     30  C   UNL     1      -4.557  -4.561   1.683  0.00  0.00    +0.080 A 
ATOM     31 CL   UNL     1      -5.587  -4.572   0.286  0.00  0.00    -0.080 Cl
ATOM     32 CL   UNL     1      -6.776  -5.171   3.108  0.00  0.00    -0.082 Cl
ENDBRANCH  22  25
ENDBRANCH   1  19
BRANCH   1  33
ATOM     33  C   UNL     1       0.021  -0.943  -1.267  0.00  0.00    +0.031 C 
BRANCH  33  35
ATOM     34  C   UNL     1      -0.895   1.043  -0.059  0.00  0.00    +0.004 C 
ATOM     35  C   UNL     1      -0.594  -0.454   0.046  0.00  0.00    -0.001 C 
ENDBRANCH  33  35
ENDBRANCH   1  33
TORSDOF 8
