REMARK  Name = ZINC54200676
REMARK  7 active torsions:
REMARK  status: ('A' for Active; 'I' for Inactive)
REMARK    1  A    between atoms: C_4  and  C_7
REMARK    2  A    between atoms: C_7  and  C_8
REMARK    3  A    between atoms: C_8  and  C_10
REMARK    4  A    between atoms: C_8  and  N_27
REMARK    5  A    between atoms: N_12  and  C_13
REMARK    6  A    between atoms: N_27  and  S_28
REMARK    7  A    between atoms: S_28  and  C_31
REMARK                            x       y       z     vdW  Elec       q    Type
REMARK                         _______ _______ _______ _____ _____    ______ ____
ROOT
ATOM      1  C   UNL     1       4.111  -0.837   1.342  0.00  0.00    +0.167 C 
ENDROOT
BRANCH   1   2
ATOM      2  C   UNL     1       5.567  -1.222   1.400  0.00  0.00    +0.236 C 
ATOM      3  O   UNL     1       5.912  -2.192   2.040  0.00  0.00    -0.274 OA
ATOM      4  N   UNL     1       6.485  -0.487   0.740  0.00  0.00    -0.284 N 
ATOM      5  H   UNL     1       6.202   0.250   0.177  0.00  0.00    +0.155 HD
BRANCH   4   6
ATOM      6  C   UNL     1       7.844  -0.788   0.868  0.00  0.00    +0.034 A 
ATOM      7  C   UNL     1       8.782   0.234   0.878  0.00  0.00    +0.024 A 
ATOM      8  C   UNL     1      10.130  -0.054   1.005  0.00  0.00    +0.011 A 
ATOM      9  C   UNL     1      10.553  -1.372   1.123  0.00  0.00    -0.006 A 
ATOM     10  C   UNL     1       9.605  -2.409   1.113  0.00  0.00    +0.032 A 
ATOM     11  C   UNL     1       8.254  -2.113   0.991  0.00  0.00    +0.035 A 
ATOM     12  C   UNL     1      10.335  -3.692   1.252  0.00  0.00    +0.194 C 
ATOM     13  O   UNL     1       9.844  -4.803   1.283  0.00  0.00    -0.287 OA
ATOM     14  C   UNL     1      11.777  -3.365   1.347  0.00  0.00    +0.030 A 
ATOM     15  C   UNL     1      11.906  -1.968   1.268  0.00  0.00    -0.006 A 
ATOM     16  C   UNL     1      13.168  -1.393   1.333  0.00  0.00    +0.009 A 
ATOM     17  C   UNL     1      14.289  -2.196   1.472  0.00  0.00    +0.001 A 
ATOM     18  C   UNL     1      14.162  -3.570   1.549  0.00  0.00    +0.001 A 
ATOM     19  C   UNL     1      12.909  -4.158   1.487  0.00  0.00    +0.012 A 
ENDBRANCH   4   6
ENDBRANCH   1   2
BRANCH   1  20
ATOM     20  N   UNL     1       3.323  -1.784   2.135  0.00  0.00    -0.178 NA
ATOM     21  H   UNL     1       3.029  -2.620   1.739  0.00  0.00    +0.149 HD
BRANCH  20  22
ATOM     22  S   UNL     1       2.936  -1.429   3.705  0.00  0.00    +0.059 S 
ATOM     23  O   UNL     1       2.151  -2.512   4.184  0.00  0.00    -0.153 OA
ATOM     24  O   UNL     1       4.141  -1.022   4.338  0.00  0.00    -0.153 OA
BRANCH  22  25
ATOM     25  C   UNL     1       1.881  -0.018   3.674  0.00  0.00    +0.105 A 
ATOM     26  C   UNL     1       2.426   1.252   3.635  0.00  0.00    +0.030 A 
ATOM     27  C   UNL     1       1.600   2.359   3.611  0.00  0.00    +0.022 A 
ATOM     28  C   UNL     1       0.226   2.197   3.627  0.00  0.00    +0.041 A 
ATOM     29  C   UNL     1      -0.320   0.926   3.667  0.00  0.00    +0.022 A 
ATOM     30  C   UNL     1       0.508  -0.181   3.684  0.00  0.00    +0.030 A 
ATOM     31 CL   UNL     1      -0.813   3.587   3.598  0.00  0.00    -0.084 Cl
ENDBRANCH  22  25
ENDBRANCH  20  22
ENDBRANCH   1  20
BRANCH   1  32
ATOM     32  C   UNL     1       3.633  -0.866  -0.111  0.00  0.00    +0.065 C 
BRANCH  32  36
ATOM     33  C   UNL     1      -0.426   0.451  -0.304  0.00  0.00    +0.000 A 
ATOM     34  C   UNL     1       0.602   1.376  -0.313  0.00  0.00    +0.000 A 
ATOM     35  C   UNL     1       1.915   0.949  -0.250  0.00  0.00    +0.004 A 
ATOM     36  C   UNL     1       2.201  -0.401  -0.178  0.00  0.00    -0.045 A 
ATOM     37  C   UNL     1       1.173  -1.325  -0.169  0.00  0.00    +0.004 A 
ATOM     38  C   UNL     1      -0.140  -0.899  -0.233  0.00  0.00    +0.000 A 
ENDBRANCH  32  36
ENDBRANCH   1  32
TORSDOF 7
