REMARK  Name = ZINC14271873
REMARK  8 active torsions:
REMARK  status: ('A' for Active; 'I' for Inactive)
REMARK    1  A    between atoms: C_1  and  C_2
REMARK    2  A    between atoms: C_5  and  C_11
REMARK    3  A    between atoms: C_7  and  N_8
REMARK    4  A    between atoms: N_13  and  C_14
REMARK    5  A    between atoms: C_14  and  N_16
REMARK    6  A    between atoms: N_16  and  C_17
REMARK    7  A    between atoms: C_20  and  N_24
REMARK    8  A    between atoms: C_27  and  C_30
REMARK                            x       y       z     vdW  Elec       q    Type
REMARK                         _______ _______ _______ _____ _____    ______ ____
ROOT
ATOM      1  C   UNL     1       3.320   3.616  -0.209  0.00  0.00    +0.141 C 
ATOM      2  S   UNL     1       2.782   2.533  -1.421  0.00  0.00    -0.018 S 
ENDROOT
BRANCH   1   5
ATOM      3  C   UNL     1       5.373   3.819  -1.301  0.00  0.00    +0.250 C 
ATOM      4  O   UNL     1       4.992   3.050  -2.161  0.00  0.00    -0.270 OA
ATOM      5  N   UNL     1       4.559   4.144  -0.278  0.00  0.00    -0.264 N 
ATOM      6  H   UNL     1       4.863   4.757   0.409  0.00  0.00    +0.157 HD
BRANCH   3  11
ATOM      7  C   UNL     1      10.660   6.072  -1.597  0.00  0.00    +0.046 C 
ATOM      8  C   UNL     1       9.275   5.482  -1.520  0.00  0.00    -0.020 A 
ATOM      9  C   UNL     1       8.441   5.817  -0.467  0.00  0.00    +0.006 A 
ATOM     10  C   UNL     1       7.171   5.285  -0.393  0.00  0.00    +0.013 A 
ATOM     11  C   UNL     1       6.731   4.397  -1.377  0.00  0.00    +0.039 A 
ATOM     12  C   UNL     1       7.578   4.062  -2.435  0.00  0.00    +0.046 A 
ATOM     13  C   UNL     1       8.844   4.606  -2.500  0.00  0.00    +0.130 A 
BRANCH  13  14
ATOM     14  N   UNL     1       9.743   4.252  -3.622  0.00  0.00    +0.057 N 
ATOM     15  O   UNL     1       9.405   3.405  -4.429  0.00  0.00    -0.126 OA
ATOM     16  O   UNL     1      10.821   4.808  -3.737  0.00  0.00    -0.126 OA
ENDBRANCH  13  14
ENDBRANCH   3  11
ENDBRANCH   1   5
BRANCH   1  17
ATOM     17  N   UNL     1       2.505   3.941   0.814  0.00  0.00    -0.297 N 
ATOM     18  H   UNL     1       2.782   4.609   1.462  0.00  0.00    +0.154 HD
BRANCH  17  19
ATOM     19  C   UNL     1       1.258   3.316   0.943  0.00  0.00    +0.034 A 
ATOM     20  C   UNL     1       1.136   1.955   0.695  0.00  0.00    +0.025 A 
ATOM     21  C   UNL     1      -0.093   1.337   0.822  0.00  0.00    +0.026 A 
ATOM     22  C   UNL     1      -1.207   2.078   1.192  0.00  0.00    +0.048 A 
ATOM     23  C   UNL     1      -1.084   3.439   1.445  0.00  0.00    +0.064 A 
ATOM     24  C   UNL     1       0.145   4.056   1.318  0.00  0.00    +0.045 A 
ATOM     25 CL   UNL     1      -2.476   4.365   1.913  0.00  0.00    -0.082 Cl
BRANCH  22  26
ATOM     26  N   UNL     1      -2.454   1.454   1.315  0.00  0.00    -0.329 N 
ATOM     27  C   UNL     1      -2.422   0.100   0.748  0.00  0.00    +0.105 C 
ATOM     28  C   UNL     1      -3.832  -0.496   0.767  0.00  0.00    +0.022 C 
ATOM     29  C   UNL     1      -4.343  -0.539   2.210  0.00  0.00    -0.011 C 
ATOM     30  C   UNL     1      -4.320   0.876   2.794  0.00  0.00    +0.022 C 
ATOM     31  C   UNL     1      -2.896   1.432   2.715  0.00  0.00    +0.105 C 
ATOM     32  C   UNL     1      -5.774  -1.078   2.230  0.00  0.00    +0.007 C 
ENDBRANCH  22  26
ENDBRANCH  17  19
ENDBRANCH   1  17
TORSDOF 6
