REMARK  Name = ZINC04069875
REMARK  2 active torsions:
REMARK  status: ('A' for Active; 'I' for Inactive)
REMARK    1  A    between atoms: C_15  and  C_17
REMARK    2  A    between atoms: C_20  and  N_22
REMARK                            x       y       z     vdW  Elec       q    Type
REMARK                         _______ _______ _______ _____ _____    ______ ____
ROOT
ATOM      1  C   UNL     1       1.151   3.170   0.008  0.00  0.00    +0.001 A 
ATOM      2  C   UNL     1       1.157   1.778   0.001  0.00  0.00    +0.001 A 
ATOM      3  C   UNL     1      -0.013   1.076   0.008  0.00  0.00    +0.010 A 
ATOM      4  C   UNL     1      -1.232   1.764   0.018  0.00  0.00    +0.009 A 
ATOM      5  C   UNL     1      -1.242   3.175   0.031  0.00  0.00    -0.016 A 
ATOM      6  C   UNL     1      -0.018   3.868   0.023  0.00  0.00    +0.008 A 
ATOM      7  C   UNL     1      -2.463   3.879   0.046  0.00  0.00    +0.010 A 
ATOM      8  C   UNL     1      -3.640   3.197   0.053  0.00  0.00    +0.018 A 
ATOM      9  C   UNL     1      -3.670   1.815   0.046  0.00  0.00    +0.041 A 
ATOM     10  C   UNL     1      -2.508   1.022   0.032  0.00  0.00    +0.088 A 
ATOM     11  N   UNL     1      -2.701  -0.305   0.026  0.00  0.00    -0.224 NA
ATOM     12  C   UNL     1      -3.899  -0.847   0.034  0.00  0.00    +0.166 A 
ATOM     13  S   UNL     1      -4.960   0.591   0.051  0.00  0.00    -0.052 S 
ATOM     14  N   UNL     1      -4.248  -2.187   0.029  0.00  0.00    -0.260 N 
ATOM     15  C   UNL     1      -5.547  -2.545   0.039  0.00  0.00    +0.256 C 
ATOM     16  O   UNL     1      -6.413  -1.690   0.052  0.00  0.00    -0.269 OA
ATOM     17  H   UNL     1      -3.557  -2.868   0.019  0.00  0.00    +0.157 HD
ENDROOT
BRANCH  15  18
ATOM     18  C   UNL     1      -5.917  -3.962   0.034  0.00  0.00    +0.076 A 
ATOM     19  C   UNL     1      -7.179  -4.537   0.042  0.00  0.00    +0.023 A 
ATOM     20  C   UNL     1      -7.241  -5.908   0.034  0.00  0.00    +0.041 A 
ATOM     21  C   UNL     1      -6.087  -6.625   0.018  0.00  0.00    +0.164 A 
ATOM     22  S   UNL     1      -4.860  -5.400   0.008  0.00  0.00    -0.060 S 
BRANCH  21  23
ATOM     23  N   UNL     1      -5.918  -8.095   0.007  0.00  0.00    +0.063 N 
ATOM     24  O   UNL     1      -6.896  -8.821   0.012  0.00  0.00    -0.126 OA
ATOM     25  O   UNL     1      -4.801  -8.580  -0.007  0.00  0.00    -0.126 OA
ENDBRANCH  21  23
ENDBRANCH  15  18
TORSDOF 2
