REMARK  Name = ZINC09298259
REMARK  10 active torsions:
REMARK  status: ('A' for Active; 'I' for Inactive)
REMARK    1  A    between atoms: C_1  and  C_2
REMARK    2  A    between atoms: C_2  and  O_3
REMARK    3  A    between atoms: O_3  and  C_4
REMARK    4  A    between atoms: C_7  and  C_9
REMARK    5  A    between atoms: C_13  and  N_14
REMARK    6  A    between atoms: C_15  and  C_17
REMARK    7  A    between atoms: C_17  and  C_18
REMARK    8  A    between atoms: C_18  and  O_19
REMARK    9  A    between atoms: O_19  and  C_20
REMARK   10  A    between atoms: C_27  and  C_31
REMARK                            x       y       z     vdW  Elec       q    Type
REMARK                         _______ _______ _______ _____ _____    ______ ____
ROOT
ATOM      1  C   UNL     1      -1.074  -0.882   0.008  0.00  0.00    +0.069 A 
ATOM      2  C   UNL     1      -0.779  -2.305  -0.003  0.00  0.00    -0.023 A 
ATOM      3  C   UNL     1       0.534  -2.620  -0.018  0.00  0.00    -0.004 A 
ATOM      4  S   UNL     1       1.374  -1.062  -0.024  0.00  0.00    -0.077 S 
ATOM      5  C   UNL     1       0.002  -0.004   0.002  0.00  0.00    +0.084 A 
ATOM      6  C   UNL     1       1.133  -3.993  -0.033  0.00  0.00    +0.046 C 
ATOM      7  C   UNL     1       0.032  -4.997  -0.407  0.00  0.00    -0.009 C 
ATOM      8  C   UNL     1      -1.208  -4.708   0.444  0.00  0.00    +0.008 C 
ATOM      9  C   UNL     1      -1.848  -3.391   0.002  0.00  0.00    +0.037 C 
ATOM     10  C   UNL     1       0.522  -6.420  -0.134  0.00  0.00    +0.008 C 
ENDROOT
BRANCH   1  14
ATOM     11  C   UNL     1      -4.348   0.279   1.215  0.00  0.00    +0.407 C 
ATOM     12  O   UNL     1      -4.931   0.488   0.170  0.00  0.00    -0.226 OA
ATOM     13  N   UNL     1      -3.078  -0.172   1.199  0.00  0.00    -0.217 N 
ATOM     14  C   UNL     1      -2.454  -0.391   0.024  0.00  0.00    +0.255 C 
ATOM     15  O   UNL     1      -3.038  -0.182  -1.022  0.00  0.00    -0.270 OA
ATOM     16  H   UNL     1      -2.612  -0.339   2.034  0.00  0.00    +0.161 HD
BRANCH  11  17
ATOM     17  O   UNL     1      -4.970   0.497   2.388  0.00  0.00    -0.450 OA
BRANCH  17  19
ATOM     18  C   UNL     1      -6.873   1.171   3.749  0.00  0.00    +0.048 C 
ATOM     19  C   UNL     1      -6.337   0.983   2.329  0.00  0.00    +0.230 C 
ENDBRANCH  17  19
ENDBRANCH  11  17
ENDBRANCH   1  14
BRANCH   5  20
ATOM     20  N   UNL     1      -0.017   1.382   0.010  0.00  0.00    -0.279 N 
ATOM     21  C   UNL     1       1.141   2.072   0.002  0.00  0.00    +0.221 C 
ATOM     22  O   UNL     1       2.200   1.480  -0.011  0.00  0.00    -0.275 OA
ATOM     23  H   UNL     1      -0.863   1.855   0.016  0.00  0.00    +0.155 HD
BRANCH  21  24
ATOM     24  C   UNL     1       1.121   3.579   0.011  0.00  0.00    +0.137 C 
BRANCH  24  25
ATOM     25  C   UNL     1       2.556   4.108  -0.000  0.00  0.00    +0.238 C 
BRANCH  25  26
ATOM     26  O   UNL     1       2.537   5.537   0.008  0.00  0.00    -0.491 OA
BRANCH  26  27
ATOM     27  C   UNL     1       3.739   6.170  -0.001  0.00  0.00    +0.121 A 
ATOM     28  C   UNL     1       4.913   5.432  -0.010  0.00  0.00    +0.045 A 
ATOM     29  C   UNL     1       6.134   6.078  -0.024  0.00  0.00    +0.004 A 
ATOM     30  C   UNL     1       6.187   7.460  -0.017  0.00  0.00    +0.000 A 
ATOM     31  C   UNL     1       5.018   8.198  -0.002  0.00  0.00    +0.004 A 
ATOM     32  C   UNL     1       3.794   7.556   0.006  0.00  0.00    +0.045 A 
ENDBRANCH  26  27
ENDBRANCH  25  26
ENDBRANCH  24  25
ENDBRANCH  21  24
ENDBRANCH   5  20
TORSDOF 8
