REMARK  Name = ZINC19353723
REMARK  8 active torsions:
REMARK  status: ('A' for Active; 'I' for Inactive)
REMARK    1  A    between atoms: C_1  and  C_2
REMARK    2  A    between atoms: C_2  and  C_3
REMARK    3  A    between atoms: C_3  and  C_4
REMARK    4  A    between atoms: C_7  and  C_10
REMARK    5  A    between atoms: C_10  and  C_32
REMARK    6  A    between atoms: N_13  and  C_17
REMARK    7  A    between atoms: C_17  and  C_18
REMARK    8  A    between atoms: N_20  and  C_21
REMARK                            x       y       z     vdW  Elec       q    Type
REMARK                         _______ _______ _______ _____ _____    ______ ____
ROOT
ATOM      1  C   UNL     1      -0.570  -4.367   0.618  0.00  0.00    +0.135 C 
ATOM      2  C   UNL     1      -0.846  -2.960   1.109  0.00  0.00    +0.251 C 
ATOM      3  O   UNL     1      -0.910  -2.586   2.260  0.00  0.00    -0.272 OA
ATOM      4  N   UNL     1      -1.005  -2.212  -0.000  0.00  0.00    -0.215 N 
ATOM      5  C   UNL     1      -0.874  -2.944  -1.112  0.00  0.00    +0.310 C 
ATOM      6  O   UNL     1      -0.980  -2.491  -2.235  0.00  0.00    -0.252 OA
ATOM      7  N   UNL     1      -0.609  -4.236  -0.849  0.00  0.00    -0.281 N 
ATOM      8  C   UNL     1       0.809  -4.839   1.083  0.00  0.00    +0.047 C 
ATOM      9  H   UNL     1      -0.435  -5.117  -1.484  0.00  0.00    +0.152 HD
ENDROOT
BRANCH   1  13
ATOM     10  C   UNL     1      -3.605  -7.053   1.969  0.00  0.00    -0.047 A 
ATOM     11  C   UNL     1      -2.953  -7.292   0.773  0.00  0.00    +0.004 A 
ATOM     12  C   UNL     1      -1.971  -6.422   0.336  0.00  0.00    +0.006 A 
ATOM     13  C   UNL     1      -1.641  -5.315   1.095  0.00  0.00    -0.015 A 
ATOM     14  C   UNL     1      -2.289  -5.080   2.293  0.00  0.00    +0.006 A 
ATOM     15  C   UNL     1      -3.274  -5.947   2.728  0.00  0.00    +0.004 A 
BRANCH  10  16
ATOM     16  C   UNL     1      -4.676  -8.000   2.444  0.00  0.00    +0.035 C 
BRANCH  16  18
ATOM     17  C   UNL     1      -5.130 -10.059   3.786  0.00  0.00    +0.004 C 
ATOM     18  C   UNL     1      -4.043  -9.097   3.303  0.00  0.00    +0.001 C 
ENDBRANCH  16  18
ENDBRANCH  10  16
ENDBRANCH   1  13
BRANCH   4  19
ATOM     19  C   UNL     1      -1.293  -0.775   0.010  0.00  0.00    +0.213 C 
BRANCH  19  20
ATOM     20  C   UNL     1       0.002  -0.004   0.002  0.00  0.00    +0.231 C 
ATOM     21  O   UNL     1       1.060  -0.596  -0.011  0.00  0.00    -0.274 OA
ATOM     22  N   UNL     1      -0.016   1.344   0.009  0.00  0.00    -0.307 N 
ATOM     23  H   UNL     1      -0.976   1.881   0.021  0.00  0.00    +0.149 HD
BRANCH  22  24
ATOM     24  C   UNL     1       1.242   2.093   0.001  0.00  0.00    +0.110 C 
ATOM     25  C   UNL     1       1.018   3.473   0.626  0.00  0.00    +0.068 C 
ATOM     26  C   UNL     1       2.253   4.337   0.342  0.00  0.00    +0.231 C 
ATOM     27  O   UNL     1       2.346   4.538  -1.069  0.00  0.00    -0.492 OA
ATOM     28  C   UNL     1       2.249   3.448  -1.873  0.00  0.00    +0.125 A 
ATOM     29  C   UNL     1       1.723   2.251  -1.419  0.00  0.00    +0.014 A 
ATOM     30  C   UNL     1       1.633   1.168  -2.277  0.00  0.00    +0.009 A 
ATOM     31  C   UNL     1       2.068   1.276  -3.584  0.00  0.00    +0.001 A 
ATOM     32  C   UNL     1       2.596   2.470  -4.040  0.00  0.00    +0.004 A 
ATOM     33  C   UNL     1       2.687   3.553  -3.189  0.00  0.00    +0.046 A 
ENDBRANCH  22  24
ENDBRANCH  19  20
ENDBRANCH   4  19
TORSDOF 6
