REMARK  Name = ZINC34969897
REMARK  10 active torsions:
REMARK  status: ('A' for Active; 'I' for Inactive)
REMARK    1  A    between atoms: C_1  and  C_2
REMARK    2  A    between atoms: C_2  and  C_3
REMARK    3  A    between atoms: C_3  and  C_5
REMARK    4  A    between atoms: C_3  and  C_6
REMARK    5  A    between atoms: C_6  and  C_8
REMARK    6  A    between atoms: C_6  and  N_25
REMARK    7  A    between atoms: N_13  and  C_16
REMARK    8  A    between atoms: C_16  and  C_17
REMARK    9  A    between atoms: C_18  and  C_19
REMARK   10  A    between atoms: N_28  and  C_29
REMARK                            x       y       z     vdW  Elec       q    Type
REMARK                         _______ _______ _______ _____ _____    ______ ____
ROOT
ATOM      1  C   UNL     1      -1.636  -2.326   0.338  0.00  0.00    +0.163 C 
ENDROOT
BRANCH   1   2
ATOM      2  C   UNL     1      -0.812  -2.961  -0.752  0.00  0.00    +0.236 C 
ATOM      3  O   UNL     1       0.173  -3.610  -0.469  0.00  0.00    -0.274 OA
ATOM      4  N   UNL     1      -1.170  -2.809  -2.043  0.00  0.00    -0.298 N 
ATOM      5  C   UNL     1      -2.421  -2.125  -2.404  0.00  0.00    +0.123 C 
ATOM      6  C   UNL     1      -2.102  -1.043  -3.442  0.00  0.00    +0.103 C 
ATOM      7  N   UNL     1      -1.378  -1.648  -4.568  0.00  0.00    -0.296 NA
ATOM      8  C   UNL     1      -0.084  -2.195  -4.137  0.00  0.00    +0.103 C 
ATOM      9  C   UNL     1      -0.317  -3.318  -3.128  0.00  0.00    +0.123 C 
BRANCH   7  10
ATOM     10  C   UNL     1      -1.205  -0.683  -5.662  0.00  0.00    +0.111 C 
BRANCH  10  11
ATOM     11  C   UNL     1      -0.684  -1.397  -6.883  0.00  0.00    -0.011 C 
ATOM     12  C   UNL     1      -1.336  -1.302  -8.033  0.00  0.00    +0.005 C 
BRANCH  12  13
ATOM     13  C   UNL     1      -0.826  -2.002  -9.231  0.00  0.00    -0.025 A 
ATOM     14  C   UNL     1       0.339  -2.767  -9.153  0.00  0.00    +0.008 A 
ATOM     15  C   UNL     1       0.810  -3.417 -10.275  0.00  0.00    +0.001 A 
ATOM     16  C   UNL     1       0.131  -3.312 -11.476  0.00  0.00    +0.000 A 
ATOM     17  C   UNL     1      -1.024  -2.554 -11.560  0.00  0.00    +0.001 A 
ATOM     18  C   UNL     1      -1.509  -1.904 -10.444  0.00  0.00    +0.008 A 
ENDBRANCH  12  13
ENDBRANCH  10  11
ENDBRANCH   7  10
ENDBRANCH   1   2
BRANCH   1  19
ATOM     19  N   UNL     1      -1.586  -3.164   1.539  0.00  0.00    -0.288 N 
ATOM     20  C   UNL     1      -2.586  -3.111   2.440  0.00  0.00    +0.305 C 
ATOM     21  O   UNL     1      -3.530  -2.366   2.257  0.00  0.00    -0.252 OA
ATOM     22  N   UNL     1      -2.540  -3.882   3.545  0.00  0.00    -0.268 N 
ATOM     23  H   UNL     1      -0.833  -3.758   1.685  0.00  0.00    +0.151 HD
ATOM     24  H   UNL     1      -1.760  -4.430   3.721  0.00  0.00    +0.156 HD
BRANCH  22  25
ATOM     25  C   UNL     1      -3.619  -3.891   4.437  0.00  0.00    +0.049 A 
ATOM     26  C   UNL     1      -4.903  -3.629   3.979  0.00  0.00    +0.024 A 
ATOM     27  C   UNL     1      -5.965  -3.639   4.861  0.00  0.00    +0.002 A 
ATOM     28  C   UNL     1      -5.752  -3.912   6.200  0.00  0.00    +0.001 A 
ATOM     29  C   UNL     1      -4.475  -4.174   6.660  0.00  0.00    +0.017 A 
ATOM     30  C   UNL     1      -3.408  -4.170   5.781  0.00  0.00    +0.039 A 
ATOM     31 BR   UNL     1      -1.662  -4.535   6.410  0.00  0.00    -0.048 Br
ENDBRANCH  22  25
ENDBRANCH   1  19
BRANCH   1  32
ATOM     32  C   UNL     1      -1.074  -0.940   0.660  0.00  0.00    +0.015 C 
ATOM     33  C   UNL     1      -1.044  -0.093  -0.614  0.00  0.00    +0.010 C 
BRANCH  32  35
ATOM     34  C   UNL     1       0.862   0.291   1.650  0.00  0.00    +0.004 C 
ATOM     35  C   UNL     1       0.346  -1.081   1.212  0.00  0.00    +0.002 C 
ENDBRANCH  32  35
ENDBRANCH   1  32
TORSDOF 8
