REMARK  Name = ZINC66199631
REMARK  12 active torsions:
REMARK  status: ('A' for Active; 'I' for Inactive)
REMARK    1  A    between atoms: C_1  and  C_2
REMARK    2  A    between atoms: C_2  and  C_4
REMARK    3  A    between atoms: C_2  and  C_14
REMARK    4  A    between atoms: C_7  and  C_10
REMARK    5  A    between atoms: C_10  and  C_11
REMARK    6  A    between atoms: C_11  and  C_12
REMARK    7  A    between atoms: C_11  and  C_13
REMARK    8  A    between atoms: N_16  and  C_17
REMARK    9  A    between atoms: C_17  and  N_19
REMARK   10  A    between atoms: N_19  and  C_20
REMARK   11  A    between atoms: C_25  and  C_26
REMARK   12  A    between atoms: N_28  and  C_29
REMARK                            x       y       z     vdW  Elec       q    Type
REMARK                         _______ _______ _______ _____ _____    ______ ____
ROOT
ATOM      1  C   UNL     1       0.953  -0.380  -3.573  0.00  0.00    +0.141 C 
ATOM      2  S   UNL     1       2.516  -1.062  -3.422  0.00  0.00    -0.018 S 
ENDROOT
BRANCH   1   5
ATOM      3  C   UNL     1       0.876  -0.046  -1.264  0.00  0.00    +0.226 C 
ATOM      4  O   UNL     1       1.983  -0.529  -1.157  0.00  0.00    -0.275 OA
ATOM      5  N   UNL     1       0.299   0.056  -2.478  0.00  0.00    -0.267 N 
ATOM      6  H   UNL     1      -0.587   0.442  -2.563  0.00  0.00    +0.157 HD
BRANCH   3   8
ATOM      7  C   UNL     1      -0.152   1.935  -0.183  0.00  0.00    +0.022 C 
ATOM      8  C   UNL     1       0.145   0.441  -0.039  0.00  0.00    +0.102 C 
BRANCH   8   9
ATOM      9  C   UNL     1       1.002   0.215   1.180  0.00  0.00    -0.036 A 
ATOM     10  C   UNL     1       2.242   0.818   1.275  0.00  0.00    +0.004 A 
ATOM     11  C   UNL     1       3.028   0.610   2.393  0.00  0.00    +0.004 A 
ATOM     12  C   UNL     1       2.573  -0.200   3.417  0.00  0.00    -0.047 A 
ATOM     13  C   UNL     1       1.332  -0.802   3.322  0.00  0.00    +0.004 A 
ATOM     14  C   UNL     1       0.545  -0.591   2.206  0.00  0.00    +0.004 A 
BRANCH  12  15
ATOM     15  C   UNL     1       3.430  -0.427   4.636  0.00  0.00    +0.038 C 
BRANCH  15  16
ATOM     16  C   UNL     1       3.116   0.641   5.686  0.00  0.00    -0.013 C 
ATOM     17  C   UNL     1       1.674   0.473   6.168  0.00  0.00    +0.007 C 
ATOM     18  C   UNL     1       4.071   0.486   6.871  0.00  0.00    +0.007 C 
ENDBRANCH  15  16
ENDBRANCH  12  15
ENDBRANCH   8   9
ENDBRANCH   3   8
ENDBRANCH   1   5
BRANCH   1  19
ATOM     19  N   UNL     1       0.376  -0.279  -4.787  0.00  0.00    -0.296 N 
ATOM     20  H   UNL     1      -0.536   0.043  -4.865  0.00  0.00    +0.154 HD
BRANCH  19  21
ATOM     21  C   UNL     1       1.088  -0.636  -5.928  0.00  0.00    +0.045 A 
ATOM     22  C   UNL     1       1.789  -1.834  -5.966  0.00  0.00    +0.024 A 
ATOM     23  C   UNL     1       2.495  -2.186  -7.099  0.00  0.00    +0.002 A 
ATOM     24  C   UNL     1       2.510  -1.350  -8.204  0.00  0.00    +0.001 A 
ATOM     25  C   UNL     1       1.820  -0.158  -8.184  0.00  0.00    +0.015 A 
ATOM     26  C   UNL     1       1.097   0.210  -7.047  0.00  0.00    +0.058 A 
BRANCH  26  27
ATOM     27  C   UNL     1       0.351   1.482  -7.021  0.00  0.00    +0.246 C 
ATOM     28  O   UNL     1      -0.194   1.847  -5.997  0.00  0.00    -0.270 OA
ATOM     29  N   UNL     1       0.274   2.241  -8.133  0.00  0.00    -0.308 N 
ATOM     30  H   UNL     1       0.708   1.950  -8.950  0.00  0.00    +0.149 HD
BRANCH  29  31
ATOM     31  C   UNL     1      -0.467   3.505  -8.107  0.00  0.00    +0.073 C 
ATOM     32  C   UNL     1      -1.950   3.232  -8.367  0.00  0.00    +0.022 C 
ATOM     33  C   UNL     1      -2.724   4.552  -8.341  0.00  0.00    +0.002 C 
ATOM     34  C   UNL     1      -2.179   5.484  -9.424  0.00  0.00    +0.000 C 
ATOM     35  C   UNL     1      -0.696   5.757  -9.165  0.00  0.00    +0.002 C 
ATOM     36  C   UNL     1       0.078   4.437  -9.191  0.00  0.00    +0.022 C 
ENDBRANCH  29  31
ENDBRANCH  26  27
ENDBRANCH  19  21
ENDBRANCH   1  19
TORSDOF 9
