REMARK  Name = ZINC64024286
REMARK  9 active torsions:
REMARK  status: ('A' for Active; 'I' for Inactive)
REMARK    1  A    between atoms: C_1  and  O_2
REMARK    2  A    between atoms: O_2  and  C_3
REMARK    3  A    between atoms: C_3  and  C_5
REMARK    4  A    between atoms: N_7  and  C_10
REMARK    5  A    between atoms: C_13  and  C_22
REMARK    6  A    between atoms: N_15  and  C_17
REMARK    7  A    between atoms: N_24  and  C_25
REMARK    8  A    between atoms: C_25  and  C_26
REMARK    9  A    between atoms: C_26  and  C_27
REMARK                            x       y       z     vdW  Elec       q    Type
REMARK                         _______ _______ _______ _____ _____    ______ ____
ROOT
ATOM      1  C   UNL     1      -2.916  -5.268  -0.007  0.00  0.00    +0.074 C 
ATOM      2  C   UNL     1      -2.618  -6.222   1.179  0.00  0.00    +0.016 C 
ATOM      3  C   UNL     1      -3.131  -7.585   0.667  0.00  0.00    +0.021 C 
ATOM      4  N   UNL     1      -3.151  -7.518  -0.806  0.00  0.00    +0.390 N 
ATOM      5  C   UNL     1      -2.654  -6.189  -1.224  0.00  0.00    -0.053 C 
ATOM      6  H   UNL     1      -4.095  -7.647  -1.139  0.00  0.00    -0.080 HD
ENDROOT
BRANCH   1   9
ATOM      7  C   UNL     1      -1.247  -2.048   0.003  0.00  0.00    +0.142 C 
ATOM      8  C   UNL     1      -2.367  -2.805   0.004  0.00  0.00    +0.121 C 
ATOM      9  N   UNL     1      -1.998  -4.126  -0.005  0.00  0.00    -0.255 N 
ATOM     10  N   UNL     1      -0.636  -4.202  -0.012  0.00  0.00    -0.160 NA
ATOM     11  N   UNL     1      -0.141  -2.927  -0.013  0.00  0.00    -0.257 N 
ATOM     12  H   UNL     1      -0.298  -4.723   0.783  0.00  0.00    +0.168 HD
ATOM     13  H   UNL     1       0.795  -2.674  -0.021  0.00  0.00    +0.168 HD
BRANCH   7  14
ATOM     14  C   UNL     1      -1.192  -0.633   0.010  0.00  0.00    +0.355 C 
ATOM     15  O   UNL     1      -2.222   0.016   0.023  0.00  0.00    -0.243 OA
BRANCH  14  17
ATOM     16  C   UNL     1      -0.017   1.425   0.010  0.00  0.00    +0.280 C 
ATOM     17  O   UNL     1       0.002  -0.004   0.002  0.00  0.00    -0.464 OA
ENDBRANCH  14  17
ENDBRANCH   7  14
ENDBRANCH   1   9
BRANCH   4  18
ATOM     18  C   UNL     1      -2.285  -8.567  -1.361  0.00  0.00    -0.067 C 
ATOM     19  C   UNL     1      -2.355  -8.550  -2.902  0.00  0.00    -0.015 C 
ATOM     20  C   UNL     1      -2.293 -10.045  -3.301  0.00  0.00    -0.002 C 
ATOM     21  C   UNL     1      -3.138 -10.729  -2.197  0.00  0.00    -0.002 C 
ATOM     22  C   UNL     1      -2.783  -9.952  -0.913  0.00  0.00    -0.015 C 
ENDBRANCH   4  18
BRANCH   3  23
ATOM     23  C   UNL     1      -4.520  -7.840   1.191  0.00  0.00    +0.200 C 
ATOM     24  O   UNL     1      -5.446  -7.969   0.418  0.00  0.00    -0.278 OA
ATOM     25  N   UNL     1      -4.735  -7.924   2.519  0.00  0.00    -0.316 N 
ATOM     26  H   UNL     1      -3.994  -7.821   3.137  0.00  0.00    +0.149 HD
BRANCH  25  27
ATOM     27  C   UNL     1      -6.085  -8.172   3.028  0.00  0.00    +0.108 C 
BRANCH  27  28
ATOM     28  C   UNL     1      -6.053  -8.222   4.557  0.00  0.00    +0.052 C 
BRANCH  28  29
ATOM     29  C   UNL     1      -7.442  -8.477   5.081  0.00  0.00    -0.040 C 
ATOM     30  C   UNL     1      -7.977  -9.673   5.419  0.00  0.00    -0.001 A 
ATOM     31  C   UNL     1      -7.446 -11.041   5.399  0.00  0.00    +0.010 A 
ATOM     32  C   UNL     1      -8.239 -12.059   5.806  0.00  0.00    +0.001 A 
ATOM     33  C   UNL     1      -9.552 -11.840   6.244  0.00  0.00    +0.002 A 
ATOM     34  C   UNL     1     -10.111 -10.612   6.291  0.00  0.00    +0.026 A 
ATOM     35  C   UNL     1      -9.367  -9.469   5.887  0.00  0.00    +0.043 A 
ATOM     36  N   UNL     1      -9.679  -8.196   5.840  0.00  0.00    -0.380 N 
ATOM     37  C   UNL     1      -8.519  -7.448   5.342  0.00  0.00    +0.144 C 
ATOM     38  H   UNL     1     -10.533  -7.813   6.095  0.00  0.00    +0.160 HD
ENDBRANCH  28  29
ENDBRANCH  27  28
ENDBRANCH  25  27
ENDBRANCH   3  23
TORSDOF 8
