REMARK  Name = ZINC66481500
REMARK  12 active torsions:
REMARK  status: ('A' for Active; 'I' for Inactive)
REMARK    1  A    between atoms: C_1  and  C_2
REMARK    2  A    between atoms: C_3  and  C_7
REMARK    3  A    between atoms: C_10  and  S_15
REMARK    4  A    between atoms: N_11  and  C_12
REMARK    5  A    between atoms: C_12  and  C_13
REMARK    6  A    between atoms: S_15  and  C_16
REMARK    7  A    between atoms: C_16  and  C_17
REMARK    8  A    between atoms: C_17  and  C_19
REMARK    9  A    between atoms: C_17  and  O_30
REMARK   10  A    between atoms: C_19  and  N_20
REMARK   11  A    between atoms: C_22  and  C_29
REMARK   12  A    between atoms: C_25  and  C_28
REMARK                            x       y       z     vdW  Elec       q    Type
REMARK                         _______ _______ _______ _____ _____    ______ ____
ROOT
ATOM      1  C   UNL     1      -2.530  -0.417   0.202  0.00  0.00    +0.168 A 
ATOM      2  N   UNL     1      -2.974   0.818   0.221  0.00  0.00    -0.128 NA
ATOM      3  N   UNL     1      -4.236   0.836  -0.025  0.00  0.00    -0.122 NA
ATOM      4  C   UNL     1      -4.675  -0.387  -0.215  0.00  0.00    +0.192 A 
ATOM      5  N   UNL     1      -3.604  -1.227  -0.083  0.00  0.00    -0.298 N 
ENDROOT
BRANCH   1   8
ATOM      6  C   UNL     1      -0.658   0.521   2.536  0.00  0.00    +0.087 C 
ATOM      7  C   UNL     1      -0.312  -0.459   1.444  0.00  0.00    +0.112 A 
ATOM      8  C   UNL     1      -1.137  -0.854   0.438  0.00  0.00    +0.060 A 
ATOM      9  C   UNL     1      -0.359  -1.805  -0.365  0.00  0.00    +0.053 A 
ATOM     10  C   UNL     1       0.845  -1.891   0.225  0.00  0.00    +0.196 A 
ATOM     11  O   UNL     1       0.866  -1.084   1.297  0.00  0.00    -0.467 OA
ENDBRANCH   1   8
BRANCH   5  12
ATOM     12  C   UNL     1      -3.602  -2.686  -0.215  0.00  0.00    +0.152 C 
BRANCH  12  13
ATOM     13  C   UNL     1      -3.752  -3.314   1.146  0.00  0.00    -0.013 C 
ATOM     14  C   UNL     1      -4.718  -4.171   1.370  0.00  0.00    +0.005 C 
ENDBRANCH  12  13
ENDBRANCH   5  12
BRANCH   4  15
ATOM     15  S   UNL     1      -6.334  -0.857  -0.580  0.00  0.00    -0.083 S 
BRANCH  15  16
ATOM     16  C   UNL     1      -7.236   0.716  -0.622  0.00  0.00    +0.110 C 
BRANCH  16  17
ATOM     17  C   UNL     1      -8.710   0.450  -0.933  0.00  0.00    +0.139 C 
BRANCH  17  18
ATOM     18  O   UNL     1      -9.296  -0.293   0.138  0.00  0.00    -0.390 OA
ATOM     19  H   UNL     1      -9.262   0.157   0.993  0.00  0.00    +0.210 HD
ENDBRANCH  17  18
BRANCH  17  20
ATOM     20  C   UNL     1      -9.446   1.782  -1.092  0.00  0.00    +0.116 C 
BRANCH  20  21
ATOM     21  N   UNL     1     -10.862   1.527  -1.391  0.00  0.00    -0.295 NA
ATOM     22  C   UNL     1     -11.016   0.890  -2.707  0.00  0.00    +0.115 C 
ATOM     23  C   UNL     1     -12.497   0.588  -2.951  0.00  0.00    +0.130 C 
ATOM     24  O   UNL     1     -13.249   1.800  -2.844  0.00  0.00    -0.371 OA
ATOM     25  C   UNL     1     -13.122   2.446  -1.575  0.00  0.00    +0.130 C 
ATOM     26  C   UNL     1     -11.648   2.767  -1.317  0.00  0.00    +0.115 C 
ATOM     27  C   UNL     1     -13.935   3.743  -1.578  0.00  0.00    +0.039 C 
ATOM     28  C   UNL     1     -12.993  -0.415  -1.908  0.00  0.00    +0.039 C 
ENDBRANCH  20  21
ENDBRANCH  17  20
ENDBRANCH  16  17
ENDBRANCH  15  16
ENDBRANCH   4  15
TORSDOF 9
