REMARK  Name = ZINC39877096
REMARK  8 active torsions:
REMARK  status: ('A' for Active; 'I' for Inactive)
REMARK    1  A    between atoms: C_1  and  C_2
REMARK    2  A    between atoms: C_2  and  O_3
REMARK    3  A    between atoms: O_3  and  C_4
REMARK    4  A    between atoms: C_7  and  N_10
REMARK    5  A    between atoms: C_11  and  C_27
REMARK    6  A    between atoms: C_30  and  O_33
REMARK    7  A    between atoms: O_33  and  C_34
REMARK    8  A    between atoms: C_34  and  C_35
REMARK                            x       y       z     vdW  Elec       q    Type
REMARK                         _______ _______ _______ _____ _____    ______ ____
ROOT
ATOM      1  N   UNL     1       1.103  -5.936  -1.834  0.00  0.00    -0.253 N 
ATOM      2  C   UNL     1       1.759  -6.622  -2.959  0.00  0.00    +0.150 C 
ATOM      3  C   UNL     1       1.613  -8.083  -2.685  0.00  0.00    +0.072 A 
ATOM      4  C   UNL     1       2.051  -9.257  -3.446  0.00  0.00    +0.199 A 
ATOM      5  O   UNL     1       2.798  -9.189  -4.406  0.00  0.00    -0.287 OA
ATOM      6  C   UNL     1       1.499 -10.537  -2.935  0.00  0.00    +0.067 A 
ATOM      7  C   UNL     1       1.659 -11.716  -3.664  0.00  0.00    +0.053 A 
ATOM      8  C   UNL     1       1.135 -12.895  -3.176  0.00  0.00    +0.124 A 
ATOM      9  C   UNL     1       0.451 -12.904  -1.966  0.00  0.00    +0.042 A 
ATOM     10  C   UNL     1       0.290 -11.747  -1.239  0.00  0.00    +0.050 A 
ATOM     11  C   UNL     1       0.813 -10.543  -1.709  0.00  0.00    +0.140 A 
ATOM     12  O   UNL     1       0.648  -9.422  -0.969  0.00  0.00    -0.450 OA
ATOM     13  C   UNL     1       0.938  -8.221  -1.505  0.00  0.00    +0.199 A 
ATOM     14  C   UNL     1       0.631  -6.876  -0.989  0.00  0.00    +0.287 C 
ATOM     15  O   UNL     1       0.037  -6.646   0.046  0.00  0.00    -0.266 OA
ATOM     16  F   UNL     1       1.286 -14.040  -3.876  0.00  0.00    -0.205 F 
ENDROOT
BRANCH   1  20
ATOM     17  C   UNL     1       0.777  -1.811  -1.336  0.00  0.00    +0.121 A 
ATOM     18  C   UNL     1       0.242  -2.668  -0.385  0.00  0.00    +0.047 A 
ATOM     19  C   UNL     1       0.350  -4.035  -0.549  0.00  0.00    +0.027 A 
ATOM     20  C   UNL     1       0.993  -4.551  -1.667  0.00  0.00    +0.038 A 
ATOM     21  C   UNL     1       1.527  -3.692  -2.619  0.00  0.00    +0.027 A 
ATOM     22  C   UNL     1       1.414  -2.326  -2.456  0.00  0.00    +0.047 A 
BRANCH  17  23
ATOM     23  O   UNL     1       0.671  -0.465  -1.174  0.00  0.00    -0.492 OA
BRANCH  23  25
ATOM     24  C   UNL     1      -0.019   1.526   0.010  0.00  0.00    +0.048 C 
ATOM     25  C   UNL     1       0.002  -0.004   0.002  0.00  0.00    +0.225 C 
ENDBRANCH  23  25
ENDBRANCH  17  23
ENDBRANCH   1  20
BRANCH   2  26
ATOM     26  C   UNL     1       3.217  -6.246  -3.018  0.00  0.00    -0.022 A 
ATOM     27  C   UNL     1       3.948  -6.131  -1.851  0.00  0.00    +0.009 A 
ATOM     28  C   UNL     1       5.285  -5.786  -1.903  0.00  0.00    +0.046 A 
ATOM     29  C   UNL     1       5.893  -5.555  -3.128  0.00  0.00    +0.121 A 
ATOM     30  C   UNL     1       5.157  -5.671  -4.298  0.00  0.00    +0.046 A 
ATOM     31  C   UNL     1       3.822  -6.022  -4.241  0.00  0.00    +0.009 A 
BRANCH  29  32
ATOM     32  O   UNL     1       7.208  -5.215  -3.182  0.00  0.00    -0.483 OA
BRANCH  32  33
ATOM     33  C   UNL     1       7.768  -4.992  -4.477  0.00  0.00    +0.324 C 
BRANCH  33  34
ATOM     34  C   UNL     1       9.223  -4.627  -4.339  0.00  0.00    +0.248 C 
ATOM     35  O   UNL     1       9.731  -4.564  -3.240  0.00  0.00    -0.272 OA
ATOM     36  N   UNL     1       9.961  -4.370  -5.438  0.00  0.00    -0.327 N 
ATOM     37  H   UNL     1       9.555  -4.420  -6.317  0.00  0.00    +0.145 HD
ATOM     38  H   UNL     1      10.898  -4.136  -5.349  0.00  0.00    +0.145 HD
ENDBRANCH  33  34
ENDBRANCH  32  33
ENDBRANCH  29  32
ENDBRANCH   2  26
TORSDOF 7
