REMARK  Name = ZINC13955409
REMARK  11 active torsions:
REMARK  status: ('A' for Active; 'I' for Inactive)
REMARK    1  A    between atoms: C_1  and  C_2
REMARK    2  A    between atoms: C_2  and  O_3
REMARK    3  A    between atoms: O_3  and  C_4
REMARK    4  A    between atoms: C_7  and  C_11
REMARK    5  A    between atoms: C_8  and  O_10
REMARK    6  A    between atoms: N_12  and  N_13
REMARK    7  A    between atoms: C_14  and  C_16
REMARK    8  A    between atoms: C_16  and  O_17
REMARK    9  A    between atoms: O_17  and  C_18
REMARK   10  A    between atoms: C_21  and  C_25
REMARK   11  A    between atoms: C_23  and  C_24
REMARK                            x       y       z     vdW  Elec       q    Type
REMARK                         _______ _______ _______ _____ _____    ______ ____
ROOT
ATOM      1  N   UNL     1       3.823   6.075  -0.099  0.00  0.00    -0.204 N 
ATOM      2  C   UNL     1       3.883   7.422  -0.092  0.00  0.00    +0.270 C 
ATOM      3  O   UNL     1       4.960   7.981  -0.099  0.00  0.00    -0.270 OA
ATOM      4  H   UNL     1       2.962   5.628  -0.094  0.00  0.00    +0.177 HD
ENDROOT
BRANCH   1   6
ATOM      5  C   UNL     1       4.949   4.029  -0.004  0.00  0.00    +0.142 C 
ATOM      6  N   UNL     1       5.003   5.321  -0.113  0.00  0.00    -0.188 NA
BRANCH   5  10
ATOM      7  C   UNL     1       1.288   2.137   1.028  0.00  0.00    +0.124 A 
ATOM      8  C   UNL     1       1.538   3.440   1.441  0.00  0.00    +0.046 A 
ATOM      9  C   UNL     1       2.724   4.058   1.108  0.00  0.00    +0.016 A 
ATOM     10  C   UNL     1       3.680   3.372   0.354  0.00  0.00    +0.036 A 
ATOM     11  C   UNL     1       3.426   2.057  -0.061  0.00  0.00    +0.129 A 
ATOM     12  C   UNL     1       2.233   1.446   0.284  0.00  0.00    +0.091 A 
BRANCH  11  13
ATOM     13  O   UNL     1       4.350   1.383  -0.794  0.00  0.00    -0.506 OA
ATOM     14  H   UNL     1       4.936   0.823  -0.268  0.00  0.00    +0.292 HD
ENDBRANCH  11  13
BRANCH   7  15
ATOM     15  O   UNL     1       0.116   1.535   1.360  0.00  0.00    -0.492 OA
BRANCH  15  17
ATOM     16  C   UNL     1      -2.061   1.464   2.406  0.00  0.00    +0.048 C 
ATOM     17  C   UNL     1      -0.810   2.301   2.133  0.00  0.00    +0.225 C 
ENDBRANCH  15  17
ENDBRANCH   7  15
ENDBRANCH   5  10
ENDBRANCH   1   6
BRANCH   2  18
ATOM     18  C   UNL     1       2.613   8.233  -0.077  0.00  0.00    +0.326 C 
BRANCH  18  19
ATOM     19  O   UNL     1       2.937   9.625  -0.072  0.00  0.00    -0.482 OA
BRANCH  19  20
ATOM     20  C   UNL     1       1.898  10.500  -0.058  0.00  0.00    +0.124 A 
ATOM     21  C   UNL     1       0.593  10.029  -0.050  0.00  0.00    +0.046 A 
ATOM     22  C   UNL     1      -0.462  10.921  -0.036  0.00  0.00    +0.007 A 
ATOM     23  C   UNL     1      -0.218  12.282  -0.030  0.00  0.00    -0.050 A 
ATOM     24  C   UNL     1       1.081  12.754  -0.038  0.00  0.00    +0.010 A 
ATOM     25  C   UNL     1       2.140  11.866  -0.047  0.00  0.00    -0.009 A 
ATOM     26  C   UNL     1       3.556  12.381  -0.050  0.00  0.00    +0.047 C 
ATOM     27  C   UNL     1      -1.371  13.253  -0.014  0.00  0.00    +0.044 C 
ENDBRANCH  19  20
ENDBRANCH  18  19
ENDBRANCH   2  18
TORSDOF 8
