REMARK  Name = ZINC64155811
REMARK  10 active torsions:
REMARK  status: ('A' for Active; 'I' for Inactive)
REMARK    1  A    between atoms: C_1  and  O_2
REMARK    2  A    between atoms: O_2  and  C_3
REMARK    3  A    between atoms: C_7  and  C_11
REMARK    4  A    between atoms: C_8  and  O_9
REMARK    5  A    between atoms: O_9  and  C_10
REMARK    6  A    between atoms: C_11  and  C_13
REMARK    7  A    between atoms: C_11  and  C_26
REMARK    8  A    between atoms: C_13  and  N_14
REMARK    9  A    between atoms: C_15  and  C_17
REMARK   10  A    between atoms: C_17  and  N_18
REMARK                            x       y       z     vdW  Elec       q    Type
REMARK                         _______ _______ _______ _____ _____    ______ ____
ROOT
ATOM      1  C   UNL     1       1.454  -4.348  -2.176  0.00  0.00    +0.068 C 
ENDROOT
BRANCH   1   2
ATOM      2  C   UNL     1       2.931  -4.612  -2.317  0.00  0.00    -0.033 C 
ATOM      3  C   UNL     1       3.740  -5.210  -1.413  0.00  0.00    -0.000 A 
ATOM      4  C   UNL     1       3.497  -5.770  -0.078  0.00  0.00    +0.010 A 
ATOM      5  C   UNL     1       4.531  -6.314   0.603  0.00  0.00    +0.001 A 
ATOM      6  C   UNL     1       5.826  -6.355   0.068  0.00  0.00    +0.002 A 
ATOM      7  C   UNL     1       6.127  -5.861  -1.151  0.00  0.00    +0.026 A 
ATOM      8  C   UNL     1       5.116  -5.266  -1.956  0.00  0.00    +0.043 A 
ATOM      9  N   UNL     1       5.156  -4.725  -3.149  0.00  0.00    -0.380 N 
ATOM     10  C   UNL     1       3.807  -4.269  -3.501  0.00  0.00    +0.145 C 
ATOM     11  H   UNL     1       5.945  -4.644  -3.708  0.00  0.00    +0.160 HD
ENDBRANCH   1   2
BRANCH   1  16
ATOM     12  C   UNL     1       0.481  -0.804  -1.272  0.00  0.00    +0.162 A 
ATOM     13  C   UNL     1       0.724  -0.143  -2.465  0.00  0.00    +0.049 A 
ATOM     14  C   UNL     1       1.202  -0.843  -3.558  0.00  0.00    +0.004 A 
ATOM     15  C   UNL     1       1.437  -2.202  -3.463  0.00  0.00    +0.008 A 
ATOM     16  C   UNL     1       1.196  -2.867  -2.275  0.00  0.00    +0.007 A 
ATOM     17  C   UNL     1       0.724  -2.170  -1.175  0.00  0.00    +0.165 A 
BRANCH  12  19
ATOM     18  C   UNL     1      -0.214   1.284  -0.368  0.00  0.00    +0.277 C 
ATOM     19  O   UNL     1       0.012  -0.117  -0.196  0.00  0.00    -0.491 OA
ENDBRANCH  12  19
BRANCH  17  20
ATOM     20  O   UNL     1       0.491  -2.822  -0.004  0.00  0.00    -0.491 OA
ATOM     21  C   UNL     1      -0.818  -3.361   0.190  0.00  0.00    +0.277 C 
ENDBRANCH  17  20
ENDBRANCH   1  16
BRANCH   1  22
ATOM     22  C   UNL     1       0.697  -5.073  -3.291  0.00  0.00    +0.117 C 
BRANCH  22  23
ATOM     23  N   UNL     1      -0.743  -4.872  -3.115  0.00  0.00    -0.313 N 
ATOM     24  C   UNL     1      -1.614  -5.457  -3.961  0.00  0.00    +0.230 C 
ATOM     25  O   UNL     1      -1.205  -6.151  -4.868  0.00  0.00    -0.274 OA
ATOM     26  H   UNL     1      -1.070  -4.317  -2.389  0.00  0.00    +0.149 HD
BRANCH  24  27
ATOM     27  C   UNL     1      -3.095  -5.250  -3.780  0.00  0.00    +0.205 C 
BRANCH  27  28
ATOM     28  N   UNL     1      -3.822  -5.985  -4.818  0.00  0.00    -0.276 N 
ATOM     29  C   UNL     1      -4.124  -5.327  -6.091  0.00  0.00    +0.119 C 
ATOM     30  C   UNL     1      -4.026  -6.345  -7.229  0.00  0.00    +0.115 C 
ATOM     31  C   UNL     1      -4.761  -7.601  -6.835  0.00  0.00    +0.222 C 
ATOM     32  O   UNL     1      -5.347  -8.251  -7.675  0.00  0.00    -0.275 OA
ATOM     33  N   UNL     1      -4.768  -8.002  -5.550  0.00  0.00    -0.240 N 
ATOM     34  C   UNL     1      -4.196  -7.254  -4.592  0.00  0.00    +0.309 C 
ATOM     35  O   UNL     1      -4.018  -7.738  -3.491  0.00  0.00    -0.252 OA
ATOM     36  H   UNL     1      -5.187  -8.844  -5.314  0.00  0.00    +0.159 HD
ENDBRANCH  27  28
ENDBRANCH  24  27
ENDBRANCH  22  23
ENDBRANCH   1  22
TORSDOF 8
