REMARK  Name = ZINC67575686
REMARK  10 active torsions:
REMARK  status: ('A' for Active; 'I' for Inactive)
REMARK    1  A    between atoms: C_1  and  C_2
REMARK    2  A    between atoms: C_3  and  C_24
REMARK    3  A    between atoms: C_5  and  C_7
REMARK    4  A    between atoms: C_7  and  N_8
REMARK    5  A    between atoms: N_8  and  C_9
REMARK    6  A    between atoms: N_12  and  C_13
REMARK    7  A    between atoms: C_16  and  N_20
REMARK    8  A    between atoms: C_21  and  C_23
REMARK    9  A    between atoms: C_24  and  O_26
REMARK   10  A    between atoms: O_26  and  C_27
REMARK                            x       y       z     vdW  Elec       q    Type
REMARK                         _______ _______ _______ _____ _____    ______ ____
ROOT
ATOM      1  N   UNL     1       2.070  -3.553  -1.455  0.00  0.00    -0.281 N 
ATOM      2  C   UNL     1       3.180  -2.907  -2.160  0.00  0.00    +0.134 C 
ATOM      3  C   UNL     1       1.328  -4.488  -2.081  0.00  0.00    +0.307 C 
ATOM      4  O   UNL     1       0.406  -5.025  -1.497  0.00  0.00    -0.252 OA
ATOM      5  N   UNL     1       1.607  -4.828  -3.355  0.00  0.00    -0.268 N 
ATOM      6  H   UNL     1       2.299  -4.355  -3.843  0.00  0.00    +0.156 HD
ENDROOT
BRANCH   5   7
ATOM      7  C   UNL     1       0.898  -5.866  -3.975  0.00  0.00    +0.053 A 
ATOM      8  C   UNL     1      -0.444  -6.064  -3.678  0.00  0.00    +0.026 A 
ATOM      9  C   UNL     1      -1.143  -7.087  -4.288  0.00  0.00    +0.025 A 
ATOM     10  C   UNL     1      -0.504  -7.918  -5.199  0.00  0.00    +0.035 A 
ATOM     11  C   UNL     1       0.838  -7.721  -5.496  0.00  0.00    +0.045 A 
ATOM     12  C   UNL     1       1.536  -6.694  -4.890  0.00  0.00    +0.064 A 
ATOM     13 CL   UNL     1       3.212  -6.442  -5.267  0.00  0.00    -0.082 Cl
BRANCH  10  14
ATOM     14  N   UNL     1      -1.213  -8.956  -5.818  0.00  0.00    -0.286 N 
ATOM     15  C   UNL     1      -0.597 -10.121  -6.096  0.00  0.00    +0.214 C 
ATOM     16  O   UNL     1       0.592 -10.243  -5.887  0.00  0.00    -0.276 OA
ATOM     17  C   UNL     1      -1.384 -11.273  -6.667  0.00  0.00    +0.109 C 
ATOM     18  H   UNL     1      -2.148  -8.835  -6.046  0.00  0.00    +0.155 HD
ENDBRANCH  10  14
ENDBRANCH   5   7
BRANCH   1  19
ATOM     19  C   UNL     1       1.766  -3.183  -0.071  0.00  0.00    +0.183 C 
BRANCH  19  24
ATOM     20  C   UNL     1      -0.039   1.524  -0.053  0.00  0.00    +0.087 C 
ATOM     21  C   UNL     1      -0.006   0.017  -0.052  0.00  0.00    +0.116 A 
ATOM     22  C   UNL     1      -1.095  -0.805  -0.038  0.00  0.00    +0.100 A 
ATOM     23  C   UNL     1      -0.557  -2.174  -0.044  0.00  0.00    +0.061 A 
ATOM     24  C   UNL     1       0.779  -2.045  -0.060  0.00  0.00    +0.123 A 
ATOM     25  O   UNL     1       1.095  -0.741  -0.069  0.00  0.00    -0.462 OA
BRANCH  22  26
ATOM     26  C   UNL     1      -2.512  -0.406  -0.021  0.00  0.00    +0.342 C 
ATOM     27  O   UNL     1      -2.811   0.772  -0.018  0.00  0.00    -0.245 OA
BRANCH  26  28
ATOM     28  O   UNL     1      -3.477  -1.347  -0.009  0.00  0.00    -0.464 OA
ATOM     29  C   UNL     1      -4.830  -0.887   0.007  0.00  0.00    +0.280 C 
ENDBRANCH  26  28
ENDBRANCH  22  26
ENDBRANCH  19  24
ENDBRANCH   1  19
TORSDOF 6
