REMARK  Name = ZINC22993344
REMARK  6 active torsions:
REMARK  status: ('A' for Active; 'I' for Inactive)
REMARK    1  A    between atoms: C_3  and  N_8
REMARK    2  A    between atoms: N_8  and  S_9
REMARK    3  A    between atoms: S_9  and  C_12
REMARK    4  A    between atoms: C_15  and  O_29
REMARK    5  A    between atoms: C_16  and  N_18
REMARK    6  A    between atoms: C_19  and  C_21
REMARK                            x       y       z     vdW  Elec       q    Type
REMARK                         _______ _______ _______ _____ _____    ______ ____
ROOT
ATOM      1  C   UNL     1       6.136   5.892   0.008  0.00  0.00    +0.110 A 
ATOM      2  C   UNL     1       6.235   7.271   0.021  0.00  0.00    +0.032 A 
ATOM      3  C   UNL     1       5.095   8.050  -0.043  0.00  0.00    +0.049 A 
ATOM      4  C   UNL     1       3.848   7.450  -0.118  0.00  0.00    +0.138 A 
ATOM      5  C   UNL     1       3.748   6.061  -0.130  0.00  0.00    +0.077 A 
ATOM      6  C   UNL     1       4.897   5.285  -0.061  0.00  0.00    +0.055 A 
ENDROOT
BRANCH   5   7
ATOM      7  N   UNL     1       2.491   5.448  -0.206  0.00  0.00    -0.278 N 
ATOM      8  C   UNL     1       2.384   4.182  -0.655  0.00  0.00    +0.249 C 
ATOM      9  O   UNL     1       3.363   3.606  -1.089  0.00  0.00    -0.270 OA
ATOM     10  H   UNL     1       1.591   6.000   0.101  0.00  0.00    +0.155 HD
BRANCH   8  11
ATOM     11  C   UNL     1       1.077   3.493  -0.619  0.00  0.00    +0.054 A 
ATOM     12  C   UNL     1      -0.048   4.151  -0.120  0.00  0.00    +0.052 A 
ATOM     13  C   UNL     1      -1.267   3.501  -0.090  0.00  0.00    +0.124 A 
ATOM     14  C   UNL     1      -1.373   2.200  -0.557  0.00  0.00    +0.039 A 
ATOM     15  C   UNL     1      -0.260   1.542  -1.047  0.00  0.00    +0.019 A 
ATOM     16  C   UNL     1       0.964   2.181  -1.084  0.00  0.00    +0.030 A 
ATOM     17 BR   UNL     1       2.482   1.280  -1.761  0.00  0.00    -0.050 Br
ATOM     18  F   UNL     1      -2.358   4.135   0.392  0.00  0.00    -0.205 F 
ENDBRANCH   8  11
ENDBRANCH   5   7
BRANCH   1  19
ATOM     19  S   UNL     1       7.594   4.906   0.088  0.00  0.00    +0.072 S 
ATOM     20  O   UNL     1       7.300   3.690  -0.586  0.00  0.00    -0.150 OA
ATOM     21  O   UNL     1       8.675   5.746  -0.294  0.00  0.00    -0.150 OA
BRANCH  19  22
ATOM     22  N   UNL     1       7.836   4.518   1.680  0.00  0.00    -0.216 N 
ATOM     23  H   UNL     1       8.716   4.907   2.213  0.00  0.00    +0.174 HD
BRANCH  22  26
ATOM     24  C   UNL     1       5.999   1.522   2.755  0.00  0.00    +0.003 A 
ATOM     25  C   UNL     1       6.904   2.331   2.096  0.00  0.00    +0.024 A 
ATOM     26  C   UNL     1       6.923   3.697   2.345  0.00  0.00    +0.049 A 
ATOM     27  C   UNL     1       6.035   4.245   3.263  0.00  0.00    +0.044 A 
ATOM     28  C   UNL     1       5.128   3.431   3.915  0.00  0.00    +0.043 A 
ATOM     29  C   UNL     1       5.113   2.070   3.663  0.00  0.00    +0.020 A 
ATOM     30 CL   UNL     1       4.013   4.115   5.056  0.00  0.00    -0.083 Cl
ENDBRANCH  22  26
ENDBRANCH  19  22
ENDBRANCH   1  19
BRANCH   4  31
ATOM     31  O   UNL     1       2.726   8.215  -0.180  0.00  0.00    -0.505 OA
ATOM     32  H   UNL     1       1.737   7.737  -0.240  0.00  0.00    +0.292 HD
ENDBRANCH   4  31
TORSDOF 6
