REMARK  Name = ZINC22216398
REMARK  9 active torsions:
REMARK  status: ('A' for Active; 'I' for Inactive)
REMARK    1  A    between atoms: C_1  and  C_2
REMARK    2  A    between atoms: C_3  and  C_30
REMARK    3  A    between atoms: C_11  and  C_13
REMARK    4  A    between atoms: C_13  and  C_15
REMARK    5  A    between atoms: C_13  and  S_16
REMARK    6  A    between atoms: S_16  and  C_17
REMARK    7  A    between atoms: C_19  and  C_29
REMARK    8  A    between atoms: C_20  and  C_28
REMARK    9  A    between atoms: N_21  and  C_22
REMARK                            x       y       z     vdW  Elec       q    Type
REMARK                         _______ _______ _______ _____ _____    ______ ____
ROOT
ATOM      1  C   UNL     1       0.090  -3.432   4.547  0.00  0.00    +0.117 C 
ATOM      2  C   UNL     1      -1.088  -3.129   5.476  0.00  0.00    +0.027 C 
ENDROOT
BRANCH   1  13
ATOM      3  C   UNL     1      -0.018   1.503   0.010  0.00  0.00    +0.045 C 
ATOM      4  C   UNL     1       0.002  -0.004   0.002  0.00  0.00    -0.026 A 
ATOM      5  C   UNL     1       0.006  -0.677  -1.160  0.00  0.00    -0.008 A 
ATOM      6  S   UNL     1       0.032  -2.385  -0.648  0.00  0.00    -0.073 S 
ATOM      7  C   UNL     1       0.037  -2.144   1.110  0.00  0.00    +0.116 A 
ATOM      8  C   UNL     1       0.024  -0.745   1.250  0.00  0.00    +0.075 A 
ATOM      9  C   UNL     1       0.029  -0.257   2.597  0.00  0.00    +0.260 A 
ATOM     10  O   UNL     1       0.014   0.942   2.821  0.00  0.00    -0.267 OA
ATOM     11  N   UNL     1       0.051  -1.142   3.611  0.00  0.00    -0.309 N 
ATOM     12  H   UNL     1       0.054  -0.817   4.525  0.00  0.00    +0.170 HD
ATOM     13  C   UNL     1       0.067  -2.480   3.380  0.00  0.00    +0.124 A 
ATOM     14  N   UNL     1       0.053  -2.956   2.163  0.00  0.00    -0.225 NA
ATOM     15  C   UNL     1      -0.009  -0.122  -2.561  0.00  0.00    +0.052 C 
ENDBRANCH   1  13
BRANCH   1  16
ATOM     16  S   UNL     1      -0.041  -5.136   3.940  0.00  0.00    -0.079 S 
BRANCH  16  17
ATOM     17  C   UNL     1       0.148  -6.121   5.389  0.00  0.00    +0.148 A 
ATOM     18  N   UNL     1       0.332  -5.667   6.607  0.00  0.00    -0.338 N 
ATOM     19  C   UNL     1       0.433  -6.703   7.456  0.00  0.00    +0.034 A 
ATOM     20  C   UNL     1       0.309  -7.841   6.752  0.00  0.00    +0.037 A 
ATOM     21  N   UNL     1       0.121  -7.481   5.437  0.00  0.00    -0.321 N 
ATOM     22  C   UNL     1       0.360  -9.245   7.299  0.00  0.00    +0.065 C 
ATOM     23  C   UNL     1       0.650  -6.606   8.945  0.00  0.00    +0.065 C 
ATOM     24  H   UNL     1       0.387  -4.731   6.855  0.00  0.00    +0.168 HD
BRANCH  21  25
ATOM     25  C   UNL     1      -0.068  -8.389   4.303  0.00  0.00    +0.089 C 
ATOM     26  C   UNL     1       1.052  -8.171   3.283  0.00  0.00    +0.025 C 
ATOM     27  C   UNL     1       0.854  -9.119   2.098  0.00  0.00    +0.002 C 
ATOM     28  C   UNL     1      -0.498  -8.839   1.440  0.00  0.00    +0.000 C 
ATOM     29  C   UNL     1      -1.617  -9.057   2.460  0.00  0.00    +0.002 C 
ATOM     30  C   UNL     1      -1.420  -8.109   3.645  0.00  0.00    +0.025 C 
ENDBRANCH  21  25
ENDBRANCH  16  17
ENDBRANCH   1  16
TORSDOF 4
