REMARK  Name = ZINC43746480
REMARK  5 active torsions:
REMARK  status: ('A' for Active; 'I' for Inactive)
REMARK    1  A    between atoms: C_1  and  C_2
REMARK    2  A    between atoms: C_18  and  C_20
REMARK    3  A    between atoms: C_20  and  N_21
REMARK    4  A    between atoms: C_24  and  C_27
REMARK    5  A    between atoms: C_24  and  O_34
REMARK                            x       y       z     vdW  Elec       q    Type
REMARK                         _______ _______ _______ _____ _____    ______ ____
ROOT
ATOM      1  C   UNL     1      -0.075   1.896   0.334  0.00  0.00    +0.011 C 
ATOM      2  C   UNL     1      -0.088   0.374   0.173  0.00  0.00    -0.023 C 
ATOM      3  C   UNL     1       0.574  -0.007  -1.151  0.00  0.00    +0.007 C 
ATOM      4  C   UNL     1       1.997   0.551  -1.200  0.00  0.00    +0.003 C 
ATOM      5  C   UNL     1       2.834  -0.086  -0.087  0.00  0.00    +0.037 C 
ATOM      6  C   UNL     1       2.146   0.164   1.258  0.00  0.00    +0.096 C 
ATOM      7  C   UNL     1       0.682  -0.274   1.333  0.00  0.00    +0.030 C 
ATOM      8  C   UNL     1       0.073   0.234   2.640  0.00  0.00    +0.014 C 
ATOM      9  C   UNL     1      -1.391  -0.114   2.743  0.00  0.00    +0.042 C 
ATOM     10  C   UNL     1      -2.216   0.283   1.503  0.00  0.00    +0.181 C 
ATOM     11  C   UNL     1      -1.526  -0.134   0.215  0.00  0.00    +0.052 C 
ATOM     12  O   UNL     1      -3.379  -0.580   1.650  0.00  0.00    -0.461 OA
ATOM     13  C   UNL     1      -2.936  -1.800   2.022  0.00  0.00    +0.309 C 
ATOM     14  O   UNL     1      -3.478  -2.851   1.774  0.00  0.00    -0.251 OA
ATOM     15  C   UNL     1      -1.644  -1.633   2.789  0.00  0.00    +0.088 C 
ATOM     16  C   UNL     1       2.991   0.057   2.525  0.00  0.00    +0.196 C 
ATOM     17  O   UNL     1       2.541   1.311   2.007  0.00  0.00    -0.368 OA
ENDROOT
BRANCH  15  18
ATOM     18  C   UNL     1      -1.823  -2.107   4.233  0.00  0.00    -0.064 C 
BRANCH  18  19
ATOM     19  N   UNL     1      -0.562  -1.929   4.966  0.00  0.00    +0.380 N 
ATOM     20  C   UNL     1       0.460  -2.818   4.402  0.00  0.00    -0.076 C 
ATOM     21  C   UNL     1       1.796  -2.578   5.109  0.00  0.00    +0.021 C 
ATOM     22  C   UNL     1       1.635  -2.867   6.604  0.00  0.00    +0.088 C 
ATOM     23  C   UNL     1       0.515  -1.986   7.166  0.00  0.00    +0.021 C 
ATOM     24  C   UNL     1      -0.773  -2.248   6.383  0.00  0.00    -0.076 C 
ATOM     25  H   UNL     1      -0.257  -0.971   4.880  0.00  0.00    -0.082 HD
BRANCH  22  26
ATOM     26  C   UNL     1       2.926  -2.558   7.319  0.00  0.00    -0.016 A 
ATOM     27  C   UNL     1       3.761  -1.567   6.838  0.00  0.00    +0.008 A 
ATOM     28  C   UNL     1       4.945  -1.283   7.493  0.00  0.00    +0.020 A 
ATOM     29  C   UNL     1       5.293  -1.990   8.630  0.00  0.00    +0.041 A 
ATOM     30  C   UNL     1       4.457  -2.982   9.110  0.00  0.00    +0.020 A 
ATOM     31  C   UNL     1       3.271  -3.261   8.457  0.00  0.00    +0.008 A 
ATOM     32 CL   UNL     1       6.780  -1.635   9.452  0.00  0.00    -0.084 Cl
ENDBRANCH  22  26
BRANCH  22  33
ATOM     33  O   UNL     1       1.301  -4.243   6.792  0.00  0.00    -0.384 OA
ATOM     34  H   UNL     1       1.184  -4.497   7.718  0.00  0.00    +0.211 HD
ENDBRANCH  22  33
ENDBRANCH  18  19
ENDBRANCH  15  18
TORSDOF 4
