REMARK  Name = ZINC14039011
REMARK  9 active torsions:
REMARK  status: ('A' for Active; 'I' for Inactive)
REMARK    1  A    between atoms: C_1  and  C_2
REMARK    2  A    between atoms: C_2  and  C_3
REMARK    3  A    between atoms: C_2  and  O_4
REMARK    4  A    between atoms: O_4  and  C_5
REMARK    5  A    between atoms: C_8  and  C_11
REMARK    6  A    between atoms: N_13  and  C_14
REMARK    7  A    between atoms: C_14  and  N_16
REMARK    8  A    between atoms: N_16  and  N_17
REMARK    9  A    between atoms: C_18  and  C_20
REMARK                            x       y       z     vdW  Elec       q    Type
REMARK                         _______ _______ _______ _____ _____    ______ ____
ROOT
ATOM      1  C   UNL     1       2.397  -4.095   1.071  0.00  0.00    +0.153 C 
ATOM      2  S   UNL     1       0.931  -4.935   1.346  0.00  0.00    -0.017 S 
ENDROOT
BRANCH   1   5
ATOM      3  C   UNL     1       1.214  -2.093   0.872  0.00  0.00    +0.250 C 
ATOM      4  O   UNL     1       0.172  -2.689   1.067  0.00  0.00    -0.270 OA
ATOM      5  N   UNL     1       2.383  -2.764   0.864  0.00  0.00    -0.263 N 
ATOM      6  H   UNL     1       3.214  -2.288   0.708  0.00  0.00    +0.157 HD
BRANCH   3  10
ATOM      7  C   UNL     1       1.168   2.102   0.218  0.00  0.00    +0.121 A 
ATOM      8  C   UNL     1      -0.024   1.422   0.441  0.00  0.00    +0.046 A 
ATOM      9  C   UNL     1      -0.013   0.062   0.653  0.00  0.00    +0.016 A 
ATOM     10  C   UNL     1       1.198  -0.636   0.644  0.00  0.00    +0.037 A 
ATOM     11  C   UNL     1       2.394   0.052   0.421  0.00  0.00    +0.016 A 
ATOM     12  C   UNL     1       2.375   1.412   0.209  0.00  0.00    +0.046 A 
BRANCH   7  13
ATOM     13  O   UNL     1       1.154   3.443   0.010  0.00  0.00    -0.489 OA
BRANCH  13  15
ATOM     14  C   UNL     1      -0.640   4.398   1.318  0.00  0.00    +0.051 C 
ATOM     15  C   UNL     1      -0.126   4.071  -0.086  0.00  0.00    +0.167 C 
ATOM     16  C   UNL     1      -0.002   5.362  -0.897  0.00  0.00    +0.051 C 
ENDBRANCH  13  15
ENDBRANCH   7  13
ENDBRANCH   3  10
ENDBRANCH   1   5
BRANCH   1  17
ATOM     17  N   UNL     1       3.566  -4.766   1.063  0.00  0.00    -0.245 N 
ATOM     18  H   UNL     1       3.576  -5.724   1.213  0.00  0.00    +0.172 HD
BRANCH  17  19
ATOM     19  N   UNL     1       4.766  -4.079   0.838  0.00  0.00    -0.231 N 
ATOM     20  C   UNL     1       5.935  -4.750   0.830  0.00  0.00    +0.261 C 
ATOM     21  O   UNL     1       5.948  -5.951   1.017  0.00  0.00    -0.269 OA
ATOM     22  H   UNL     1       4.756  -3.121   0.689  0.00  0.00    +0.173 HD
BRANCH  20  23
ATOM     23  C   UNL     1       7.202  -4.025   0.593  0.00  0.00    +0.051 A 
ATOM     24  C   UNL     1       7.190  -2.647   0.372  0.00  0.00    +0.014 A 
ATOM     25  C   UNL     1       8.375  -1.976   0.157  0.00  0.00    +0.001 A 
ATOM     26  C   UNL     1       9.574  -2.667   0.149  0.00  0.00    +0.001 A 
ATOM     27  C   UNL     1       9.593  -4.033   0.362  0.00  0.00    +0.015 A 
ATOM     28  C   UNL     1       8.414  -4.717   0.584  0.00  0.00    +0.026 A 
ATOM     29  I   UNL     1       8.445  -6.787   0.905  0.00  0.00    -0.043 I 
ENDBRANCH  20  23
ENDBRANCH  17  19
ENDBRANCH   1  17
TORSDOF 7
