REMARK  Name = ZINC09119641
REMARK  8 active torsions:
REMARK  status: ('A' for Active; 'I' for Inactive)
REMARK    1  A    between atoms: C_3  and  S_21
REMARK    2  A    between atoms: C_6  and  N_7
REMARK    3  A    between atoms: C_8  and  C_10
REMARK    4  A    between atoms: C_10  and  S_11
REMARK    5  A    between atoms: S_11  and  C_12
REMARK    6  A    between atoms: C_15  and  C_18
REMARK    7  A    between atoms: N_16  and  N_17
REMARK    8  A    between atoms: S_21  and  N_24
REMARK                            x       y       z     vdW  Elec       q    Type
REMARK                         _______ _______ _______ _____ _____    ______ ____
ROOT
ATOM      1  N   UNL     1       5.296  -2.123  -3.968  0.00  0.00    -0.285 N 
ATOM      2  C   UNL     1       6.485  -1.656  -4.399  0.00  0.00    +0.227 C 
ATOM      3  O   UNL     1       7.207  -1.045  -3.640  0.00  0.00    -0.275 OA
ATOM      4  H   UNL     1       4.753  -2.677  -4.550  0.00  0.00    +0.155 HD
ENDROOT
BRANCH   1  10
ATOM      5  C   UNL     1       5.162  -0.584  -2.111  0.00  0.00    +0.025 A 
ATOM      6  C   UNL     1       4.717  -0.279  -0.840  0.00  0.00    +0.030 A 
ATOM      7  C   UNL     1       3.957  -1.193  -0.134  0.00  0.00    +0.106 A 
ATOM      8  C   UNL     1       3.646  -2.418  -0.695  0.00  0.00    +0.030 A 
ATOM      9  C   UNL     1       4.084  -2.727  -1.968  0.00  0.00    +0.025 A 
ATOM     10  C   UNL     1       4.847  -1.811  -2.680  0.00  0.00    +0.034 A 
BRANCH   7  11
ATOM     11  S   UNL     1       3.391  -0.799   1.488  0.00  0.00    +0.061 S 
ATOM     12  O   UNL     1       4.279   0.185   2.000  0.00  0.00    -0.153 OA
ATOM     13  O   UNL     1       3.161  -2.036   2.149  0.00  0.00    -0.153 OA
BRANCH  11  14
ATOM     14  N   UNL     1       1.915  -0.067   1.326  0.00  0.00    -0.177 NA
ATOM     15  C   UNL     1       0.680  -0.863   1.329  0.00  0.00    +0.109 C 
ATOM     16  C   UNL     1      -0.127  -0.525   0.071  0.00  0.00    +0.017 C 
ATOM     17  C   UNL     1      -0.354   0.987   0.006  0.00  0.00    +0.003 C 
ATOM     18  C   UNL     1       0.995   1.704  -0.079  0.00  0.00    +0.017 C 
ATOM     19  C   UNL     1       1.815   1.392   1.177  0.00  0.00    +0.109 C 
ENDBRANCH  11  14
ENDBRANCH   7  11
ENDBRANCH   1  10
BRANCH   2  20
ATOM     20  C   UNL     1       6.915  -1.892  -5.824  0.00  0.00    +0.173 C 
BRANCH  20  21
ATOM     21  S   UNL     1       8.543  -1.148  -6.093  0.00  0.00    -0.075 S 
BRANCH  21  22
ATOM     22  C   UNL     1       8.793  -1.563  -7.787  0.00  0.00    +0.209 A 
ATOM     23  N   UNL     1       7.965  -2.230  -8.557  0.00  0.00    -0.121 NA
ATOM     24  N   UNL     1       8.466  -2.351  -9.735  0.00  0.00    -0.132 NA
ATOM     25  C   UNL     1       9.633  -1.773  -9.786  0.00  0.00    +0.154 A 
ATOM     26  N   UNL     1       9.880  -1.245  -8.549  0.00  0.00    -0.228 N 
BRANCH  26  27
ATOM     27  N   UNL     1      10.987  -0.548  -8.156  0.00  0.00    -0.295 N 
ATOM     28  H   UNL     1      11.696  -1.169  -7.795  0.00  0.00    +0.163 HD
ATOM     29  H   UNL     1      11.350   0.012  -8.913  0.00  0.00    +0.163 HD
ENDBRANCH  26  27
BRANCH  25  30
ATOM     30  C   UNL     1      10.539  -1.696 -10.988  0.00  0.00    +0.059 C 
ATOM     31  C   UNL     1       9.976  -2.171 -12.329  0.00  0.00    +0.012 C 
ATOM     32  C   UNL     1      11.021  -3.015 -11.595  0.00  0.00    +0.012 C 
ENDBRANCH  25  30
ENDBRANCH  21  22
ENDBRANCH  20  21
ENDBRANCH   2  20
TORSDOF 8
