REMARK  Name = ZINC20116217
REMARK  12 active torsions:
REMARK  status: ('A' for Active; 'I' for Inactive)
REMARK    1  A    between atoms: C_1  and  C_2
REMARK    2  A    between atoms: N_5  and  C_8
REMARK    3  A    between atoms: C_8  and  C_9
REMARK    4  A    between atoms: C_9  and  N_10
REMARK    5  A    between atoms: C_11  and  C_13
REMARK    6  A    between atoms: C_13  and  C_15
REMARK    7  A    between atoms: C_13  and  N_19
REMARK    8  A    between atoms: C_15  and  C_16
REMARK    9  A    between atoms: C_16  and  C_17
REMARK   10  A    between atoms: C_16  and  C_18
REMARK   11  A    between atoms: C_20  and  C_22
REMARK   12  A    between atoms: C_25  and  C_28
REMARK                            x       y       z     vdW  Elec       q    Type
REMARK                         _______ _______ _______ _____ _____    ______ ____
ROOT
ATOM      1  N   UNL     1       6.202   7.256   2.161  0.00  0.00    -0.300 N 
ATOM      2  C   UNL     1       7.256   7.902   2.699  0.00  0.00    +0.245 C 
ATOM      3  O   UNL     1       8.319   7.327   2.827  0.00  0.00    -0.270 OA
ATOM      4  H   UNL     1       5.265   7.799   1.967  0.00  0.00    +0.150 HD
ENDROOT
BRANCH   2   5
ATOM      5  C   UNL     1       7.119   9.309   3.131  0.00  0.00    +0.037 A 
ATOM      6  C   UNL     1       5.901   9.973   2.980  0.00  0.00    +0.013 A 
ATOM      7  C   UNL     1       5.778  11.285   3.389  0.00  0.00    +0.005 A 
ATOM      8  C   UNL     1       6.862  11.944   3.941  0.00  0.00    -0.041 A 
ATOM      9  C   UNL     1       8.074  11.293   4.089  0.00  0.00    +0.005 A 
ATOM     10  C   UNL     1       8.209   9.980   3.688  0.00  0.00    +0.013 A 
BRANCH   8  11
ATOM     11  C   UNL     1       6.723  13.379   4.380  0.00  0.00    -0.003 C 
ATOM     12  C   UNL     1       7.711  14.250   3.601  0.00  0.00    +0.015 C 
ATOM     13  C   UNL     1       7.569  15.706   4.048  0.00  0.00    -0.010 C 
ATOM     14  C   UNL     1       6.143  16.187   3.776  0.00  0.00    +0.007 C 
ATOM     15  C   UNL     1       5.154  15.316   4.555  0.00  0.00    -0.010 C 
ATOM     16  C   UNL     1       5.296  13.860   4.109  0.00  0.00    +0.015 C 
ATOM     17  C   UNL     1       5.452  15.422   6.052  0.00  0.00    +0.007 C 
ATOM     18  C   UNL     1       6.879  14.941   6.324  0.00  0.00    -0.010 C 
ATOM     19  C   UNL     1       7.867  15.812   5.545  0.00  0.00    +0.007 C 
ATOM     20  C   UNL     1       7.021  13.485   5.877  0.00  0.00    +0.015 C 
ENDBRANCH   8  11
ENDBRANCH   2   5
BRANCH   1  21
ATOM     21  C   UNL     1       6.303   5.831   1.837  0.00  0.00    +0.159 C 
BRANCH  21  23
ATOM     22  N   UNL     1       4.779   3.898   1.597  0.00  0.00    -0.316 N 
ATOM     23  C   UNL     1       4.929   5.213   1.854  0.00  0.00    +0.233 C 
ATOM     24  O   UNL     1       3.959   5.898   2.099  0.00  0.00    -0.274 OA
ATOM     25  H   UNL     1       5.659   3.277   1.375  0.00  0.00    +0.149 HD
BRANCH  22  26
ATOM     26  C   UNL     1       3.443   3.297   1.615  0.00  0.00    +0.086 C 
BRANCH  26  27
ATOM     27  C   UNL     1       3.551   1.805   1.293  0.00  0.00    -0.060 C 
BRANCH  27  32
ATOM     28  C   UNL     1      -1.433  -0.876   0.496  0.00  0.00    +0.007 C 
ATOM     29  C   UNL     1      -0.018  -0.329   0.299  0.00  0.00    -0.018 C 
ATOM     30  C   UNL     1      -0.047   1.200   0.362  0.00  0.00    -0.016 C 
ATOM     31  C   UNL     1       1.379   1.739   0.226  0.00  0.00    -0.079 C 
ATOM     32  N   UNL     1       2.212   1.202   1.310  0.00  0.00    +0.381 N 
ATOM     33  C   UNL     1       2.293  -0.263   1.242  0.00  0.00    -0.079 C 
ATOM     34  C   UNL     1       0.894  -0.861   1.409  0.00  0.00    -0.016 C 
ATOM     35  H   UNL     1       1.732   1.467   2.264  0.00  0.00    -0.082 HD
ENDBRANCH  27  32
ENDBRANCH  26  27
ENDBRANCH  22  26
ENDBRANCH  21  23
BRANCH  21  36
ATOM     36  C   UNL     1       6.919   5.668   0.445  0.00  0.00    +0.034 C 
BRANCH  36  37
ATOM     37  C   UNL     1       6.120   6.494  -0.565  0.00  0.00    -0.015 C 
ATOM     38  C   UNL     1       6.854   6.505  -1.908  0.00  0.00    +0.007 C 
ATOM     39  C   UNL     1       4.733   5.875  -0.748  0.00  0.00    +0.007 C 
ENDBRANCH  36  37
ENDBRANCH  21  36
ENDBRANCH   1  21
TORSDOF 9
