REMARK  Name = ZINC67139366
REMARK  9 active torsions:
REMARK  status: ('A' for Active; 'I' for Inactive)
REMARK    1  A    between atoms: C_1  and  C_2
REMARK    2  A    between atoms: C_2  and  C_3
REMARK    3  A    between atoms: C_2  and  C_4
REMARK    4  A    between atoms: C_2  and  O_5
REMARK    5  A    between atoms: O_5  and  C_6
REMARK    6  A    between atoms: C_11  and  C_14
REMARK    7  A    between atoms: C_14  and  C_15
REMARK    8  A    between atoms: N_17  and  C_18
REMARK    9  A    between atoms: C_18  and  C_19
REMARK                            x       y       z     vdW  Elec       q    Type
REMARK                         _______ _______ _______ _____ _____    ______ ____
ROOT
ATOM      1  C   UNL     1       6.533  -2.945  -4.726  0.00  0.00    +0.214 C 
ATOM      2  O   UNL     1       6.793  -1.766  -4.837  0.00  0.00    -0.276 OA
ATOM      3  N   UNL     1       7.468  -3.872  -5.013  0.00  0.00    -0.308 N 
ATOM      4  H   UNL     1       7.260  -4.815  -4.925  0.00  0.00    +0.149 HD
ENDROOT
BRANCH   1   5
ATOM      5  C   UNL     1       5.163  -3.374  -4.267  0.00  0.00    +0.099 C 
BRANCH   5  11
ATOM      6  C   UNL     1       1.952  -0.085  -1.337  0.00  0.00    +0.403 C 
ATOM      7  O   UNL     1       2.488   0.619  -0.503  0.00  0.00    -0.226 OA
ATOM      8  N   UNL     1       2.641  -0.485  -2.424  0.00  0.00    -0.267 N 
ATOM      9  C   UNL     1       2.005  -1.331  -3.443  0.00  0.00    +0.111 C 
ATOM     10  C   UNL     1       2.874  -2.573  -3.666  0.00  0.00    +0.023 C 
ATOM     11  C   UNL     1       4.300  -2.137  -4.011  0.00  0.00    +0.001 C 
ATOM     12  C   UNL     1       4.888  -1.339  -2.845  0.00  0.00    +0.023 C 
ATOM     13  C   UNL     1       4.040  -0.078  -2.616  0.00  0.00    +0.111 C 
BRANCH   6  14
ATOM     14  O   UNL     1       0.671  -0.465  -1.174  0.00  0.00    -0.445 OA
BRANCH  14  16
ATOM     15  C   UNL     1      -0.019   1.526   0.010  0.00  0.00    +0.055 C 
ATOM     16  C   UNL     1       0.002  -0.004   0.002  0.00  0.00    +0.107 C 
ATOM     17  C   UNL     1       0.742  -0.511   1.242  0.00  0.00    +0.055 C 
ATOM     18  C   UNL     1      -1.433  -0.534   0.013  0.00  0.00    +0.055 C 
ENDBRANCH  14  16
ENDBRANCH   6  14
ENDBRANCH   5  11
ENDBRANCH   1   5
BRANCH   3  19
ATOM     19  C   UNL     1       8.800  -3.454  -5.460  0.00  0.00    +0.178 C 
BRANCH  19  20
ATOM     20  C   UNL     1       9.649  -4.673  -5.713  0.00  0.00    +0.125 A 
ATOM     21  N   UNL     1       9.821  -5.265  -6.925  0.00  0.00    -0.341 N 
ATOM     22  H   UNL     1       9.425  -4.983  -7.764  0.00  0.00    +0.167 HD
ATOM     23  C   UNL     1      10.664  -6.343  -6.740  0.00  0.00    +0.066 A 
ATOM     24  C   UNL     1      11.196  -7.310  -7.582  0.00  0.00    +0.028 A 
ATOM     25  C   UNL     1      12.030  -8.279  -7.067  0.00  0.00    +0.002 A 
ATOM     26  C   UNL     1      12.341  -8.294  -5.714  0.00  0.00    +0.002 A 
ATOM     27  C   UNL     1      11.826  -7.351  -4.871  0.00  0.00    +0.030 A 
ATOM     28  C   UNL     1      10.979  -6.359  -5.370  0.00  0.00    +0.089 A 
ATOM     29  N   UNL     1      10.331  -5.308  -4.804  0.00  0.00    -0.231 NA
ENDBRANCH  19  20
ENDBRANCH   3  19
TORSDOF 6
