REMARK  Name = ZINC20154387
REMARK  6 active torsions:
REMARK  status: ('A' for Active; 'I' for Inactive)
REMARK    1  A    between atoms: C_3  and  N_28
REMARK    2  A    between atoms: C_4  and  N_25
REMARK    3  A    between atoms: C_6  and  N_7
REMARK    4  A    between atoms: C_8  and  C_10
REMARK    5  A    between atoms: C_11  and  C_12
REMARK    6  A    between atoms: C_15  and  C_17
REMARK                            x       y       z     vdW  Elec       q    Type
REMARK                         _______ _______ _______ _____ _____    ______ ____
ROOT
ATOM      1  N   UNL     1       0.020  -0.040  -0.013  0.00  0.00    -0.282 N 
ATOM      2  C   UNL     1       0.102   1.145  -0.650  0.00  0.00    +0.241 C 
ATOM      3  O   UNL     1      -0.876   1.601  -1.216  0.00  0.00    -0.270 OA
ATOM      4  H   UNL     1       0.923  -0.494   0.421  0.00  0.00    +0.155 HD
ENDROOT
BRANCH   1  10
ATOM      5  C   UNL     1      -2.382   0.046   0.220  0.00  0.00    +0.025 A 
ATOM      6  C   UNL     1      -3.600  -0.598   0.322  0.00  0.00    +0.027 A 
ATOM      7  C   UNL     1      -3.654  -1.985   0.311  0.00  0.00    +0.060 A 
ATOM      8  C   UNL     1      -2.484  -2.725   0.192  0.00  0.00    +0.149 A 
ATOM      9  C   UNL     1      -1.268  -2.081   0.084  0.00  0.00    +0.058 A 
ATOM     10  C   UNL     1      -1.214  -0.693   0.095  0.00  0.00    +0.036 A 
BRANCH   7  11
ATOM     11  N   UNL     1      -4.887  -2.638   0.421  0.00  0.00    -0.332 N 
ATOM     12  C   UNL     1      -5.569  -2.269   1.669  0.00  0.00    +0.086 C 
ATOM     13  C   UNL     1      -6.872  -3.062   1.789  0.00  0.00    -0.063 C 
ATOM     14  N   UNL     1      -7.723  -2.780   0.624  0.00  0.00    +0.381 N 
ATOM     15  C   UNL     1      -7.041  -3.149  -0.624  0.00  0.00    -0.063 C 
ATOM     16  C   UNL     1      -5.737  -2.356  -0.744  0.00  0.00    +0.086 C 
ATOM     17  H   UNL     1      -8.655  -3.359   0.702  0.00  0.00    -0.086 HD
ATOM     18  H   UNL     1      -7.959  -1.706   0.594  0.00  0.00    -0.086 HD
ENDBRANCH   7  11
BRANCH   8  19
ATOM     19  N   UNL     1      -2.542  -4.204   0.180  0.00  0.00    +0.058 N 
ATOM     20  O   UNL     1      -1.512  -4.854   0.175  0.00  0.00    -0.126 OA
ATOM     21  O   UNL     1      -3.620  -4.772   0.176  0.00  0.00    -0.126 OA
ENDBRANCH   8  19
ENDBRANCH   1  10
BRANCH   2  22
ATOM     22  C   UNL     1       1.323   1.856  -0.666  0.00  0.00    +0.071 C 
ATOM     23  C   UNL     1       1.406   3.050  -1.308  0.00  0.00    +0.051 C 
BRANCH  23  24
ATOM     24  C   UNL     1       2.627   3.761  -1.325  0.00  0.00    +0.129 A 
ATOM     25  C   UNL     1       2.846   4.981  -1.938  0.00  0.00    +0.050 A 
ATOM     26  C   UNL     1       4.183   5.314  -1.706  0.00  0.00    +0.050 A 
ATOM     27  C   UNL     1       4.730   4.293  -0.964  0.00  0.00    +0.137 A 
ATOM     28  O   UNL     1       3.778   3.370  -0.739  0.00  0.00    -0.455 OA
BRANCH  27  29
ATOM     29  C   UNL     1       6.126   4.224  -0.489  0.00  0.00    +0.036 A 
ATOM     30  C   UNL     1       7.181   4.434  -1.380  0.00  0.00    +0.014 A 
ATOM     31  C   UNL     1       8.483   4.374  -0.929  0.00  0.00    +0.021 A 
ATOM     32  C   UNL     1       8.746   4.095   0.403  0.00  0.00    +0.042 A 
ATOM     33  C   UNL     1       7.706   3.880   1.290  0.00  0.00    +0.040 A 
ATOM     34  C   UNL     1       6.398   3.942   0.853  0.00  0.00    +0.053 A 
ATOM     35 CL   UNL     1       5.094   3.672   1.967  0.00  0.00    -0.083 Cl
ATOM     36 CL   UNL     1      10.388   4.015   0.960  0.00  0.00    -0.083 Cl
ENDBRANCH  27  29
ENDBRANCH  23  24
ENDBRANCH   2  22
TORSDOF 6
