REMARK  Name = ZINC14545989
REMARK  5 active torsions:
REMARK  status: ('A' for Active; 'I' for Inactive)
REMARK    1  A    between atoms: C_1  and  C_2
REMARK    2  A    between atoms: C_3  and  N_26
REMARK    3  A    between atoms: C_9  and  C_18
REMARK    4  A    between atoms: C_23  and  O_24
REMARK    5  A    between atoms: O_24  and  C_25
REMARK                            x       y       z     vdW  Elec       q    Type
REMARK                         _______ _______ _______ _____ _____    ______ ____
ROOT
ATOM      1  C   UNL     1       0.426   1.966   4.967  0.00  0.00    +0.048 C 
ATOM      2  C   UNL     1      -0.372   1.936   3.689  0.00  0.00    +0.001 A 
ATOM      3  C   UNL     1      -1.630   2.496   3.659  0.00  0.00    +0.131 A 
ATOM      4  C   UNL     1      -2.374   2.476   2.494  0.00  0.00    +0.033 A 
ATOM      5  C   UNL     1      -1.850   1.885   1.359  0.00  0.00    +0.008 A 
ATOM      6  C   UNL     1      -0.597   1.332   1.372  0.00  0.00    -0.019 A 
ATOM      7  C   UNL     1       0.173   1.341   2.550  0.00  0.00    +0.037 A 
ATOM      8  N   UNL     1       1.457   0.810   2.652  0.00  0.00    -0.336 N 
ATOM      9  C   UNL     1       1.982   0.115   1.466  0.00  0.00    +0.108 C 
ATOM     10  C   UNL     1       1.526   0.899   0.253  0.00  0.00    +0.029 C 
ATOM     11  C   UNL     1      -0.015   0.662   0.188  0.00  0.00    +0.049 C 
ATOM     12  C   UNL     1      -0.360   1.071  -1.195  0.00  0.00    -0.023 C 
ATOM     13  C   UNL     1       0.701   0.874  -1.971  0.00  0.00    -0.030 C 
ATOM     14  C   UNL     1       1.867   0.341  -1.134  0.00  0.00    +0.033 C 
ATOM     15  H   UNL     1       2.110   1.504   2.983  0.00  0.00    +0.147 HD
ENDROOT
BRANCH   9  16
ATOM     16  C   UNL     1       1.434  -1.288   1.407  0.00  0.00    +0.015 A 
ATOM     17  C   UNL     1       0.259  -1.599   2.064  0.00  0.00    +0.009 A 
ATOM     18  C   UNL     1      -0.245  -2.885   2.010  0.00  0.00    +0.001 A 
ATOM     19  C   UNL     1       0.425  -3.863   1.299  0.00  0.00    +0.004 A 
ATOM     20  C   UNL     1       1.600  -3.558   0.641  0.00  0.00    +0.046 A 
ATOM     21  C   UNL     1       2.105  -2.266   0.689  0.00  0.00    +0.125 A 
BRANCH  21  22
ATOM     22  O   UNL     1       3.258  -1.961   0.037  0.00  0.00    -0.495 OA
ATOM     23  C   UNL     1       3.895  -3.019  -0.683  0.00  0.00    +0.277 C 
ENDBRANCH  21  22
ENDBRANCH   9  16
BRANCH   3  24
ATOM     24  N   UNL     1      -2.188   3.121   4.879  0.00  0.00    +0.057 N 
ATOM     25  O   UNL     1      -3.375   3.014   5.130  0.00  0.00    -0.126 OA
ATOM     26  O   UNL     1      -1.460   3.743   5.632  0.00  0.00    -0.126 OA
ENDBRANCH   3  24
TORSDOF 3
