REMARK  Name = ZINC02325756
REMARK  6 active torsions:
REMARK  status: ('A' for Active; 'I' for Inactive)
REMARK    1  A    between atoms: C_4  and  C_7
REMARK    2  A    between atoms: C_7  and  N_8
REMARK    3  A    between atoms: N_16  and  N_17
REMARK    4  A    between atoms: C_18  and  C_20
REMARK    5  A    between atoms: C_20  and  N_21
REMARK    6  A    between atoms: N_21  and  C_22
REMARK                            x       y       z     vdW  Elec       q    Type
REMARK                         _______ _______ _______ _____ _____    ______ ____
ROOT
ATOM      1  N   UNL     1       4.152  -0.952   1.338  0.00  0.00    -0.261 N 
ATOM      2  C   UNL     1       4.944  -0.078   2.074  0.00  0.00    +0.046 A 
ATOM      3  C   UNL     1       5.496   1.159   1.757  0.00  0.00    +0.025 A 
ATOM      4  C   UNL     1       6.260   1.835   2.686  0.00  0.00    +0.017 A 
ATOM      5  C   UNL     1       6.487   1.295   3.941  0.00  0.00    +0.019 A 
ATOM      6  C   UNL     1       5.947   0.068   4.274  0.00  0.00    +0.027 A 
ATOM      7  C   UNL     1       5.176  -0.621   3.345  0.00  0.00    +0.029 A 
ATOM      8  C   UNL     1       4.470  -1.923   3.378  0.00  0.00    +0.153 C 
ATOM      9  N   UNL     1       4.415  -2.776   4.372  0.00  0.00    -0.174 NA
ATOM     10  C   UNL     1       3.837  -2.048   2.050  0.00  0.00    +0.272 C 
ATOM     11  O   UNL     1       3.154  -2.979   1.666  0.00  0.00    -0.268 OA
ATOM     12 BR   UNL     1       7.537   2.238   5.200  0.00  0.00    -0.050 Br
ENDROOT
BRANCH   9  13
ATOM     13  N   UNL     1       3.696  -3.970   4.232  0.00  0.00    -0.205 N 
ATOM     14  C   UNL     1       3.639  -4.846   5.254  0.00  0.00    +0.249 C 
ATOM     15  O   UNL     1       4.210  -4.602   6.295  0.00  0.00    -0.272 OA
ATOM     16  H   UNL     1       3.238  -4.165   3.399  0.00  0.00    +0.177 HD
BRANCH  14  17
ATOM     17  C   UNL     1       2.865  -6.131   5.103  0.00  0.00    +0.199 C 
BRANCH  17  18
ATOM     18  N   UNL     1       2.957  -6.905   6.343  0.00  0.00    -0.335 N 
ATOM     19  H   UNL     1       3.463  -6.559   7.095  0.00  0.00    +0.147 HD
BRANCH  18  20
ATOM     20  C   UNL     1       2.317  -8.138   6.443  0.00  0.00    +0.035 A 
ATOM     21  C   UNL     1       1.600  -8.639   5.377  0.00  0.00    +0.023 A 
ATOM     22  C   UNL     1       0.958  -9.870   5.467  0.00  0.00    +0.002 A 
ATOM     23  C   UNL     1       1.018 -10.613   6.607  0.00  0.00    +0.008 A 
ATOM     24  C   UNL     1       1.738 -10.139   7.716  0.00  0.00    -0.016 A 
ATOM     25  C   UNL     1       2.401  -8.889   7.635  0.00  0.00    +0.003 A 
ATOM     26  C   UNL     1       3.124  -8.419   8.743  0.00  0.00    +0.010 A 
ATOM     27  C   UNL     1       3.183  -9.171   9.877  0.00  0.00    +0.001 A 
ATOM     28  C   UNL     1       2.536 -10.402   9.956  0.00  0.00    +0.001 A 
ATOM     29  C   UNL     1       1.816 -10.884   8.906  0.00  0.00    +0.008 A 
ENDBRANCH  18  20
ENDBRANCH  17  18
ENDBRANCH  14  17
ENDBRANCH   9  13
BRANCH   1  30
ATOM     30  C   UNL     1       3.711  -0.707  -0.038  0.00  0.00    +0.149 C 
BRANCH  30  34
ATOM     31  C   UNL     1      -0.017   1.378   0.010  0.00  0.00    +0.000 A 
ATOM     32  C   UNL     1       1.171   2.086   0.002  0.00  0.00    +0.000 A 
ATOM     33  C   UNL     1       2.377   1.411  -0.013  0.00  0.00    +0.005 A 
ATOM     34  C   UNL     1       2.396   0.029  -0.020  0.00  0.00    -0.030 A 
ATOM     35  C   UNL     1       1.208  -0.679  -0.012  0.00  0.00    +0.005 A 
ATOM     36  C   UNL     1       0.002  -0.004   0.002  0.00  0.00    +0.000 A 
ENDBRANCH  30  34
ENDBRANCH   1  30
TORSDOF 6
