REMARK  Name = ZINC20711239
REMARK  6 active torsions:
REMARK  status: ('A' for Active; 'I' for Inactive)
REMARK    1  A    between atoms: C_4  and  C_7
REMARK    2  A    between atoms: C_7  and  C_8
REMARK    3  A    between atoms: C_8  and  N_9
REMARK    4  A    between atoms: N_9  and  S_10
REMARK    5  A    between atoms: S_10  and  C_13
REMARK    6  A    between atoms: C_26  and  C_29
REMARK                            x       y       z     vdW  Elec       q    Type
REMARK                         _______ _______ _______ _____ _____    ______ ____
ROOT
ATOM      1  C   UNL     1      -0.022   1.758   0.012  0.00  0.00    +0.106 A 
ATOM      2  C   UNL     1      -1.229   2.433   0.021  0.00  0.00    +0.030 A 
ATOM      3  C   UNL     1      -1.251   3.813   0.040  0.00  0.00    +0.025 A 
ATOM      4  C   UNL     1      -0.063   4.534   0.040  0.00  0.00    +0.031 A 
ATOM      5  C   UNL     1       1.154   3.844   0.015  0.00  0.00    -0.018 A 
ATOM      6  C   UNL     1       1.166   2.466   0.004  0.00  0.00    +0.034 A 
ATOM      7  C   UNL     1       2.395   4.648  -0.012  0.00  0.00    +0.049 C 
ATOM      8  C   UNL     1       3.680   4.126   0.519  0.00  0.00    -0.023 C 
ATOM      9  C   UNL     1       4.388   5.144   0.994  0.00  0.00    -0.030 C 
ATOM     10  C   UNL     1       3.597   6.446   0.843  0.00  0.00    +0.033 C 
ATOM     11  C   UNL     1       2.152   5.930   0.840  0.00  0.00    +0.029 C 
ATOM     12  C   UNL     1       1.128   6.742   0.067  0.00  0.00    +0.106 C 
ATOM     13  N   UNL     1      -0.111   5.933   0.077  0.00  0.00    -0.336 N 
ATOM     14  H   UNL     1      -1.092   6.429   0.114  0.00  0.00    +0.147 HD
ENDROOT
BRANCH  12  15
ATOM     15  C   UNL     1       1.596   6.959  -1.349  0.00  0.00    -0.007 A 
ATOM     16  C   UNL     1       1.099   6.170  -2.370  0.00  0.00    +0.007 A 
ATOM     17  C   UNL     1       1.528   6.369  -3.669  0.00  0.00    +0.002 A 
ATOM     18  C   UNL     1       2.455   7.356  -3.948  0.00  0.00    +0.021 A 
ATOM     19  C   UNL     1       2.954   8.145  -2.928  0.00  0.00    +0.060 A 
ATOM     20  C   UNL     1       2.519   7.950  -1.627  0.00  0.00    +0.064 A 
ATOM     21 CL   UNL     1       3.138   8.945  -0.347  0.00  0.00    -0.082 Cl
ATOM     22 CL   UNL     1       4.119   9.384  -3.278  0.00  0.00    -0.082 Cl
ENDBRANCH  12  15
BRANCH   1  23
ATOM     23  S   UNL     1       0.002  -0.004   0.002  0.00  0.00    +0.058 S 
ATOM     24  O   UNL     1      -1.243  -0.424  -0.539  0.00  0.00    -0.153 OA
ATOM     25  O   UNL     1       1.248  -0.390  -0.563  0.00  0.00    -0.153 OA
BRANCH  23  26
ATOM     26  N   UNL     1       0.024  -0.502   1.581  0.00  0.00    -0.190 NA
ATOM     27  H   UNL     1       0.960  -0.889   2.010  0.00  0.00    +0.148 HD
BRANCH  26  28
ATOM     28  C   UNL     1      -1.122  -0.227   2.452  0.00  0.00    +0.110 C 
BRANCH  28  29
ATOM     29  C   UNL     1      -1.025  -1.091   3.711  0.00  0.00    +0.052 C 
BRANCH  29  33
ATOM     30  C   UNL     1      -4.364  -0.288   6.250  0.00  0.00    +0.000 A 
ATOM     31  C   UNL     1      -4.447  -1.283   5.293  0.00  0.00    +0.000 A 
ATOM     32  C   UNL     1      -3.366  -1.542   4.472  0.00  0.00    +0.003 A 
ATOM     33  C   UNL     1      -2.203  -0.808   4.607  0.00  0.00    -0.046 A 
ATOM     34  C   UNL     1      -2.119   0.183   5.567  0.00  0.00    +0.003 A 
ATOM     35  C   UNL     1      -3.201   0.446   6.385  0.00  0.00    +0.000 A 
ENDBRANCH  29  33
ENDBRANCH  28  29
ENDBRANCH  26  28
ENDBRANCH  23  26
ENDBRANCH   1  23
TORSDOF 6
