REMARK  Name = ZINC03377133
REMARK  7 active torsions:
REMARK  status: ('A' for Active; 'I' for Inactive)
REMARK    1  A    between atoms: C_1  and  C_2
REMARK    2  A    between atoms: C_5  and  S_8
REMARK    3  A    between atoms: S_8  and  N_11
REMARK    4  A    between atoms: C_14  and  C_17
REMARK    5  A    between atoms: N_19  and  N_20
REMARK    6  A    between atoms: C_21  and  C_22
REMARK    7  A    between atoms: C_27  and  C_28
REMARK                            x       y       z     vdW  Elec       q    Type
REMARK                         _______ _______ _______ _____ _____    ______ ____
ROOT
ATOM      1  N   UNL     1       7.918  -2.852  -2.271  0.00  0.00    -0.177 NA
ATOM      2  C   UNL     1       7.071  -3.450  -1.230  0.00  0.00    +0.110 C 
ATOM      3  C   UNL     1       5.770  -2.647  -1.132  0.00  0.00    +0.030 C 
ATOM      4  C   UNL     1       6.102  -1.171  -0.901  0.00  0.00    +0.079 C 
ATOM      5  C   UNL     1       6.911  -0.637  -2.085  0.00  0.00    +0.030 C 
ATOM      6  C   UNL     1       8.225  -1.417  -2.195  0.00  0.00    +0.110 C 
ENDROOT
BRANCH   4   7
ATOM      7  C   UNL     1       4.824  -0.383  -0.770  0.00  0.00    +0.235 C 
ATOM      8  O   UNL     1       3.753  -0.947  -0.853  0.00  0.00    -0.274 OA
ATOM      9  N   UNL     1       4.871   0.947  -0.560  0.00  0.00    -0.207 N 
ATOM     10  H   UNL     1       5.728   1.398  -0.494  0.00  0.00    +0.177 HD
BRANCH   9  11
ATOM     11  N   UNL     1       3.683   1.679  -0.438  0.00  0.00    -0.188 NA
ATOM     12  C   UNL     1       3.728   2.962  -0.236  0.00  0.00    +0.139 C 
BRANCH  12  13
ATOM     13  C   UNL     1       2.480   3.731  -0.108  0.00  0.00    +0.009 A 
ATOM     14  C   UNL     1       1.248   3.074  -0.086  0.00  0.00    +0.010 A 
ATOM     15  C   UNL     1       0.082   3.800   0.035  0.00  0.00    +0.001 A 
ATOM     16  C   UNL     1       0.121   5.182   0.135  0.00  0.00    +0.001 A 
ATOM     17  C   UNL     1       1.327   5.851   0.122  0.00  0.00    +0.016 A 
ATOM     18  C   UNL     1       2.520   5.137  -0.005  0.00  0.00    +0.072 A 
BRANCH  18  19
ATOM     19  C   UNL     1       3.811   5.847  -0.026  0.00  0.00    +0.387 C 
ATOM     20  O   UNL     1       4.851   5.217  -0.027  0.00  0.00    -0.241 OA
ATOM     21  O   UNL     1       3.840   7.194  -0.044  0.00  0.00    -0.241 OA
ENDBRANCH  18  19
ENDBRANCH  12  13
ENDBRANCH   9  11
ENDBRANCH   4   7
BRANCH   1  22
ATOM     22  S   UNL     1       8.516  -3.778  -3.507  0.00  0.00    +0.061 S 
ATOM     23  O   UNL     1       9.679  -3.115  -3.985  0.00  0.00    -0.153 OA
ATOM     24  O   UNL     1       8.543  -5.118  -3.035  0.00  0.00    -0.153 OA
BRANCH  22  29
ATOM     25  C   UNL     1       4.473  -3.607  -7.982  0.00  0.00    +0.044 C 
ATOM     26  C   UNL     1       5.483  -3.650  -6.865  0.00  0.00    -0.050 A 
ATOM     27  C   UNL     1       6.491  -2.707  -6.809  0.00  0.00    +0.005 A 
ATOM     28  C   UNL     1       7.418  -2.746  -5.783  0.00  0.00    +0.029 A 
ATOM     29  C   UNL     1       7.335  -3.728  -4.814  0.00  0.00    +0.105 A 
ATOM     30  C   UNL     1       6.329  -4.674  -4.873  0.00  0.00    +0.029 A 
ATOM     31  C   UNL     1       5.400  -4.632  -5.896  0.00  0.00    +0.005 A 
ENDBRANCH  22  29
ENDBRANCH   1  22
TORSDOF 6
