REMARK  Name = ZINC45615221
REMARK  8 active torsions:
REMARK  status: ('A' for Active; 'I' for Inactive)
REMARK    1  A    between atoms: C_1  and  C_2
REMARK    2  A    between atoms: C_5  and  C_8
REMARK    3  A    between atoms: C_8  and  C_10
REMARK    4  A    between atoms: C_8  and  N_15
REMARK    5  A    between atoms: C_16  and  C_18
REMARK    6  A    between atoms: C_18  and  N_19
REMARK    7  A    between atoms: C_23  and  C_26
REMARK    8  A    between atoms: N_28  and  C_29
REMARK                            x       y       z     vdW  Elec       q    Type
REMARK                         _______ _______ _______ _____ _____    ______ ____
ROOT
ATOM      1  C   UNL     1       2.454  -6.472   2.002  0.00  0.00    +0.019 C 
ENDROOT
BRANCH   1   2
ATOM      2  N   UNL     1       2.943  -7.812   1.652  0.00  0.00    +0.386 N 
ATOM      3  C   UNL     1       1.818  -8.755   1.641  0.00  0.00    -0.078 C 
ATOM      4  C   UNL     1       2.308 -10.135   1.197  0.00  0.00    -0.018 C 
ATOM      5  C   UNL     1       3.379 -10.628   2.174  0.00  0.00    +0.009 C 
ATOM      6  C   UNL     1       4.513  -9.601   2.234  0.00  0.00    +0.059 C 
ATOM      7  C   UNL     1       3.942  -8.241   2.639  0.00  0.00    -0.065 C 
ATOM      8  H   UNL     1       3.366  -7.786   0.736  0.00  0.00    -0.081 HD
BRANCH   6   9
ATOM      9  C   UNL     1       5.537 -10.040   3.249  0.00  0.00    +0.218 C 
ATOM     10  O   UNL     1       5.788  -9.333   4.202  0.00  0.00    -0.275 OA
ATOM     11  N   UNL     1       6.173 -11.219   3.099  0.00  0.00    -0.285 N 
ATOM     12  H   UNL     1       5.925 -11.815   2.375  0.00  0.00    +0.155 HD
BRANCH  11  13
ATOM     13  C   UNL     1       7.191 -11.583   3.987  0.00  0.00    +0.033 A 
ATOM     14  C   UNL     1       8.289 -12.300   3.530  0.00  0.00    +0.023 A 
ATOM     15  C   UNL     1       9.293 -12.658   4.410  0.00  0.00    +0.002 A 
ATOM     16  C   UNL     1       9.205 -12.302   5.743  0.00  0.00    +0.000 A 
ATOM     17  C   UNL     1       8.113 -11.588   6.201  0.00  0.00    +0.002 A 
ATOM     18  C   UNL     1       7.109 -11.222   5.325  0.00  0.00    +0.023 A 
ENDBRANCH  11  13
ENDBRANCH   6   9
ENDBRANCH   1   2
BRANCH   1  20
ATOM     19  N   UNL     1       0.948  -4.766   1.034  0.00  0.00    -0.306 N 
ATOM     20  C   UNL     1       1.522  -5.980   0.925  0.00  0.00    +0.197 C 
ATOM     21  O   UNL     1       1.288  -6.677  -0.039  0.00  0.00    -0.278 OA
ATOM     22  H   UNL     1       1.135  -4.208   1.806  0.00  0.00    +0.150 HD
BRANCH  19  23
ATOM     23  C   UNL     1       0.041  -4.287  -0.013  0.00  0.00    +0.140 C 
BRANCH  23  28
ATOM     24  C   UNL     1      -0.035   1.491  -0.005  0.00  0.00    +0.044 C 
ATOM     25  C   UNL     1      -0.015  -0.016  -0.007  0.00  0.00    -0.050 A 
ATOM     26  C   UNL     1      -0.019  -0.706  -1.205  0.00  0.00    +0.004 A 
ATOM     27  C   UNL     1      -0.001  -2.088  -1.207  0.00  0.00    +0.006 A 
ATOM     28  C   UNL     1       0.022  -2.780  -0.011  0.00  0.00    -0.022 A 
ATOM     29  C   UNL     1       0.027  -2.091   1.187  0.00  0.00    +0.006 A 
ATOM     30  C   UNL     1       0.013  -0.709   1.189  0.00  0.00    +0.004 A 
ENDBRANCH  23  28
BRANCH  23  31
ATOM     31  C   UNL     1      -1.348  -4.808   0.250  0.00  0.00    +0.014 A 
ATOM     32  C   UNL     1      -2.264  -5.280  -0.631  0.00  0.00    +0.013 A 
ATOM     33  C   UNL     1      -3.489  -5.710  -0.159  0.00  0.00    +0.008 A 
ATOM     34  C   UNL     1      -3.740  -5.647   1.172  0.00  0.00    +0.045 A 
ATOM     35  S   UNL     1      -2.214  -4.969   1.803  0.00  0.00    -0.099 S 
ENDBRANCH  23  31
ENDBRANCH  19  23
ENDBRANCH   1  20
TORSDOF 7
