REMARK  Name = ZINC12591469
REMARK  10 active torsions:
REMARK  status: ('A' for Active; 'I' for Inactive)
REMARK    1  A    between atoms: C_1  and  C_2
REMARK    2  A    between atoms: C_2  and  C_4
REMARK    3  A    between atoms: C_2  and  N_53
REMARK    4  A    between atoms: C_7  and  S_16
REMARK    5  A    between atoms: N_8  and  C_9
REMARK    6  A    between atoms: S_16  and  C_17
REMARK    7  A    between atoms: C_17  and  C_18
REMARK    8  A    between atoms: N_20  and  C_21
REMARK    9  A    between atoms: C_32  and  N_53
REMARK   10  A    between atoms: C_33  and  N_53
REMARK                            x       y       z     vdW  Elec       q    Type
REMARK                         _______ _______ _______ _____ _____    ______ ____
ROOT
ATOM      1  C   UNL     1      -1.756  10.124  -0.559  0.00  0.00    +0.125 A 
ATOM      2  N   UNL     1      -0.485   9.848  -0.495  0.00  0.00    -0.135 NA
ATOM      3  N   UNL     1      -0.312   8.578  -0.399  0.00  0.00    -0.122 NA
ATOM      4  C   UNL     1      -1.475   7.968  -0.397  0.00  0.00    +0.197 A 
ATOM      5  N   UNL     1      -2.435   8.936  -0.504  0.00  0.00    -0.275 N 
ENDROOT
BRANCH   5   6
ATOM      6  C   UNL     1      -3.825   8.751  -0.547  0.00  0.00    +0.050 A 
ATOM      7  C   UNL     1      -4.537   9.088  -1.689  0.00  0.00    +0.029 A 
ATOM      8  C   UNL     1      -5.904   8.899  -1.731  0.00  0.00    +0.040 A 
ATOM      9  C   UNL     1      -6.567   8.385  -0.630  0.00  0.00    +0.124 A 
ATOM     10  C   UNL     1      -5.860   8.053   0.513  0.00  0.00    +0.040 A 
ATOM     11  C   UNL     1      -4.491   8.234   0.556  0.00  0.00    +0.029 A 
ATOM     12  F   UNL     1      -7.906   8.206  -0.670  0.00  0.00    -0.205 F 
ENDBRANCH   5   6
BRANCH   1  14
ATOM     13  C   UNL     1      -2.185  12.015  -2.105  0.00  0.00    -0.005 C 
ATOM     14  C   UNL     1      -2.367  11.497  -0.677  0.00  0.00    -0.003 C 
BRANCH  14  17
ATOM     15  C   UNL     1      -0.299  12.620  -0.108  0.00  0.00    -0.096 C 
ATOM     16  C   UNL     1      -2.423  13.689   0.350  0.00  0.00    -0.096 C 
ATOM     17  N   UNL     1      -1.706  12.398   0.289  0.00  0.00    +0.382 N 
ATOM     18  H   UNL     1      -1.725  11.962   1.219  0.00  0.00    -0.082 HD
ENDBRANCH  14  17
ENDBRANCH   1  14
BRANCH   4  19
ATOM     19  S   UNL     1      -1.746   6.230  -0.285  0.00  0.00    -0.076 S 
BRANCH  19  20
ATOM     20  C   UNL     1      -0.035   5.651  -0.184  0.00  0.00    +0.173 C 
BRANCH  20  21
ATOM     21  C   UNL     1      -0.019   4.147  -0.078  0.00  0.00    +0.227 C 
ATOM     22  O   UNL     1      -1.062   3.529  -0.072  0.00  0.00    -0.275 OA
ATOM     23  N   UNL     1       1.155   3.490   0.009  0.00  0.00    -0.285 N 
ATOM     24  H   UNL     1       1.985   3.987   0.081  0.00  0.00    +0.155 HD
BRANCH  23  25
ATOM     25  C   UNL     1       1.176   2.090  -0.004  0.00  0.00    +0.037 A 
ATOM     26  C   UNL     1       0.237   1.388  -0.749  0.00  0.00    +0.027 A 
ATOM     27  C   UNL     1       0.257   0.006  -0.763  0.00  0.00    +0.051 A 
ATOM     28  C   UNL     1       1.213  -0.683  -0.035  0.00  0.00    +0.173 A 
ATOM     29  C   UNL     1       2.156   0.018   0.714  0.00  0.00    +0.174 A 
ATOM     30  C   UNL     1       2.135   1.403   0.728  0.00  0.00    +0.073 A 
ATOM     31  O   UNL     1       2.978  -0.879   1.332  0.00  0.00    -0.395 OA
ATOM     32  C   UNL     1       2.785  -2.123   0.632  0.00  0.00    +0.589 C 
ATOM     33  O   UNL     1       1.445  -2.021   0.116  0.00  0.00    -0.395 OA
ATOM     34  F   UNL     1       3.707  -2.246  -0.413  0.00  0.00    -0.125 F 
ATOM     35  F   UNL     1       2.894  -3.205   1.513  0.00  0.00    -0.125 F 
ENDBRANCH  23  25
ENDBRANCH  20  21
ENDBRANCH  19  20
ENDBRANCH   4  19
TORSDOF 7
