REMARK  Name = ZINC01913295
REMARK  11 active torsions:
REMARK  status: ('A' for Active; 'I' for Inactive)
REMARK    1  A    between atoms: C_1  and  C_2
REMARK    2  A    between atoms: C_2  and  N_3
REMARK    3  A    between atoms: N_3  and  C_4
REMARK    4  A    between atoms: N_3  and  C_11
REMARK    5  A    between atoms: C_4  and  C_5
REMARK    6  A    between atoms: C_11  and  C_12
REMARK    7  A    between atoms: C_13  and  O_35
REMARK    8  A    between atoms: C_19  and  C_31
REMARK    9  A    between atoms: C_20  and  C_23
REMARK   10  A    between atoms: C_28  and  O_29
REMARK   11  A    between atoms: O_29  and  C_30
REMARK                            x       y       z     vdW  Elec       q    Type
REMARK                         _______ _______ _______ _____ _____    ______ ____
ROOT
ATOM      1  C   UNL     1      -1.119  -2.170  -1.591  0.00  0.00    +0.020 A 
ATOM      2  C   UNL     1      -1.851  -2.465  -0.454  0.00  0.00    +0.122 A 
ATOM      3  C   UNL     1      -3.218  -2.720  -0.536  0.00  0.00    +0.046 A 
ATOM      4  C   UNL     1      -3.856  -2.677  -1.744  0.00  0.00    +0.019 A 
ATOM      5  C   UNL     1      -3.132  -2.378  -2.897  0.00  0.00    +0.065 A 
ATOM      6  C   UNL     1      -1.751  -2.120  -2.827  0.00  0.00    +0.144 A 
ATOM      7  O   UNL     1      -1.053  -1.841  -3.945  0.00  0.00    -0.450 OA
ATOM      8  C   UNL     1      -1.658  -1.498  -5.084  0.00  0.00    +0.220 A 
ATOM      9  C   UNL     1      -2.985  -1.696  -5.300  0.00  0.00    +0.080 A 
ATOM     10  C   UNL     1      -3.782  -2.313  -4.219  0.00  0.00    +0.201 A 
ATOM     11  O   UNL     1      -4.913  -2.730  -4.405  0.00  0.00    -0.286 OA
ENDROOT
BRANCH   9  12
ATOM     12  C   UNL     1      -3.613  -1.314  -6.588  0.00  0.00    +0.031 A 
ATOM     13  C   UNL     1      -3.410  -2.095  -7.724  0.00  0.00    +0.012 A 
ATOM     14  C   UNL     1      -3.996  -1.735  -8.921  0.00  0.00    +0.001 A 
ATOM     15  C   UNL     1      -4.785  -0.601  -8.997  0.00  0.00    +0.004 A 
ATOM     16  C   UNL     1      -4.992   0.181  -7.876  0.00  0.00    +0.046 A 
ATOM     17  C   UNL     1      -4.415  -0.172  -6.667  0.00  0.00    +0.128 A 
BRANCH  17  18
ATOM     18  O   UNL     1      -4.623   0.593  -5.563  0.00  0.00    -0.494 OA
ATOM     19  C   UNL     1      -5.454   1.745  -5.719  0.00  0.00    +0.277 C 
ENDBRANCH  17  18
ENDBRANCH   9  12
BRANCH   8  20
ATOM     20  C   UNL     1      -0.836  -0.864  -6.176  0.00  0.00    +0.451 C 
ATOM     21  F   UNL     1      -1.655  -0.584  -7.274  0.00  0.00    -0.163 F 
ATOM     22  F   UNL     1      -0.269   0.324  -5.702  0.00  0.00    -0.163 F 
ATOM     23  F   UNL     1       0.181  -1.743  -6.564  0.00  0.00    -0.163 F 
ENDBRANCH   8  20
BRANCH   2  24
ATOM     24  O   UNL     1      -1.231  -2.508   0.752  0.00  0.00    -0.506 OA
ATOM     25  H   UNL     1      -1.218  -1.660   1.218  0.00  0.00    +0.292 HD
ENDBRANCH   2  24
BRANCH   1  26
ATOM     26  C   UNL     1       0.360  -1.896  -1.488  0.00  0.00    -0.035 C 
BRANCH  26  27
ATOM     27  N   UNL     1       0.578  -0.461  -1.266  0.00  0.00    +0.385 N 
ATOM     28  H   UNL     1       0.122   0.066  -1.996  0.00  0.00    -0.081 HD
BRANCH  27  30
ATOM     29  C   UNL     1       0.159   1.436   0.225  0.00  0.00    -0.017 C 
ATOM     30  C   UNL     1       0.020  -0.076   0.037  0.00  0.00    -0.081 C 
ENDBRANCH  27  30
BRANCH  27  31
ATOM     31  C   UNL     1       2.019  -0.176  -1.285  0.00  0.00    -0.043 C 
BRANCH  31  32
ATOM     32  C   UNL     1       2.565  -0.436  -2.666  0.00  0.00    -0.064 A 
ATOM     33  C   UNL     1       3.147  -1.654  -2.961  0.00  0.00    +0.002 A 
ATOM     34  C   UNL     1       3.648  -1.892  -4.227  0.00  0.00    +0.000 A 
ATOM     35  C   UNL     1       3.565  -0.912  -5.198  0.00  0.00    +0.000 A 
ATOM     36  C   UNL     1       2.982   0.306  -4.904  0.00  0.00    +0.000 A 
ATOM     37  C   UNL     1       2.478   0.542  -3.639  0.00  0.00    +0.002 A 
ENDBRANCH  31  32
ENDBRANCH  27  31
ENDBRANCH  26  27
ENDBRANCH   1  26
TORSDOF 9
