REMARK  Name = ZINC08828609
REMARK  9 active torsions:
REMARK  status: ('A' for Active; 'I' for Inactive)
REMARK    1  A    between atoms: C_1  and  C_2
REMARK    2  A    between atoms: C_6  and  N_8
REMARK    3  A    between atoms: N_8  and  C_9
REMARK    4  A    between atoms: C_9  and  C_11
REMARK    5  A    between atoms: C_9  and  C_18
REMARK    6  A    between atoms: N_20  and  C_21
REMARK    7  A    between atoms: C_27  and  C_29
REMARK    8  A    between atoms: C_32  and  C_34
REMARK    9  A    between atoms: C_34  and  N_75
REMARK                            x       y       z     vdW  Elec       q    Type
REMARK                         _______ _______ _______ _____ _____    ______ ____
ROOT
ATOM      1  N   UNL     1      -1.268   3.290   1.202  0.00  0.00    -0.249 N 
ATOM      2  C   UNL     1      -1.882   2.883   2.330  0.00  0.00    +0.287 C 
ATOM      3  O   UNL     1      -2.498   1.834   2.344  0.00  0.00    -0.266 OA
ENDROOT
BRANCH   1   9
ATOM      4  C   UNL     1      -0.903   8.192   1.171  0.00  0.00    +0.044 C 
ATOM      5  C   UNL     1      -0.266   6.827   1.201  0.00  0.00    -0.049 A 
ATOM      6  C   UNL     1       1.111   6.708   1.240  0.00  0.00    +0.003 A 
ATOM      7  C   UNL     1       1.700   5.458   1.267  0.00  0.00    +0.002 A 
ATOM      8  C   UNL     1       0.914   4.322   1.254  0.00  0.00    +0.023 A 
ATOM      9  C   UNL     1      -0.469   4.438   1.215  0.00  0.00    +0.038 A 
ATOM     10  C   UNL     1      -1.058   5.696   1.183  0.00  0.00    +0.027 A 
ENDBRANCH   1   9
BRANCH   2  11
ATOM     11  C   UNL     1      -1.807   3.705   3.543  0.00  0.00    +0.190 A 
ATOM     12  C   UNL     1      -2.348   3.394   4.757  0.00  0.00    +0.055 A 
ATOM     13  C   UNL     1      -2.036   4.455   5.621  0.00  0.00    +0.043 A 
ATOM     14  C   UNL     1      -1.327   5.356   4.905  0.00  0.00    +0.090 A 
ATOM     15  O   UNL     1      -1.186   4.897   3.655  0.00  0.00    -0.457 OA
BRANCH  14  16
ATOM     16  C   UNL     1      -0.780   6.659   5.429  0.00  0.00    -0.003 C 
BRANCH  16  22
ATOM     17  C   UNL     1       0.713   5.571   6.996  0.00  0.00    -0.050 C 
ATOM     18  C   UNL     1       2.187   5.358   7.352  0.00  0.00    +0.141 C 
ATOM     19  O   UNL     1       2.799   6.626   7.603  0.00  0.00    -0.383 OA
ATOM     20  C   UNL     1       2.726   7.529   6.496  0.00  0.00    +0.141 C 
ATOM     21  C   UNL     1       1.258   7.764   6.132  0.00  0.00    -0.050 C 
ATOM     22  N   UNL     1       0.633   6.461   5.819  0.00  0.00    +0.387 N 
ATOM     23  H   UNL     1       1.137   6.027   5.038  0.00  0.00    -0.081 HD
ENDBRANCH  16  22
ENDBRANCH  14  16
ENDBRANCH   2  11
BRANCH   1  24
ATOM     24  C   UNL     1      -1.439   2.530  -0.039  0.00  0.00    +0.198 C 
BRANCH  24  25
ATOM     25  C   UNL     1      -0.526   3.090  -1.100  0.00  0.00    -0.018 A 
ATOM     26  C   UNL     1      -0.618   4.422  -1.458  0.00  0.00    +0.009 A 
ATOM     27  C   UNL     1       0.214   4.935  -2.435  0.00  0.00    +0.038 A 
ATOM     28  C   UNL     1       1.140   4.114  -3.056  0.00  0.00    +0.123 A 
ATOM     29  C   UNL     1       1.231   2.780  -2.696  0.00  0.00    +0.038 A 
ATOM     30  C   UNL     1       0.398   2.269  -1.719  0.00  0.00    +0.009 A 
ATOM     31  F   UNL     1       1.953   4.614  -4.011  0.00  0.00    -0.205 F 
ENDBRANCH  24  25
BRANCH  24  32
ATOM     32  C   UNL     1      -2.869   2.636  -0.501  0.00  0.00    +0.239 C 
ATOM     33  O   UNL     1      -3.668   3.282   0.144  0.00  0.00    -0.273 OA
ATOM     34  N   UNL     1      -3.261   2.012  -1.629  0.00  0.00    -0.311 N 
ATOM     35  H   UNL     1      -2.623   1.495  -2.145  0.00  0.00    +0.149 HD
BRANCH  34  36
ATOM     36  C   UNL     1      -4.652   2.115  -2.078  0.00  0.00    +0.073 C 
ATOM     37  C   UNL     1      -5.496   1.051  -1.371  0.00  0.00    +0.022 C 
ATOM     38  C   UNL     1      -6.948   1.159  -1.840  0.00  0.00    +0.002 C 
ATOM     39  C   UNL     1      -7.014   0.940  -3.353  0.00  0.00    +0.000 C 
ATOM     40  C   UNL     1      -6.171   2.003  -4.059  0.00  0.00    +0.002 C 
ATOM     41  C   UNL     1      -4.718   1.896  -3.591  0.00  0.00    +0.022 C 
ENDBRANCH  34  36
ENDBRANCH  24  32
ENDBRANCH   1  24
TORSDOF 8
