REMARK  Name = ZINC66925879
REMARK  6 active torsions:
REMARK  status: ('A' for Active; 'I' for Inactive)
REMARK    1  A    between atoms: C_4  and  C_7
REMARK    2  A    between atoms: C_7  and  C_8
REMARK    3  A    between atoms: N_10  and  C_11
REMARK    4  A    between atoms: N_19  and  C_20
REMARK    5  A    between atoms: C_20  and  C_21
REMARK    6  A    between atoms: C_23  and  C_26
REMARK                            x       y       z     vdW  Elec       q    Type
REMARK                         _______ _______ _______ _____ _____    ______ ____
ROOT
ATOM      1  C   UNL     1       3.725  -4.078  -3.439  0.00  0.00    +0.076 C 
ATOM      2  C   UNL     1       2.444  -4.719  -3.977  0.00  0.00    +0.041 C 
ATOM      3  C   UNL     1       2.565  -6.244  -3.890  0.00  0.00    +0.111 C 
ATOM      4  N   UNL     1       3.789  -6.662  -4.588  0.00  0.00    -0.286 N 
ATOM      5  C   UNL     1       5.065  -6.040  -4.211  0.00  0.00    +0.111 C 
ATOM      6  C   UNL     1       4.916  -4.517  -4.295  0.00  0.00    +0.041 C 
ATOM      7  C   UNL     1       3.741  -7.598  -5.557  0.00  0.00    +0.303 C 
ATOM      8  O   UNL     1       2.696  -8.171  -5.797  0.00  0.00    -0.253 OA
ATOM      9  N   UNL     1       4.851  -7.899  -6.259  0.00  0.00    -0.290 N 
ATOM     10  H   UNL     1       5.700  -7.496  -6.019  0.00  0.00    +0.151 HD
ENDROOT
BRANCH   1  13
ATOM     11  C   UNL     1       2.997  -1.959  -2.482  0.00  0.00    +0.214 C 
ATOM     12  O   UNL     1       2.559  -2.572  -1.531  0.00  0.00    -0.276 OA
ATOM     13  N   UNL     1       3.599  -2.619  -3.490  0.00  0.00    -0.312 N 
ATOM     14  H   UNL     1       3.949  -2.128  -4.250  0.00  0.00    +0.149 HD
BRANCH  11  15
ATOM     15  C   UNL     1       2.868  -0.458  -2.534  0.00  0.00    +0.099 C 
BRANCH  15  19
ATOM     16  C   UNL     1      -0.021   1.531   0.000  0.00  0.00    +0.000 C 
ATOM     17  C   UNL     1       1.414   2.061  -0.011  0.00  0.00    +0.000 C 
ATOM     18  C   UNL     1       2.130   1.566  -1.269  0.00  0.00    +0.004 C 
ATOM     19  C   UNL     1       2.151   0.036  -1.276  0.00  0.00    -0.002 C 
ATOM     20  C   UNL     1       0.716  -0.493  -1.265  0.00  0.00    +0.004 C 
ATOM     21  C   UNL     1      -0.000   0.001  -0.007  0.00  0.00    +0.000 C 
ENDBRANCH  15  19
ENDBRANCH  11  15
ENDBRANCH   1  13
BRANCH   9  22
ATOM     22  C   UNL     1       4.776  -8.834  -7.384  0.00  0.00    +0.204 C 
BRANCH  22  23
ATOM     23  C   UNL     1       6.144  -8.997  -7.994  0.00  0.00    +0.245 A 
ATOM     24  N   UNL     1       7.032  -9.888  -7.651  0.00  0.00    -0.194 NA
ATOM     25  C   UNL     1       8.134  -9.749  -8.398  0.00  0.00    +0.175 A 
ATOM     26  N   UNL     1       7.958  -8.762  -9.229  0.00  0.00    -0.061 NA
ATOM     27  O   UNL     1       6.654  -8.256  -8.986  0.00  0.00    -0.336 OA
BRANCH  25  28
ATOM     28  C   UNL     1       9.376 -10.596  -8.293  0.00  0.00    +0.060 C 
ATOM     29  C   UNL     1      10.602 -10.153  -9.093  0.00  0.00    +0.012 C 
ATOM     30  C   UNL     1       9.803 -11.380  -9.535  0.00  0.00    +0.012 C 
ENDBRANCH  25  28
ENDBRANCH  22  23
ENDBRANCH   9  22
TORSDOF 6
