REMARK  Name = ZINC52584628
REMARK  14 active torsions:
REMARK  status: ('A' for Active; 'I' for Inactive)
REMARK    1  A    between atoms: C_1  and  C_2
REMARK    2  A    between atoms: C_2  and  O_3
REMARK    3  A    between atoms: O_3  and  C_4
REMARK    4  A    between atoms: C_4  and  C_6
REMARK    5  A    between atoms: C_6  and  C_33
REMARK    6  A    between atoms: C_12  and  C_14
REMARK    7  A    between atoms: C_14  and  C_16
REMARK    8  A    between atoms: C_14  and  N_26
REMARK    9  A    between atoms: C_16  and  C_17
REMARK   10  A    between atoms: C_27  and  C_29
REMARK   11  A    between atoms: C_29  and  C_30
REMARK   12  A    between atoms: C_29  and  C_31
REMARK   13  A    between atoms: C_29  and  N_32
REMARK   14  A    between atoms: C_33  and  C_34
REMARK                            x       y       z     vdW  Elec       q    Type
REMARK                         _______ _______ _______ _____ _____    ______ ____
ROOT
ATOM      1  C   UNL     1       3.591  -5.833  -5.007  0.00  0.00    +0.163 C 
ENDROOT
BRANCH   1   8
ATOM      2  C   UNL     1       1.468  -2.353  -2.550  0.00  0.00    +0.089 C 
ATOM      3  C   UNL     1       0.739  -1.888  -3.812  0.00  0.00    +0.021 C 
ATOM      4  C   UNL     1       1.461  -2.429  -5.049  0.00  0.00    +0.020 C 
ATOM      5  C   UNL     1       1.442  -3.961  -5.016  0.00  0.00    +0.108 C 
ATOM      6  N   UNL     1       2.011  -4.414  -3.739  0.00  0.00    -0.299 N 
ATOM      7  C   UNL     1       1.450  -3.884  -2.489  0.00  0.00    +0.126 C 
ATOM      8  C   UNL     1       3.027  -5.298  -3.716  0.00  0.00    +0.236 C 
ATOM      9  O   UNL     1       3.488  -5.665  -2.655  0.00  0.00    -0.274 OA
BRANCH   2  10
ATOM     10  C   UNL     1       0.775  -1.794  -1.334  0.00  0.00    +0.315 C 
ATOM     11  O   UNL     1       0.314  -2.540  -0.504  0.00  0.00    -0.250 OA
BRANCH  10  12
ATOM     12  O   UNL     1       0.671  -0.465  -1.174  0.00  0.00    -0.464 OA
BRANCH  12  14
ATOM     13  C   UNL     1      -0.019   1.526   0.010  0.00  0.00    +0.048 C 
ATOM     14  C   UNL     1       0.002  -0.004   0.002  0.00  0.00    +0.229 C 
ENDBRANCH  12  14
ENDBRANCH  10  12
ENDBRANCH   2  10
BRANCH   2  15
ATOM     15  C   UNL     1       2.916  -1.861  -2.585  0.00  0.00    +0.075 C 
BRANCH  15  16
ATOM     16  C   UNL     1       2.933  -0.355  -2.646  0.00  0.00    +0.042 A 
ATOM     17  C   UNL     1       3.645   0.359  -1.701  0.00  0.00    +0.023 A 
ATOM     18  C   UNL     1       3.655   1.743  -1.766  0.00  0.00    +0.003 A 
ATOM     19  C   UNL     1       2.945   2.361  -2.785  0.00  0.00    +0.020 A 
ATOM     20  C   UNL     1       2.256   1.581  -3.694  0.00  0.00    +0.111 A 
ATOM     21  N   UNL     1       2.274   0.265  -3.604  0.00  0.00    -0.260 NA
ENDBRANCH  15  16
ENDBRANCH   2  15
ENDBRANCH   1   8
BRANCH   1  22
ATOM     22  N   UNL     1       4.314  -7.080  -4.745  0.00  0.00    -0.305 N 
ATOM     23  C   UNL     1       5.366  -7.086  -3.902  0.00  0.00    +0.202 C 
ATOM     24  O   UNL     1       5.715  -6.058  -3.362  0.00  0.00    -0.277 OA
ATOM     25  H   UNL     1       4.035  -7.902  -5.177  0.00  0.00    +0.149 HD
BRANCH  23  26
ATOM     26  C   UNL     1       6.109  -8.369  -3.633  0.00  0.00    +0.001 C 
ATOM     27  C   UNL     1       7.541  -8.048  -3.200  0.00  0.00    -0.001 C 
ATOM     28  C   UNL     1       5.401  -9.143  -2.519  0.00  0.00    -0.001 C 
BRANCH  26  29
ATOM     29  N   UNL     1       6.138  -9.184  -4.855  0.00  0.00    +0.387 N 
ATOM     30  H   UNL     1       6.604  -8.673  -5.589  0.00  0.00    -0.089 HD
ATOM     31  H   UNL     1       6.635 -10.043  -4.674  0.00  0.00    -0.089 HD
ATOM     32  H   UNL     1       5.193  -9.396  -5.140  0.00  0.00    -0.089 HD
ENDBRANCH  26  29
ENDBRANCH  23  26
ENDBRANCH   1  22
BRANCH   1  33
ATOM     33  C   UNL     1       4.551  -4.805  -5.608  0.00  0.00    +0.065 C 
BRANCH  33  34
ATOM     34  C   UNL     1       5.021  -5.285  -6.957  0.00  0.00    -0.039 C 
ATOM     35  C   UNL     1       4.499  -4.960  -8.162  0.00  0.00    -0.001 A 
ATOM     36  C   UNL     1       3.381  -4.097  -8.562  0.00  0.00    +0.010 A 
ATOM     37  C   UNL     1       3.091  -3.966  -9.877  0.00  0.00    +0.001 A 
ATOM     38  C   UNL     1       3.829  -4.633 -10.864  0.00  0.00    +0.002 A 
ATOM     39  C   UNL     1       4.870  -5.443 -10.575  0.00  0.00    +0.026 A 
ATOM     40  C   UNL     1       5.263  -5.653  -9.225  0.00  0.00    +0.043 A 
ATOM     41  N   UNL     1       6.219  -6.378  -8.697  0.00  0.00    -0.380 N 
ATOM     42  C   UNL     1       6.174  -6.221  -7.238  0.00  0.00    +0.144 C 
ATOM     43  H   UNL     1       6.853  -6.923  -9.188  0.00  0.00    +0.160 HD
ENDBRANCH  33  34
ENDBRANCH   1  33
TORSDOF 11
