REMARK  Name = ZINC66832611
REMARK  8 active torsions:
REMARK  status: ('A' for Active; 'I' for Inactive)
REMARK    1  A    between atoms: C_1  and  C_2
REMARK    2  A    between atoms: C_2  and  C_4
REMARK    3  A    between atoms: C_2  and  N_16
REMARK    4  A    between atoms: C_6  and  C_9
REMARK    5  A    between atoms: C_17  and  C_19
REMARK    6  A    between atoms: C_19  and  C_21
REMARK    7  A    between atoms: C_19  and  N_22
REMARK    8  A    between atoms: C_23  and  C_25
REMARK                            x       y       z     vdW  Elec       q    Type
REMARK                         _______ _______ _______ _____ _____    ______ ____
ROOT
ATOM      1  N   UNL     1       0.711  -0.489   1.189  0.00  0.00    -0.303 N 
ATOM      2  C   UNL     1       2.054  -0.600   1.174  0.00  0.00    +0.234 C 
ATOM      3  O   UNL     1       2.676  -0.297   0.177  0.00  0.00    -0.274 OA
ATOM      4  H   UNL     1       0.213  -0.731   1.986  0.00  0.00    +0.150 HD
ENDROOT
BRANCH   1   6
ATOM      5  C   UNL     1      -0.019   1.526   0.010  0.00  0.00    +0.038 C 
ATOM      6  C   UNL     1       0.002  -0.004   0.002  0.00  0.00    +0.159 C 
BRANCH   6   7
ATOM      7  C   UNL     1      -1.412  -0.526   0.013  0.00  0.00    +0.248 A 
ATOM      8  N   UNL     1      -2.039  -1.045  -1.004  0.00  0.00    -0.190 NA
ATOM      9  C   UNL     1      -3.284  -1.405  -0.642  0.00  0.00    +0.202 A 
ATOM     10  N   UNL     1      -3.453  -1.111   0.624  0.00  0.00    -0.056 NA
ATOM     11  O   UNL     1      -2.233  -0.539   1.071  0.00  0.00    -0.336 OA
BRANCH   9  12
ATOM     12  C   UNL     1      -4.296  -2.030  -1.528  0.00  0.00    +0.023 A 
ATOM     13  C   UNL     1      -3.988  -2.298  -2.861  0.00  0.00    +0.014 A 
ATOM     14  C   UNL     1      -4.932  -2.880  -3.682  0.00  0.00    +0.039 A 
ATOM     15  C   UNL     1      -6.185  -3.199  -3.183  0.00  0.00    +0.123 A 
ATOM     16  C   UNL     1      -6.495  -2.934  -1.858  0.00  0.00    +0.039 A 
ATOM     17  C   UNL     1      -5.555  -2.357  -1.029  0.00  0.00    +0.014 A 
ATOM     18  F   UNL     1      -7.106  -3.769  -3.989  0.00  0.00    -0.205 F 
ENDBRANCH   9  12
ENDBRANCH   6   7
ENDBRANCH   1   6
BRANCH   2  19
ATOM     19  C   UNL     1       2.783  -1.099   2.395  0.00  0.00    +0.156 C 
ATOM     20  C   UNL     1       2.502  -0.165   3.574  0.00  0.00    +0.038 C 
BRANCH  19  21
ATOM     21  N   UNL     1       4.223  -1.127   2.126  0.00  0.00    -0.304 N 
ATOM     22  C   UNL     1       5.020  -1.968   2.815  0.00  0.00    +0.217 C 
ATOM     23  O   UNL     1       4.546  -2.701   3.657  0.00  0.00    -0.275 OA
ATOM     24  H   UNL     1       4.602  -0.541   1.453  0.00  0.00    +0.149 HD
BRANCH  22  25
ATOM     25  C   UNL     1       6.501  -1.997   2.539  0.00  0.00    +0.079 C 
ATOM     26  C   UNL     1       6.742  -2.387   1.077  0.00  0.00    +0.041 C 
ATOM     27  C   UNL     1       8.249  -2.491   0.827  0.00  0.00    +0.160 C 
ATOM     28  O   UNL     1       8.816  -3.446   1.727  0.00  0.00    -0.380 OA
ATOM     29  C   UNL     1       8.662  -3.109   3.107  0.00  0.00    +0.160 C 
ATOM     30  C   UNL     1       7.172  -3.030   3.449  0.00  0.00    +0.041 C 
ENDBRANCH  22  25
ENDBRANCH  19  21
ENDBRANCH   2  19
TORSDOF 6
