REMARK  Name = ZINC06733515
REMARK  8 active torsions:
REMARK  status: ('A' for Active; 'I' for Inactive)
REMARK    1  A    between atoms: C_1  and  C_2
REMARK    2  A    between atoms: C_2  and  O_3
REMARK    3  A    between atoms: O_3  and  C_4
REMARK    4  A    between atoms: C_7  and  C_10
REMARK    5  A    between atoms: C_17  and  N_30
REMARK    6  A    between atoms: C_18  and  C_28
REMARK    7  A    between atoms: C_19  and  C_21
REMARK    8  A    between atoms: C_24  and  O_27
REMARK                            x       y       z     vdW  Elec       q    Type
REMARK                         _______ _______ _______ _____ _____    ______ ____
ROOT
ATOM      1  C   UNL     1       1.087  -6.408   1.944  0.00  0.00    +0.100 A 
ATOM      2  C   UNL     1       2.327  -6.921   2.337  0.00  0.00    +0.054 A 
ATOM      3  C   UNL     1       2.230  -8.282   2.370  0.00  0.00    +0.223 A 
ATOM      4  N   UNL     1       0.972  -8.613   2.012  0.00  0.00    -0.246 N 
ATOM      5  H   UNL     1       0.615  -9.512   1.949  0.00  0.00    +0.192 HD
ATOM      6  N   UNL     1       0.269  -7.426   1.753  0.00  0.00    -0.171 NA
ATOM      7  O   UNL     1       3.270  -9.082   2.713  0.00  0.00    -0.423 OA
ATOM      8  C   UNL     1       4.497  -8.525   2.761  0.00  0.00    +0.200 C 
ATOM      9  C   UNL     1       4.719  -7.192   2.748  0.00  0.00    +0.098 C 
ATOM     10  C   UNL     1       3.597  -6.187   2.682  0.00  0.00    +0.102 C 
ENDROOT
BRANCH   1  14
ATOM     11  C   UNL     1       0.118  -2.294   1.464  0.00  0.00    +0.121 A 
ATOM     12  C   UNL     1       1.337  -2.776   1.007  0.00  0.00    +0.046 A 
ATOM     13  C   UNL     1       1.654  -4.110   1.161  0.00  0.00    +0.013 A 
ATOM     14  C   UNL     1       0.749  -4.973   1.777  0.00  0.00    +0.003 A 
ATOM     15  C   UNL     1      -0.473  -4.486   2.235  0.00  0.00    +0.013 A 
ATOM     16  C   UNL     1      -0.783  -3.151   2.083  0.00  0.00    +0.046 A 
BRANCH  11  17
ATOM     17  O   UNL     1      -0.192  -0.980   1.311  0.00  0.00    -0.492 OA
BRANCH  17  19
ATOM     18  C   UNL     1       0.259   1.281   0.585  0.00  0.00    +0.048 C 
ATOM     19  C   UNL     1       0.781  -0.155   0.666  0.00  0.00    +0.225 C 
ENDBRANCH  17  19
ENDBRANCH  11  17
ENDBRANCH   1  14
BRANCH  10  20
ATOM     20  C   UNL     1       3.444  -5.507   4.018  0.00  0.00    -0.034 A 
ATOM     21  C   UNL     1       3.097  -6.247   5.133  0.00  0.00    +0.008 A 
ATOM     22  C   UNL     1       2.956  -5.626   6.359  0.00  0.00    +0.046 A 
ATOM     23  C   UNL     1       3.162  -4.259   6.471  0.00  0.00    +0.117 A 
ATOM     24  C   UNL     1       3.510  -3.518   5.350  0.00  0.00    +0.046 A 
ATOM     25  C   UNL     1       3.655  -4.145   4.128  0.00  0.00    +0.008 A 
BRANCH  23  26
ATOM     26  O   UNL     1       3.023  -3.645   7.676  0.00  0.00    -0.507 OA
ATOM     27  H   UNL     1       3.837  -3.611   8.195  0.00  0.00    +0.292 HD
ENDBRANCH  23  26
ENDBRANCH  10  20
BRANCH   8  28
ATOM     28  N   UNL     1       5.585  -9.361   2.827  0.00  0.00    -0.328 N 
ATOM     29  H   UNL     1       5.457 -10.323   2.838  0.00  0.00    +0.145 HD
ATOM     30  H   UNL     1       6.480  -8.990   2.863  0.00  0.00    +0.145 HD
ENDBRANCH   8  28
BRANCH   9  31
ATOM     31  C   UNL     1       6.069  -6.717   2.800  0.00  0.00    +0.101 C 
ATOM     32  N   UNL     1       7.140  -6.340   2.841  0.00  0.00    -0.191 NA
ENDBRANCH   9  31
TORSDOF 7
