REMARK  Name = ZINC20190110
REMARK  15 active torsions:
REMARK  status: ('A' for Active; 'I' for Inactive)
REMARK    1  A    between atoms: C_1  and  C_2
REMARK    2  A    between atoms: C_2  and  O_3
REMARK    3  A    between atoms: O_3  and  C_4
REMARK    4  A    between atoms: C_9  and  C_10
REMARK    5  A    between atoms: C_10  and  N_11
REMARK    6  A    between atoms: N_11  and  C_12
REMARK    7  A    between atoms: N_11  and  C_22
REMARK    8  A    between atoms: C_14  and  C_20
REMARK    9  A    between atoms: C_14  and  C_21
REMARK   10  A    between atoms: C_16  and  C_18
REMARK   11  A    between atoms: C_16  and  C_19
REMARK   12  A    between atoms: C_22  and  N_24
REMARK   13  A    between atoms: N_24  and  C_25
REMARK   14  A    between atoms: C_30  and  O_31
REMARK   15  A    between atoms: O_31  and  C_32
REMARK                            x       y       z     vdW  Elec       q    Type
REMARK                         _______ _______ _______ _____ _____    ______ ____
ROOT
ATOM      1  N   UNL     1      -0.885   0.939  -1.742  0.00  0.00    -0.305 N 
ENDROOT
BRANCH   1   2
ATOM      2  C   UNL     1      -1.733   2.061  -1.322  0.00  0.00    +0.073 C 
ATOM      3  C   UNL     1      -1.606   2.250   0.189  0.00  0.00    +0.009 C 
ATOM      4  C   UNL     1      -2.461   3.427   0.652  0.00  0.00    -0.072 C 
ATOM      5  N   UNL     1      -2.256   4.622  -0.141  0.00  0.00    +0.386 N 
ATOM      6  C   UNL     1      -2.109   4.528  -1.578  0.00  0.00    -0.072 C 
ATOM      7  C   UNL     1      -1.256   3.339  -2.013  0.00  0.00    +0.009 C 
ATOM      8  C   UNL     1      -1.407   5.811  -2.076  0.00  0.00    -0.010 C 
ATOM      9  C   UNL     1      -3.475   4.460  -2.271  0.00  0.00    -0.010 C 
ATOM     10  C   UNL     1      -3.938   3.015   0.661  0.00  0.00    -0.010 C 
ATOM     11  C   UNL     1      -2.067   3.743   2.112  0.00  0.00    -0.010 C 
ATOM     12  H   UNL     1      -3.111   5.301  -0.007  0.00  0.00    -0.084 HD
ATOM     13  H   UNL     1      -1.333   5.124   0.186  0.00  0.00    -0.084 HD
ENDBRANCH   1   2
BRANCH   1  14
ATOM     14  C   UNL     1       0.420   0.917  -1.405  0.00  0.00    +0.138 C 
ATOM     15  S   UNL     1       1.368  -0.468  -1.740  0.00  0.00    -0.018 S 
BRANCH  14  16
ATOM     16  N   UNL     1       0.979   1.987  -0.804  0.00  0.00    -0.294 N 
ATOM     17  H   UNL     1       0.398   2.913  -0.680  0.00  0.00    +0.154 HD
BRANCH  16  18
ATOM     18  C   UNL     1       2.299   1.919  -0.339  0.00  0.00    +0.075 A 
ATOM     19  C   UNL     1       3.242   1.170  -1.028  0.00  0.00    +0.028 A 
ATOM     20  C   UNL     1       4.543   1.105  -0.567  0.00  0.00    +0.022 A 
ATOM     21  C   UNL     1       4.909   1.785   0.581  0.00  0.00    +0.045 A 
ATOM     22  C   UNL     1       3.974   2.533   1.274  0.00  0.00    +0.067 A 
ATOM     23  C   UNL     1       2.669   2.608   0.814  0.00  0.00    +0.143 A 
ATOM     24 CL   UNL     1       6.545   1.699   1.154  0.00  0.00    -0.083 Cl
BRANCH  23  25
ATOM     25  O   UNL     1       1.750   3.348   1.490  0.00  0.00    -0.493 OA
ATOM     26  C   UNL     1       2.200   4.028   2.663  0.00  0.00    +0.277 C 
ENDBRANCH  23  25
ENDBRANCH  16  18
ENDBRANCH  14  16
ENDBRANCH   1  14
BRANCH   1  27
ATOM     27  C   UNL     1      -1.456  -0.158  -2.527  0.00  0.00    +0.145 C 
BRANCH  27  33
ATOM     28  C   UNL     1      -1.731   0.250  -4.986  0.00  0.00    +0.125 A 
ATOM     29  C   UNL     1      -2.438   0.768  -6.062  0.00  0.00    +0.046 A 
ATOM     30  C   UNL     1      -3.623   1.445  -5.846  0.00  0.00    +0.004 A 
ATOM     31  C   UNL     1      -4.105   1.604  -4.560  0.00  0.00    +0.001 A 
ATOM     32  C   UNL     1      -3.405   1.086  -3.487  0.00  0.00    +0.009 A 
ATOM     33  C   UNL     1      -2.220   0.407  -3.697  0.00  0.00    +0.011 A 
BRANCH  28  34
ATOM     34  O   UNL     1      -0.563  -0.412  -5.195  0.00  0.00    -0.492 OA
BRANCH  34  36
ATOM     35  C   UNL     1       1.202  -1.305  -6.584  0.00  0.00    +0.048 C 
ATOM     36  C   UNL     1      -0.120  -0.535  -6.548  0.00  0.00    +0.225 C 
ENDBRANCH  34  36
ENDBRANCH  28  34
ENDBRANCH  27  33
ENDBRANCH   1  27
TORSDOF 9
