REMARK  Name = ZINC43218742
REMARK  7 active torsions:
REMARK  status: ('A' for Active; 'I' for Inactive)
REMARK    1  A    between atoms: C_1  and  C_2
REMARK    2  A    between atoms: C_2  and  C_3
REMARK    3  A    between atoms: C_6  and  N_9
REMARK    4  A    between atoms: C_14  and  C_31
REMARK    5  A    between atoms: C_17  and  C_22
REMARK    6  A    between atoms: C_17  and  C_28
REMARK    7  A    between atoms: C_35  and  C_37
REMARK                            x       y       z     vdW  Elec       q    Type
REMARK                         _______ _______ _______ _____ _____    ______ ____
ROOT
ATOM      1  N   UNL     1      -5.431  -2.157   0.452  0.00  0.00    -0.210 N 
ATOM      2  C   UNL     1      -6.258  -2.475   1.500  0.00  0.00    +0.229 C 
ATOM      3  O   UNL     1      -6.093  -2.230   2.676  0.00  0.00    -0.275 OA
ATOM      4  C   UNL     1      -7.370  -3.166   0.890  0.00  0.00    +0.078 C 
ATOM      5  C   UNL     1      -8.759  -3.549   1.184  0.00  0.00    -0.026 C 
ATOM      6  N   UNL     1      -9.355  -3.841  -0.161  0.00  0.00    +0.398 N 
ATOM      7  C   UNL     1      -8.326  -3.497  -1.195  0.00  0.00    +0.074 C 
ATOM      8  C   UNL     1      -7.510  -2.397  -0.484  0.00  0.00    +0.090 C 
ATOM      9  C   UNL     1      -6.034  -2.313  -0.764  0.00  0.00    +0.229 C 
ATOM     10  O   UNL     1      -5.492  -2.374  -1.846  0.00  0.00    -0.275 OA
ATOM     11  H   UNL     1      -9.592  -4.820  -0.226  0.00  0.00    -0.083 HD
ATOM     12  H   UNL     1     -10.181  -3.278  -0.299  0.00  0.00    -0.083 HD
ENDROOT
BRANCH   1  16
ATOM     13  C   UNL     1      -1.504  -0.842   0.928  0.00  0.00    -0.048 A 
ATOM     14  C   UNL     1      -2.269  -1.146   2.038  0.00  0.00    +0.005 A 
ATOM     15  C   UNL     1      -3.571  -1.582   1.884  0.00  0.00    +0.024 A 
ATOM     16  C   UNL     1      -4.111  -1.714   0.612  0.00  0.00    +0.044 A 
ATOM     17  C   UNL     1      -3.340  -1.408  -0.501  0.00  0.00    +0.024 A 
ATOM     18  C   UNL     1      -2.041  -0.967  -0.340  0.00  0.00    +0.005 A 
BRANCH  13  20
ATOM     19  C   UNL     1      -0.069   1.159   1.220  0.00  0.00    +0.009 C 
ATOM     20  C   UNL     1      -0.085  -0.366   1.100  0.00  0.00    +0.032 C 
ENDBRANCH  13  20
ENDBRANCH   1  16
BRANCH   7  21
ATOM     21  C   UNL     1      -7.477  -4.698  -1.524  0.00  0.00    -0.047 A 
ATOM     22  C   UNL     1      -7.536  -5.825  -0.726  0.00  0.00    +0.003 A 
ATOM     23  C   UNL     1      -6.757  -6.927  -1.028  0.00  0.00    +0.000 A 
ATOM     24  C   UNL     1      -5.920  -6.901  -2.128  0.00  0.00    +0.000 A 
ATOM     25  C   UNL     1      -5.862  -5.774  -2.926  0.00  0.00    +0.000 A 
ATOM     26  C   UNL     1      -6.644  -4.675  -2.627  0.00  0.00    +0.003 A 
ENDBRANCH   7  21
BRANCH   5  27
ATOM     27  C   UNL     1      -9.489  -2.412   1.851  0.00  0.00    -0.060 A 
ATOM     28  C   UNL     1      -9.992  -1.372   1.091  0.00  0.00    +0.002 A 
ATOM     29  C   UNL     1     -10.661  -0.330   1.704  0.00  0.00    +0.001 A 
ATOM     30  C   UNL     1     -10.828  -0.327   3.076  0.00  0.00    +0.012 A 
ATOM     31  C   UNL     1     -10.327  -1.366   3.836  0.00  0.00    +0.055 A 
ATOM     32  C   UNL     1      -9.661  -2.412   3.223  0.00  0.00    +0.014 A 
BRANCH  31  33
ATOM     33  C   UNL     1     -10.509  -1.363   5.332  0.00  0.00    +0.417 C 
ATOM     34  F   UNL     1     -11.210  -0.214   5.713  0.00  0.00    -0.166 F 
ATOM     35  F   UNL     1     -11.229  -2.498   5.716  0.00  0.00    -0.166 F 
ATOM     36  F   UNL     1      -9.256  -1.373   5.954  0.00  0.00    -0.166 F 
ENDBRANCH  31  33
ENDBRANCH   5  27
BRANCH   7  37
ATOM     37  C   UNL     1      -8.980  -2.947  -2.437  0.00  0.00    +0.350 C 
ATOM     38  O   UNL     1     -10.194  -2.863  -2.500  0.00  0.00    -0.248 OA
ATOM     39  O   UNL     1      -8.294  -2.587  -3.378  0.00  0.00    -0.248 OA
ENDBRANCH   7  37
TORSDOF 6
