REMARK  Name = ZINC15839959
REMARK  8 active torsions:
REMARK  status: ('A' for Active; 'I' for Inactive)
REMARK    1  A    between atoms: C_1  and  C_2
REMARK    2  A    between atoms: C_3  and  C_32
REMARK    3  A    between atoms: C_9  and  C_12
REMARK    4  A    between atoms: N_14  and  C_15
REMARK    5  A    between atoms: C_19  and  S_21
REMARK    6  A    between atoms: S_21  and  N_24
REMARK    7  A    between atoms: N_24  and  C_25
REMARK    8  A    between atoms: N_24  and  C_26
REMARK                            x       y       z     vdW  Elec       q    Type
REMARK                         _______ _______ _______ _____ _____    ______ ____
ROOT
ATOM      1  C   UNL     1       6.246   2.793   1.858  0.00  0.00    +0.036 A 
ATOM      2  C   UNL     1       7.325   2.153   2.452  0.00  0.00    +0.023 A 
ATOM      3  C   UNL     1       7.652   0.864   2.080  0.00  0.00    +0.004 A 
ATOM      4  C   UNL     1       6.906   0.211   1.116  0.00  0.00    +0.029 A 
ATOM      5  C   UNL     1       5.831   0.846   0.521  0.00  0.00    +0.110 A 
ATOM      6  C   UNL     1       5.502   2.137   0.886  0.00  0.00    +0.052 A 
ENDROOT
BRANCH   1   9
ATOM      7  C   UNL     1       6.042   4.485   3.517  0.00  0.00    +0.248 C 
ATOM      8  O   UNL     1       6.536   3.730   4.332  0.00  0.00    -0.270 OA
ATOM      9  N   UNL     1       5.913   4.099   2.232  0.00  0.00    -0.281 N 
ATOM     10  H   UNL     1       5.588   4.726   1.567  0.00  0.00    +0.155 HD
BRANCH   7  19
ATOM     11  C   UNL     1       5.771   7.723   8.241  0.00  0.00    +0.046 C 
ATOM     12  C   UNL     1       5.268   8.222   6.912  0.00  0.00    -0.022 A 
ATOM     13  C   UNL     1       4.719   9.421   6.665  0.00  0.00    +0.017 A 
ATOM     14  N   UNL     1       4.382   9.518   5.341  0.00  0.00    -0.358 N 
ATOM     15  H   UNL     1       3.971  10.292   4.927  0.00  0.00    +0.166 HD
ATOM     16  C   UNL     1       4.713   8.356   4.687  0.00  0.00    +0.047 A 
ATOM     17  C   UNL     1       5.284   7.490   5.642  0.00  0.00    +0.004 A 
ATOM     18  C   UNL     1       5.719   6.224   5.261  0.00  0.00    +0.023 A 
ATOM     19  C   UNL     1       5.585   5.825   3.934  0.00  0.00    +0.038 A 
ATOM     20  C   UNL     1       5.021   6.697   2.993  0.00  0.00    +0.015 A 
ATOM     21  C   UNL     1       4.589   7.936   3.364  0.00  0.00    +0.027 A 
ATOM     22  C   UNL     1       4.505  10.503   7.692  0.00  0.00    +0.063 C 
ENDBRANCH   7  19
ENDBRANCH   1   9
BRANCH   5  23
ATOM     23  S   UNL     1       4.884   0.010  -0.707  0.00  0.00    +0.075 S 
ATOM     24  O   UNL     1       5.773  -0.878  -1.371  0.00  0.00    -0.150 OA
ATOM     25  O   UNL     1       4.146   1.007  -1.399  0.00  0.00    -0.150 OA
BRANCH  23  26
ATOM     26  N   UNL     1       3.778  -0.934   0.086  0.00  0.00    -0.206 N 
ATOM     27  C   UNL     1       4.139  -2.291   0.505  0.00  0.00    +0.157 C 
BRANCH  26  28
ATOM     28  C   UNL     1       2.501  -0.436   0.355  0.00  0.00    +0.051 A 
ATOM     29  C   UNL     1       1.428  -1.308   0.489  0.00  0.00    +0.025 A 
ATOM     30  C   UNL     1       0.167  -0.813   0.755  0.00  0.00    +0.002 A 
ATOM     31  C   UNL     1      -0.029   0.550   0.887  0.00  0.00    +0.000 A 
ATOM     32  C   UNL     1       1.037   1.421   0.754  0.00  0.00    +0.002 A 
ATOM     33  C   UNL     1       2.301   0.932   0.488  0.00  0.00    +0.025 A 
ENDBRANCH  26  28
ENDBRANCH  23  26
ENDBRANCH   5  23
TORSDOF 5
