REMARK  Name = ZINC13268560
REMARK  10 active torsions:
REMARK  status: ('A' for Active; 'I' for Inactive)
REMARK    1  A    between atoms: C_1  and  C_2
REMARK    2  A    between atoms: C_3  and  C_22
REMARK    3  A    between atoms: C_10  and  C_12
REMARK    4  A    between atoms: C_15  and  C_18
REMARK    5  A    between atoms: C_18  and  C_19
REMARK    6  A    between atoms: C_18  and  C_20
REMARK    7  A    between atoms: C_18  and  C_21
REMARK    8  A    between atoms: C_25  and  O_28
REMARK    9  A    between atoms: O_28  and  C_29
REMARK   10  A    between atoms: C_29  and  C_30
REMARK                            x       y       z     vdW  Elec       q    Type
REMARK                         _______ _______ _______ _____ _____    ______ ____
ROOT
ATOM      1  C   UNL     1      -0.482   1.108  -0.212  0.00  0.00    +0.043 C 
ATOM      2  C   UNL     1      -0.942   1.583   1.142  0.00  0.00    -0.022 C 
ATOM      3  C   UNL     1      -1.277   0.673   2.047  0.00  0.00    +0.042 C 
ATOM      4  N   UNL     1      -1.721   1.026   3.328  0.00  0.00    -0.282 N 
ATOM      5  C   UNL     1      -2.047   2.357   3.537  0.00  0.00    +0.240 A 
ATOM      6  N   UNL     1      -2.670   2.941   4.521  0.00  0.00    -0.092 NA
ATOM      7  N   UNL     1      -2.763   4.208   4.302  0.00  0.00    -0.021 NA
ATOM      8  N   UNL     1      -2.208   4.512   3.173  0.00  0.00    -0.042 NA
ATOM      9  N   UNL     1      -1.719   3.322   2.638  0.00  0.00    -0.202 N 
ATOM     10  C   UNL     1      -0.992   3.065   1.400  0.00  0.00    +0.170 C 
ATOM     11  H   UNL     1      -1.797   0.369   4.037  0.00  0.00    +0.155 HD
ENDROOT
BRANCH  10  12
ATOM     12  C   UNL     1       0.411   3.601   1.516  0.00  0.00    -0.019 A 
ATOM     13  C   UNL     1       1.254   3.123   2.502  0.00  0.00    +0.006 A 
ATOM     14  C   UNL     1       2.543   3.611   2.606  0.00  0.00    +0.004 A 
ATOM     15  C   UNL     1       2.986   4.585   1.731  0.00  0.00    -0.042 A 
ATOM     16  C   UNL     1       2.141   5.067   0.748  0.00  0.00    +0.004 A 
ATOM     17  C   UNL     1       0.854   4.575   0.641  0.00  0.00    +0.006 A 
BRANCH  15  18
ATOM     18  C   UNL     1       4.390   5.121   1.847  0.00  0.00    -0.013 C 
ATOM     19  C   UNL     1       4.340   6.628   2.110  0.00  0.00    +0.015 C 
ATOM     20  C   UNL     1       5.107   4.426   3.006  0.00  0.00    +0.015 C 
ATOM     21  C   UNL     1       5.147   4.855   0.545  0.00  0.00    +0.015 C 
ENDBRANCH  15  18
ENDBRANCH  10  12
BRANCH   3  22
ATOM     22  C   UNL     1      -1.178  -0.761   1.692  0.00  0.00    -0.004 A 
ATOM     23  C   UNL     1      -2.300  -1.584   1.789  0.00  0.00    +0.013 A 
ATOM     24  C   UNL     1      -2.205  -2.918   1.454  0.00  0.00    +0.046 A 
ATOM     25  C   UNL     1      -0.992  -3.445   1.030  0.00  0.00    +0.121 A 
ATOM     26  C   UNL     1       0.128  -2.630   0.938  0.00  0.00    +0.046 A 
ATOM     27  C   UNL     1       0.039  -1.294   1.267  0.00  0.00    +0.013 A 
BRANCH  25  28
ATOM     28  O   UNL     1      -0.901  -4.761   0.705  0.00  0.00    -0.481 OA
BRANCH  28  29
ATOM     29  C   UNL     1      -2.092  -5.542   0.823  0.00  0.00    +0.353 C 
BRANCH  29  30
ATOM     30  C   UNL     1      -1.801  -6.965   0.423  0.00  0.00    +0.393 C 
ATOM     31  O   UNL     1      -0.688  -7.279   0.073  0.00  0.00    -0.243 OA
ATOM     32  O   UNL     1      -2.779  -7.885   0.455  0.00  0.00    -0.243 OA
ENDBRANCH  29  30
ENDBRANCH  28  29
ENDBRANCH  25  28
ENDBRANCH   3  22
TORSDOF 6
