REMARK  Name = ZINC67440007
REMARK  2 active torsions:
REMARK  status: ('A' for Active; 'I' for Inactive)
REMARK    1  A    between atoms: C_10  and  C_11
REMARK    2  A    between atoms: C_17  and  C_19
REMARK                            x       y       z     vdW  Elec       q    Type
REMARK                         _______ _______ _______ _____ _____    ______ ____
ROOT
ATOM      1  C   UNL     1       4.960   0.161  -0.046  0.00  0.00    +0.107 C 
ATOM      2  C   UNL     1       5.271   0.647  -1.477  0.00  0.00    +0.029 C 
ATOM      3  C   UNL     1       6.810   0.476  -1.576  0.00  0.00    +0.021 C 
ATOM      4  C   UNL     1       7.035  -0.808  -0.741  0.00  0.00    +0.109 C 
ATOM      5  N   UNL     1       6.069  -0.710   0.373  0.00  0.00    -0.287 N 
ATOM      6  C   UNL     1       6.182  -1.315   1.571  0.00  0.00    +0.302 C 
ATOM      7  O   UNL     1       5.322  -1.161   2.413  0.00  0.00    -0.265 OA
ENDROOT
BRANCH   1  17
ATOM      8  C   UNL     1      -0.016   1.357   0.009  0.00  0.00    +0.001 A 
ATOM      9  C   UNL     1       1.169   2.091   0.002  0.00  0.00    +0.001 A 
ATOM     10  C   UNL     1       2.378   1.468  -0.013  0.00  0.00    +0.009 A 
ATOM     11  C   UNL     1       2.438   0.064  -0.021  0.00  0.00    -0.013 A 
ATOM     12  C   UNL     1       1.233  -0.683  -0.013  0.00  0.00    -0.018 A 
ATOM     13  C   UNL     1       0.002  -0.004   0.002  0.00  0.00    +0.008 A 
ATOM     14  C   UNL     1       1.292  -2.087  -0.021  0.00  0.00    +0.008 A 
ATOM     15  C   UNL     1       2.502  -2.709  -0.036  0.00  0.00    +0.001 A 
ATOM     16  C   UNL     1       3.687  -1.976  -0.043  0.00  0.00    +0.006 A 
ATOM     17  C   UNL     1       3.668  -0.615  -0.037  0.00  0.00    -0.019 A 
ENDBRANCH   1  17
BRANCH   6  18
ATOM     18  C   UNL     1       7.367  -2.176   1.864  0.00  0.00    +0.305 C 
ATOM     19  O   UNL     1       8.227  -2.331   1.022  0.00  0.00    -0.265 OA
ATOM     20  N   UNL     1       7.480  -2.782   3.063  0.00  0.00    -0.255 N 
ATOM     21  C   UNL     1       8.581  -3.582   3.334  0.00  0.00    +0.188 A 
ATOM     22  N   UNL     1       9.627  -3.881   2.575  0.00  0.00    -0.126 NA
ATOM     23  N   UNL     1      10.552  -4.635   2.984  0.00  0.00    -0.148 NA
ATOM     24  C   UNL     1      10.538  -5.173   4.188  0.00  0.00    +0.183 A 
ATOM     25  S   UNL     1       9.001  -4.501   4.813  0.00  0.00    -0.039 S 
ATOM     26  H   UNL     1       6.793  -2.658   3.735  0.00  0.00    +0.157 HD
ENDBRANCH   6  18
TORSDOF 2
