REMARK  Name = ZINC62357089
REMARK  7 active torsions:
REMARK  status: ('A' for Active; 'I' for Inactive)
REMARK    1  A    between atoms: C_1  and  C_2
REMARK    2  A    between atoms: C_3  and  C_13
REMARK    3  A    between atoms: N_15  and  C_16
REMARK    4  A    between atoms: C_16  and  C_17
REMARK    5  A    between atoms: C_17  and  C_19
REMARK    6  A    between atoms: C_17  and  N_24
REMARK    7  A    between atoms: C_27  and  C_30
REMARK                            x       y       z     vdW  Elec       q    Type
REMARK                         _______ _______ _______ _____ _____    ______ ____
ROOT
ATOM      1  C   UNL     1       0.669   2.025  -4.359  0.00  0.00    +0.246 C 
ATOM      2  O   UNL     1       1.383   1.095  -4.033  0.00  0.00    -0.270 OA
ATOM      3  N   UNL     1      -0.623   1.804  -4.672  0.00  0.00    -0.312 N 
ATOM      4  H   UNL     1      -1.193   2.545  -4.932  0.00  0.00    +0.149 HD
ENDROOT
BRANCH   1   7
ATOM      5  C   UNL     1       1.989   3.359  -6.838  0.00  0.00    +0.064 C 
ATOM      6  C   UNL     1       1.797   3.993  -5.485  0.00  0.00    +0.026 A 
ATOM      7  C   UNL     1       1.215   3.387  -4.410  0.00  0.00    +0.065 A 
ATOM      8  C   UNL     1       1.240   4.370  -3.312  0.00  0.00    +0.015 A 
ATOM      9  C   UNL     1       0.805   4.353  -1.988  0.00  0.00    +0.049 A 
ATOM     10  C   UNL     1       0.982   5.470  -1.198  0.00  0.00    +0.124 A 
ATOM     11  C   UNL     1       1.590   6.606  -1.717  0.00  0.00    +0.040 A 
ATOM     12  C   UNL     1       2.024   6.634  -3.024  0.00  0.00    +0.029 A 
ATOM     13  C   UNL     1       1.855   5.518  -3.836  0.00  0.00    +0.048 A 
ATOM     14  N   UNL     1       2.182   5.248  -5.150  0.00  0.00    -0.358 N 
ATOM     15  H   UNL     1       2.623   5.870  -5.750  0.00  0.00    +0.166 HD
ATOM     16  F   UNL     1       0.562   5.458   0.086  0.00  0.00    -0.205 F 
ENDBRANCH   1   7
BRANCH   3  17
ATOM     17  C   UNL     1      -1.168   0.445  -4.620  0.00  0.00    +0.097 C 
BRANCH  17  18
ATOM     18  C   UNL     1      -2.673   0.487  -4.890  0.00  0.00    +0.016 C 
BRANCH  18  19
ATOM     19  N   UNL     1      -3.312   1.423  -3.956  0.00  0.00    +0.387 N 
ATOM     20  C   UNL     1      -4.753   1.477  -4.228  0.00  0.00    -0.078 C 
ATOM     21  C   UNL     1      -5.411   2.510  -3.311  0.00  0.00    -0.015 C 
ATOM     22  C   UNL     1      -5.180   2.111  -1.851  0.00  0.00    -0.018 C 
ATOM     23  C   UNL     1      -3.675   1.986  -1.599  0.00  0.00    -0.015 C 
ATOM     24  C   UNL     1      -3.081   0.971  -2.579  0.00  0.00    -0.078 C 
ATOM     25  C   UNL     1      -5.766   3.181  -0.928  0.00  0.00    +0.007 C 
ATOM     26  H   UNL     1      -2.914   2.343  -4.078  0.00  0.00    -0.081 HD
ENDBRANCH  18  19
BRANCH  18  27
ATOM     27  C   UNL     1      -2.917   0.945  -6.305  0.00  0.00    +0.093 A 
ATOM     28  C   UNL     1      -3.204   0.150  -7.351  0.00  0.00    +0.043 A 
ATOM     29  C   UNL     1      -3.353   0.992  -8.477  0.00  0.00    +0.041 A 
ATOM     30  C   UNL     1      -3.147   2.251  -8.052  0.00  0.00    +0.195 A 
ATOM     31  O   UNL     1      -2.888   2.218  -6.735  0.00  0.00    -0.469 OA
ENDBRANCH  18  27
ENDBRANCH  17  18
ENDBRANCH   3  17
TORSDOF 5
