REMARK  Name = ZINC39601073
REMARK  9 active torsions:
REMARK  status: ('A' for Active; 'I' for Inactive)
REMARK    1  A    between atoms: C_1  and  C_2
REMARK    2  A    between atoms: C_2  and  C_3
REMARK    3  A    between atoms: C_2  and  C_4
REMARK    4  A    between atoms: C_4  and  C_5
REMARK    5  A    between atoms: C_5  and  N_6
REMARK    6  A    between atoms: C_7  and  C_9
REMARK    7  A    between atoms: C_20  and  C_22
REMARK    8  A    between atoms: C_22  and  C_23
REMARK    9  A    between atoms: C_23  and  C_24
REMARK                            x       y       z     vdW  Elec       q    Type
REMARK                         _______ _______ _______ _____ _____    ______ ____
ROOT
ATOM      1  C   UNL     1      -4.435  -4.410  -0.207  0.00  0.00    +0.100 C 
ATOM      2  C   UNL     1      -5.252  -3.771  -1.352  0.00  0.00    +0.121 C 
ATOM      3  N   UNL     1      -5.166  -4.748  -2.463  0.00  0.00    -0.300 N 
ATOM      4  C   UNL     1      -5.269  -6.070  -1.801  0.00  0.00    +0.115 C 
ATOM      5  C   UNL     1      -4.451  -5.919  -0.504  0.00  0.00    -0.004 C 
ATOM      6  C   UNL     1      -3.030  -6.431  -0.715  0.00  0.00    -0.010 C 
ATOM      7  C   UNL     1      -3.067  -7.944  -0.952  0.00  0.00    -0.082 C 
ATOM      8  N   UNL     1      -3.681  -8.607   0.205  0.00  0.00    +0.379 N 
ATOM      9  C   UNL     1      -5.078  -8.178   0.345  0.00  0.00    -0.082 C 
ATOM     10  C   UNL     1      -5.125  -6.675   0.637  0.00  0.00    -0.010 C 
ATOM     11  C   UNL     1      -5.025  -4.491  -3.779  0.00  0.00    +0.216 C 
ATOM     12  O   UNL     1      -4.969  -5.406  -4.573  0.00  0.00    -0.276 OA
ATOM     13  H   UNL     1      -3.650  -9.607   0.073  0.00  0.00    -0.086 HD
ATOM     14  H   UNL     1      -3.171  -8.364   1.040  0.00  0.00    -0.086 HD
ENDROOT
BRANCH   1  16
ATOM     15  N   UNL     1      -2.316  -3.830   0.929  0.00  0.00    -0.315 N 
ATOM     16  C   UNL     1      -3.021  -3.888  -0.217  0.00  0.00    +0.218 C 
ATOM     17  O   UNL     1      -2.518  -3.521  -1.258  0.00  0.00    -0.275 OA
ATOM     18  H   UNL     1      -2.718  -4.123   1.762  0.00  0.00    +0.149 HD
BRANCH  15  19
ATOM     19  C   UNL     1      -0.941  -3.323   0.919  0.00  0.00    +0.104 C 
BRANCH  19  20
ATOM     20  C   UNL     1      -0.372  -3.362   2.339  0.00  0.00    +0.022 C 
BRANCH  20  22
ATOM     21  C   UNL     1       1.589  -2.754   3.763  0.00  0.00    +0.007 C 
ATOM     22  C   UNL     1       1.063  -2.832   2.328  0.00  0.00    -0.016 C 
ATOM     23  C   UNL     1       1.948  -3.775   1.511  0.00  0.00    +0.007 C 
ENDBRANCH  20  22
ENDBRANCH  19  20
ENDBRANCH  15  19
ENDBRANCH   1  16
BRANCH  11  24
ATOM     24  C   UNL     1      -4.936  -3.067  -4.264  0.00  0.00    +0.096 C 
BRANCH  24  25
ATOM     25  C   UNL     1      -4.781  -3.055  -5.786  0.00  0.00    +0.013 C 
BRANCH  25  26
ATOM     26  C   UNL     1      -4.691  -1.609  -6.278  0.00  0.00    -0.011 C 
ATOM     27  C   UNL     1      -6.042  -0.895  -6.069  0.00  0.00    +0.003 C 
ATOM     28  C   UNL     1      -6.184   0.020  -7.311  0.00  0.00    +0.000 C 
ATOM     29  C   UNL     1      -5.599  -0.855  -8.448  0.00  0.00    +0.000 C 
ATOM     30  C   UNL     1      -4.409  -1.584  -7.790  0.00  0.00    +0.003 C 
ENDBRANCH  25  26
ENDBRANCH  24  25
ENDBRANCH  11  24
TORSDOF 7
