REMARK  Name = ZINC58847175
REMARK  8 active torsions:
REMARK  status: ('A' for Active; 'I' for Inactive)
REMARK    1  A    between atoms: C_1  and  C_2
REMARK    2  A    between atoms: C_2  and  C_3
REMARK    3  A    between atoms: C_2  and  C_4
REMARK    4  A    between atoms: C_2  and  C_5
REMARK    5  A    between atoms: C_8  and  C_11
REMARK    6  A    between atoms: C_22  and  S_27
REMARK    7  A    between atoms: S_27  and  N_30
REMARK    8  A    between atoms: N_30  and  C_31
REMARK                            x       y       z     vdW  Elec       q    Type
REMARK                         _______ _______ _______ _____ _____    ______ ____
ROOT
ATOM      1  C   UNL     1       1.411   0.172  -8.481  0.00  0.00    +0.105 C 
ATOM      2  C   UNL     1       1.667  -0.743  -7.320  0.00  0.00    +0.029 C 
ATOM      3  C   UNL     1       1.756   0.021  -5.983  0.00  0.00    +0.033 C 
ATOM      4  C   UNL     1       2.660  -0.847  -5.132  0.00  0.00    -0.030 C 
ATOM      5  C   UNL     1       3.335  -1.686  -5.873  0.00  0.00    -0.023 C 
ATOM      6  C   UNL     1       3.003  -1.480  -7.330  0.00  0.00    +0.049 C 
ATOM      7  C   UNL     1       4.114  -0.682  -7.951  0.00  0.00    -0.018 A 
ATOM      8  C   UNL     1       5.420  -1.105  -7.750  0.00  0.00    +0.034 A 
ATOM      9  C   UNL     1       6.476  -0.399  -8.290  0.00  0.00    +0.109 A 
ATOM     10  C   UNL     1       6.238   0.740  -9.039  0.00  0.00    +0.030 A 
ATOM     11  C   UNL     1       4.943   1.165  -9.248  0.00  0.00    +0.025 A 
ATOM     12  C   UNL     1       3.877   0.451  -8.708  0.00  0.00    +0.031 A 
ATOM     13  N   UNL     1       2.585   0.865  -8.969  0.00  0.00    -0.336 N 
ATOM     14  H   UNL     1       2.463   1.679  -9.483  0.00  0.00    +0.147 HD
ENDROOT
BRANCH   1  18
ATOM     15  C   UNL     1      -1.486   3.079  -7.297  0.00  0.00    -0.042 A 
ATOM     16  C   UNL     1      -1.880   1.959  -8.004  0.00  0.00    +0.004 A 
ATOM     17  C   UNL     1      -0.943   1.018  -8.387  0.00  0.00    +0.006 A 
ATOM     18  C   UNL     1       0.389   1.198  -8.064  0.00  0.00    -0.027 A 
ATOM     19  C   UNL     1       0.784   2.319  -7.357  0.00  0.00    +0.006 A 
ATOM     20  C   UNL     1      -0.153   3.262  -6.978  0.00  0.00    +0.004 A 
BRANCH  15  22
ATOM     21  C   UNL     1      -2.159   5.457  -7.506  0.00  0.00    +0.015 C 
ATOM     22  C   UNL     1      -2.508   4.105  -6.879  0.00  0.00    -0.013 C 
ATOM     23  C   UNL     1      -2.507   4.234  -5.355  0.00  0.00    +0.015 C 
ATOM     24  C   UNL     1      -3.895   3.666  -7.353  0.00  0.00    +0.015 C 
ENDBRANCH  15  22
ENDBRANCH   1  18
BRANCH   9  25
ATOM     25  S   UNL     1       8.129  -0.949  -8.026  0.00  0.00    +0.072 S 
ATOM     26  O   UNL     1       8.951   0.210  -8.053  0.00  0.00    -0.150 OA
ATOM     27  O   UNL     1       8.091  -1.830  -6.912  0.00  0.00    -0.150 OA
BRANCH  25  28
ATOM     28  N   UNL     1       8.556  -1.863  -9.339  0.00  0.00    -0.216 N 
ATOM     29  H   UNL     1       9.288  -1.580  -9.910  0.00  0.00    +0.174 HD
BRANCH  28  30
ATOM     30  C   UNL     1       7.863  -3.043  -9.624  0.00  0.00    +0.048 A 
ATOM     31  C   UNL     1       8.082  -4.181  -8.858  0.00  0.00    +0.027 A 
ATOM     32  C   UNL     1       7.396  -5.346  -9.142  0.00  0.00    +0.040 A 
ATOM     33  C   UNL     1       6.490  -5.380 -10.188  0.00  0.00    +0.124 A 
ATOM     34  C   UNL     1       6.269  -4.246 -10.953  0.00  0.00    +0.040 A 
ATOM     35  C   UNL     1       6.950  -3.078 -10.670  0.00  0.00    +0.027 A 
ATOM     36  F   UNL     1       5.820  -6.520 -10.464  0.00  0.00    -0.205 F 
ENDBRANCH  28  30
ENDBRANCH  25  28
ENDBRANCH   9  25
TORSDOF 5
