REMARK  Name = ZINC15321613
REMARK  10 active torsions:
REMARK  status: ('A' for Active; 'I' for Inactive)
REMARK    1  A    between atoms: C_1  and  C_2
REMARK    2  A    between atoms: C_2  and  O_3
REMARK    3  A    between atoms: O_3  and  C_4
REMARK    4  A    between atoms: C_5  and  C_12
REMARK    5  A    between atoms: C_9  and  O_10
REMARK    6  A    between atoms: O_10  and  C_11
REMARK    7  A    between atoms: C_17  and  C_27
REMARK    8  A    between atoms: C_19  and  C_23
REMARK    9  A    between atoms: C_23  and  O_25
REMARK   10  A    between atoms: O_25  and  C_26
REMARK                            x       y       z     vdW  Elec       q    Type
REMARK                         _______ _______ _______ _____ _____    ______ ____
ROOT
ATOM      1  C   UNL     1       0.588   3.285  -1.818  0.00  0.00    +0.140 C 
ATOM      2  C   UNL     1       1.547   2.663  -0.830  0.00  0.00    +0.037 C 
ATOM      3  C   UNL     1       1.274   1.637  -0.008  0.00  0.00    +0.017 C 
ATOM      4  C   UNL     1       2.337   1.111   0.944  0.00  0.00    +0.055 C 
ATOM      5  C   UNL     1       3.251   2.252   1.387  0.00  0.00    +0.013 C 
ATOM      6  C   UNL     1       3.905   2.841   0.131  0.00  0.00    +0.171 C 
ATOM      7  C   UNL     1       2.823   3.275  -0.811  0.00  0.00    +0.177 C 
ATOM      8  O   UNL     1       3.049   4.184  -1.585  0.00  0.00    -0.291 OA
ATOM      9  C   UNL     1       2.428   3.330   2.097  0.00  0.00    +0.009 C 
ATOM     10  N   UNL     1       0.089   0.977   0.051  0.00  0.00    -0.316 N 
ATOM     11  C   UNL     1      -1.161   1.587   0.101  0.00  0.00    +0.052 A 
ATOM     12  C   UNL     1      -2.008   1.451   1.191  0.00  0.00    +0.025 A 
ATOM     13  C   UNL     1      -3.263   2.034   1.150  0.00  0.00    +0.002 A 
ATOM     14  C   UNL     1      -3.664   2.744   0.033  0.00  0.00    +0.002 A 
ATOM     15  C   UNL     1      -2.808   2.902  -1.043  0.00  0.00    +0.025 A 
ATOM     16  C   UNL     1      -1.541   2.341  -0.995  0.00  0.00    +0.049 A 
ATOM     17  N   UNL     1      -0.627   2.528  -2.028  0.00  0.00    -0.331 N 
ATOM     18  H   UNL     1       0.115   0.007   0.055  0.00  0.00    +0.152 HD
ATOM     19  H   UNL     1      -0.808   2.146  -2.901  0.00  0.00    +0.147 HD
ENDROOT
BRANCH   1  21
ATOM     20  C   UNL     1       0.633   5.783  -2.020  0.00  0.00    +0.167 A 
ATOM     21  C   UNL     1       0.216   4.660  -1.324  0.00  0.00    +0.023 A 
ATOM     22  C   UNL     1      -0.536   4.800  -0.172  0.00  0.00    +0.009 A 
ATOM     23  C   UNL     1      -0.879   6.059   0.284  0.00  0.00    +0.004 A 
ATOM     24  C   UNL     1      -0.470   7.183  -0.408  0.00  0.00    +0.049 A 
ATOM     25  C   UNL     1       0.284   7.050  -1.563  0.00  0.00    +0.162 A 
BRANCH  25  26
ATOM     26  O   UNL     1       0.687   8.155  -2.245  0.00  0.00    -0.491 OA
ATOM     27  C   UNL     1       0.296   9.423  -1.715  0.00  0.00    +0.277 C 
ENDBRANCH  25  26
BRANCH  20  28
ATOM     28  O   UNL     1       1.377   5.647  -3.150  0.00  0.00    -0.488 OA
BRANCH  28  30
ATOM     29  C   UNL     1       1.666   5.400  -5.537  0.00  0.00    +0.048 C 
ATOM     30  C   UNL     1       0.668   5.545  -4.386  0.00  0.00    +0.226 C 
ENDBRANCH  28  30
ENDBRANCH  20  28
ENDBRANCH   1  21
BRANCH   6  31
ATOM     31  C   UNL     1       4.762   1.793  -0.531  0.00  0.00    +0.318 C 
ATOM     32  O   UNL     1       4.844   0.687  -0.050  0.00  0.00    -0.250 OA
BRANCH  31  33
ATOM     33  O   UNL     1       5.435   2.088  -1.654  0.00  0.00    -0.467 OA
ATOM     34  C   UNL     1       6.241   1.030  -2.237  0.00  0.00    +0.280 C 
ENDBRANCH  31  33
ENDBRANCH   6  31
TORSDOF 6
