REMARK  Name = ZINC39652795
REMARK  10 active torsions:
REMARK  status: ('A' for Active; 'I' for Inactive)
REMARK    1  A    between atoms: C_1  and  C_2
REMARK    2  A    between atoms: C_2  and  O_3
REMARK    3  A    between atoms: O_3  and  C_4
REMARK    4  A    between atoms: C_9  and  C_10
REMARK    5  A    between atoms: C_10  and  C_11
REMARK    6  A    between atoms: C_11  and  N_12
REMARK    7  A    between atoms: C_13  and  C_15
REMARK    8  A    between atoms: C_26  and  C_28
REMARK    9  A    between atoms: C_29  and  C_34
REMARK   10  A    between atoms: C_32  and  C_33
REMARK                            x       y       z     vdW  Elec       q    Type
REMARK                         _______ _______ _______ _____ _____    ______ ____
ROOT
ATOM      1  C   UNL     1       1.385   1.241   7.501  0.00  0.00    +0.100 C 
ATOM      2  C   UNL     1       1.979   2.498   6.827  0.00  0.00    +0.121 C 
ATOM      3  N   UNL     1       0.901   3.512   6.909  0.00  0.00    -0.296 N 
ATOM      4  C   UNL     1       0.303   3.306   8.250  0.00  0.00    +0.115 C 
ATOM      5  C   UNL     1       0.288   1.776   8.437  0.00  0.00    -0.004 C 
ATOM      6  C   UNL     1       0.607   1.417   9.885  0.00  0.00    -0.010 C 
ATOM      7  C   UNL     1      -0.527   1.908  10.789  0.00  0.00    -0.082 C 
ATOM      8  N   UNL     1      -1.789   1.283  10.377  0.00  0.00    +0.379 N 
ATOM      9  C   UNL     1      -2.136   1.708   9.015  0.00  0.00    -0.082 C 
ATOM     10  C   UNL     1      -1.071   1.209   8.035  0.00  0.00    -0.010 C 
ATOM     11  C   UNL     1       0.545   4.417   5.976  0.00  0.00    +0.252 C 
ATOM     12  O   UNL     1      -0.369   5.188   6.194  0.00  0.00    -0.270 OA
ATOM     13  H   UNL     1      -1.690   0.280  10.399  0.00  0.00    -0.086 HD
ATOM     14  H   UNL     1      -2.523   1.560  11.011  0.00  0.00    -0.086 HD
ENDROOT
BRANCH  11  15
ATOM     15  C   UNL     1       1.264   4.471   4.690  0.00  0.00    +0.101 A 
ATOM     16  C   UNL     1       0.926   3.737   3.470  0.00  0.00    +0.093 A 
ATOM     17  N   UNL     1       1.806   4.065   2.570  0.00  0.00    -0.083 NA
ATOM     18  O   UNL     1       2.715   4.986   3.138  0.00  0.00    -0.359 OA
ATOM     19  C   UNL     1       2.370   5.220   4.407  0.00  0.00    +0.147 A 
ATOM     20  C   UNL     1       3.080   6.147   5.361  0.00  0.00    +0.090 C 
ATOM     21  C   UNL     1      -0.225   2.781   3.290  0.00  0.00    +0.070 C 
ENDBRANCH  11  15
BRANCH   1  23
ATOM     22  N   UNL     1       0.682  -0.997   6.717  0.00  0.00    -0.315 N 
ATOM     23  C   UNL     1       0.790   0.323   6.465  0.00  0.00    +0.218 C 
ATOM     24  O   UNL     1       0.408   0.770   5.405  0.00  0.00    -0.275 OA
ATOM     25  H   UNL     1       0.987  -1.355   7.566  0.00  0.00    +0.149 HD
BRANCH  22  26
ATOM     26  C   UNL     1       0.103  -1.890   5.710  0.00  0.00    +0.109 C 
BRANCH  26  27
ATOM     27  C   UNL     1       0.097  -3.324   6.244  0.00  0.00    +0.057 C 
BRANCH  27  33
ATOM     28  C   UNL     1       0.300  -4.763   4.201  0.00  0.00    +0.124 A 
ATOM     29  C   UNL     1      -0.250  -5.613   3.252  0.00  0.00    +0.046 A 
ATOM     30  C   UNL     1      -1.592  -5.934   3.309  0.00  0.00    +0.004 A 
ATOM     31  C   UNL     1      -2.387  -5.410   4.312  0.00  0.00    +0.000 A 
ATOM     32  C   UNL     1      -1.842  -4.563   5.258  0.00  0.00    +0.007 A 
ATOM     33  C   UNL     1      -0.498  -4.243   5.208  0.00  0.00    -0.004 A 
BRANCH  28  34
ATOM     34  O   UNL     1       1.621  -4.445   4.146  0.00  0.00    -0.492 OA
BRANCH  34  36
ATOM     35  C   UNL     1       3.835  -4.549   3.184  0.00  0.00    +0.048 C 
ATOM     36  C   UNL     1       2.382  -5.017   3.081  0.00  0.00    +0.225 C 
ENDBRANCH  34  36
ENDBRANCH  28  34
ENDBRANCH  27  33
ENDBRANCH  26  27
ENDBRANCH  22  26
ENDBRANCH   1  23
TORSDOF 7
