REMARK  Name = ZINC16953610
REMARK  6 active torsions:
REMARK  status: ('A' for Active; 'I' for Inactive)
REMARK    1  A    between atoms: C_1  and  O_2
REMARK    2  A    between atoms: O_2  and  C_3
REMARK    3  A    between atoms: C_6  and  C_9
REMARK    4  A    between atoms: C_14  and  S_18
REMARK    5  A    between atoms: S_18  and  C_19
REMARK    6  A    between atoms: C_19  and  C_20
REMARK                            x       y       z     vdW  Elec       q    Type
REMARK                         _______ _______ _______ _____ _____    ______ ____
ROOT
ATOM      1  C   UNL     1      -4.981  -2.629   0.035  0.00  0.00    +0.092 C 
ATOM      2  C   UNL     1      -5.085  -3.469   1.272  0.00  0.00    +0.071 A 
ATOM      3  C   UNL     1      -4.907  -4.845   1.213  0.00  0.00    +0.135 A 
ATOM      4  N   UNL     1      -5.002  -5.563   2.327  0.00  0.00    -0.206 NA
ATOM      5  C   UNL     1      -5.266  -4.975   3.486  0.00  0.00    +0.194 A 
ATOM      6  N   UNL     1      -5.443  -3.664   3.579  0.00  0.00    -0.183 NA
ATOM      7  C   UNL     1      -5.360  -2.886   2.503  0.00  0.00    +0.280 A 
ATOM      8  O   UNL     1      -5.542  -1.547   2.607  0.00  0.00    -0.265 OA
ATOM      9  N   UNL     1      -4.637  -5.449  -0.003  0.00  0.00    -0.302 N 
ATOM     10  C   UNL     1      -4.923  -4.807  -1.177  0.00  0.00    +0.017 C 
ATOM     11  C   UNL     1      -5.104  -3.471  -1.210  0.00  0.00    +0.024 C 
ATOM     12  C   UNL     1      -5.417  -2.816  -2.414  0.00  0.00    +0.162 C 
ATOM     13  C   UNL     1      -5.569  -3.576  -3.703  0.00  0.00    +0.080 C 
ATOM     14  C   UNL     1      -6.032  -5.002  -3.388  0.00  0.00    +0.014 C 
ATOM     15  C   UNL     1      -5.025  -5.637  -2.433  0.00  0.00    +0.051 C 
ATOM     16  O   UNL     1      -5.568  -1.610  -2.413  0.00  0.00    -0.292 OA
ATOM     17  H   UNL     1      -4.242  -6.335  -0.023  0.00  0.00    +0.153 HD
ENDROOT
BRANCH   1  21
ATOM     18  C   UNL     1      -1.200  -0.637   0.010  0.00  0.00    +0.120 A 
ATOM     19  C   UNL     1      -2.375   0.101   0.019  0.00  0.00    +0.046 A 
ATOM     20  C   UNL     1      -3.596  -0.545   0.027  0.00  0.00    +0.008 A 
ATOM     21  C   UNL     1      -3.648  -1.927   0.026  0.00  0.00    -0.035 A 
ATOM     22  C   UNL     1      -2.479  -2.665   0.017  0.00  0.00    +0.008 A 
ATOM     23  C   UNL     1      -1.255  -2.024   0.003  0.00  0.00    +0.046 A 
BRANCH  18  25
ATOM     24  C   UNL     1      -0.017   1.425   0.010  0.00  0.00    +0.277 C 
ATOM     25  O   UNL     1       0.002  -0.004   0.002  0.00  0.00    -0.495 OA
ENDBRANCH  18  25
ENDBRANCH   1  21
BRANCH   5  26
ATOM     26  S   UNL     1      -5.386  -5.961   4.941  0.00  0.00    -0.081 S 
BRANCH  26  27
ATOM     27  C   UNL     1      -5.750  -4.764   6.254  0.00  0.00    +0.115 C 
BRANCH  27  28
ATOM     28  C   UNL     1      -5.880  -5.486   7.571  0.00  0.00    -0.002 A 
ATOM     29  C   UNL     1      -7.110  -5.967   7.978  0.00  0.00    +0.007 A 
ATOM     30  C   UNL     1      -7.229  -6.629   9.185  0.00  0.00    +0.000 A 
ATOM     31  C   UNL     1      -6.118  -6.812   9.987  0.00  0.00    +0.003 A 
ATOM     32  C   UNL     1      -4.886  -6.333   9.582  0.00  0.00    +0.038 A 
ATOM     33  C   UNL     1      -4.765  -5.674   8.370  0.00  0.00    +0.127 A 
ATOM     34  F   UNL     1      -3.561  -5.210   7.971  0.00  0.00    -0.205 F 
ENDBRANCH  27  28
ENDBRANCH  26  27
ENDBRANCH   5  26
TORSDOF 5
