REMARK  Name = ZINC09705759
REMARK  5 active torsions:
REMARK  status: ('A' for Active; 'I' for Inactive)
REMARK    1  A    between atoms: C_7  and  N_20
REMARK    2  A    between atoms: C_8  and  C_10
REMARK    3  A    between atoms: N_12  and  C_13
REMARK    4  A    between atoms: C_21  and  C_23
REMARK    5  A    between atoms: N_25  and  C_26
REMARK                            x       y       z     vdW  Elec       q    Type
REMARK                         _______ _______ _______ _____ _____    ______ ____
ROOT
ATOM      1  C   UNL     1      10.737   3.364   3.389  0.00  0.00    +0.001 A 
ATOM      2  C   UNL     1      11.856   3.223   2.580  0.00  0.00    +0.004 A 
ATOM      3  C   UNL     1      11.727   2.859   1.257  0.00  0.00    +0.047 A 
ATOM      4  C   UNL     1      10.464   2.627   0.723  0.00  0.00    +0.138 A 
ATOM      5  C   UNL     1       9.335   2.777   1.546  0.00  0.00    +0.042 A 
ATOM      6  C   UNL     1       9.486   3.141   2.884  0.00  0.00    +0.013 A 
ATOM      7  C   UNL     1       8.178   2.461   0.698  0.00  0.00    +0.093 A 
ATOM      8  C   UNL     1       8.689   2.164  -0.536  0.00  0.00    +0.212 A 
ATOM      9  O   UNL     1      10.037   2.267  -0.503  0.00  0.00    -0.448 OA
ENDROOT
BRANCH   8  10
ATOM     10  C   UNL     1       7.900   1.793  -1.709  0.00  0.00    +0.285 C 
ATOM     11  O   UNL     1       6.684   1.860  -1.671  0.00  0.00    -0.266 OA
ATOM     12  N   UNL     1       8.517   1.377  -2.833  0.00  0.00    -0.279 N 
ATOM     13  H   UNL     1       9.485   1.398  -2.891  0.00  0.00    +0.155 HD
BRANCH  12  14
ATOM     14  C   UNL     1       7.761   0.916  -3.916  0.00  0.00    +0.034 A 
ATOM     15  C   UNL     1       6.571   0.236  -3.694  0.00  0.00    +0.026 A 
ATOM     16  C   UNL     1       5.823  -0.214  -4.765  0.00  0.00    +0.040 A 
ATOM     17  C   UNL     1       6.266   0.002  -6.059  0.00  0.00    +0.124 A 
ATOM     18  C   UNL     1       7.455   0.675  -6.283  0.00  0.00    +0.040 A 
ATOM     19  C   UNL     1       8.203   1.132  -5.215  0.00  0.00    +0.026 A 
ATOM     20  F   UNL     1       5.537  -0.444  -7.105  0.00  0.00    -0.205 F 
ENDBRANCH  12  14
ENDBRANCH   8  10
BRANCH   7  21
ATOM     21  N   UNL     1       6.841   2.468   1.071  0.00  0.00    -0.274 N 
ATOM     22  C   UNL     1       6.497   2.232   2.352  0.00  0.00    +0.303 C 
ATOM     23  O   UNL     1       7.350   1.944   3.166  0.00  0.00    -0.265 OA
ATOM     24  H   UNL     1       6.154   2.642   0.408  0.00  0.00    +0.155 HD
BRANCH  22  25
ATOM     25  C   UNL     1       5.067   2.326   2.771  0.00  0.00    +0.300 C 
ATOM     26  O   UNL     1       4.214   2.615   1.957  0.00  0.00    -0.265 OA
ATOM     27  N   UNL     1       4.723   2.091   4.053  0.00  0.00    -0.305 N 
ATOM     28  H   UNL     1       5.405   1.861   4.703  0.00  0.00    +0.149 HD
BRANCH  27  29
ATOM     29  C   UNL     1       3.320   2.183   4.464  0.00  0.00    +0.073 C 
ATOM     30  C   UNL     1       2.623   0.805   4.351  0.00  0.00    +0.022 C 
ATOM     31  C   UNL     1       1.442   0.896   5.339  0.00  0.00    +0.002 C 
ATOM     32  C   UNL     1       1.815   1.973   6.372  0.00  0.00    +0.002 C 
ATOM     33  C   UNL     1       3.210   2.499   5.976  0.00  0.00    +0.022 C 
ENDBRANCH  27  29
ENDBRANCH  22  25
ENDBRANCH   7  21
TORSDOF 5
