REMARK  Name = ZINC44672461
REMARK  8 active torsions:
REMARK  status: ('A' for Active; 'I' for Inactive)
REMARK    1  A    between atoms: C_1  and  O_2
REMARK    2  A    between atoms: O_2  and  C_3
REMARK    3  A    between atoms: C_3  and  C_5
REMARK    4  A    between atoms: C_9  and  O_11
REMARK    5  A    between atoms: O_11  and  C_12
REMARK    6  A    between atoms: C_12  and  C_14
REMARK    7  A    between atoms: C_14  and  C_15
REMARK    8  A    between atoms: C_15  and  C_16
REMARK                            x       y       z     vdW  Elec       q    Type
REMARK                         _______ _______ _______ _____ _____    ______ ____
ROOT
ATOM      1  C   UNL     1       1.921  -6.066   3.308  0.00  0.00    +0.313 C 
ATOM      2  O   UNL     1       1.408  -6.688   2.408  0.00  0.00    -0.250 OA
ENDROOT
BRANCH   1   3
ATOM      3  O   UNL     1       1.983  -4.726   3.248  0.00  0.00    -0.426 OA
BRANCH   3   8
ATOM      4  C   UNL     1      -0.673  -3.454   1.095  0.00  0.00    +0.062 A 
ATOM      5  C   UNL     1       0.083  -2.828   0.102  0.00  0.00    +0.015 A 
ATOM      6  C   UNL     1       1.461  -2.845   0.172  0.00  0.00    +0.004 A 
ATOM      7  C   UNL     1       2.096  -3.479   1.224  0.00  0.00    +0.046 A 
ATOM      8  C   UNL     1       1.353  -4.104   2.216  0.00  0.00    +0.132 A 
ATOM      9  C   UNL     1      -0.031  -4.088   2.159  0.00  0.00    +0.061 A 
BRANCH   4  10
ATOM     10  C   UNL     1      -2.149  -3.438   1.023  0.00  0.00    +0.339 C 
ATOM     11  O   UNL     1      -2.805  -3.978   1.891  0.00  0.00    -0.245 OA
BRANCH  10  13
ATOM     12  C   UNL     1      -4.196  -2.848  -0.010  0.00  0.00    +0.280 C 
ATOM     13  O   UNL     1      -2.767  -2.824  -0.005  0.00  0.00    -0.464 OA
ENDBRANCH  10  13
ENDBRANCH   4  10
ENDBRANCH   3   8
ENDBRANCH   1   3
BRANCH   1  14
ATOM     14  C   UNL     1       2.490  -6.793   4.498  0.00  0.00    +0.126 C 
BRANCH  14  15
ATOM     15  C   UNL     1       2.292  -8.300   4.318  0.00  0.00    +0.048 C 
BRANCH  15  16
ATOM     16  C   UNL     1       2.861  -9.027   5.508  0.00  0.00    -0.022 A 
ATOM     17  C   UNL     1       4.091  -9.557   5.607  0.00  0.00    +0.087 A 
ATOM     18  N   UNL     1       4.251 -10.138   6.835  0.00  0.00    -0.360 N 
ATOM     19  H   UNL     1       5.057 -10.586   7.139  0.00  0.00    +0.165 HD
ATOM     20  C   UNL     1       3.100  -9.994   7.576  0.00  0.00    +0.047 A 
ATOM     21  C   UNL     1       2.180  -9.286   6.779  0.00  0.00    +0.003 A 
ATOM     22  C   UNL     1       0.912  -8.986   7.279  0.00  0.00    +0.010 A 
ATOM     23  C   UNL     1       0.571  -9.379   8.543  0.00  0.00    +0.001 A 
ATOM     24  C   UNL     1       1.475 -10.073   9.334  0.00  0.00    +0.002 A 
ATOM     25  C   UNL     1       2.729 -10.388   8.857  0.00  0.00    +0.026 A 
ENDBRANCH  15  16
ENDBRANCH  14  15
ENDBRANCH   1  14
TORSDOF 7
