REMARK  Name = ZINC33568543
REMARK  6 active torsions:
REMARK  status: ('A' for Active; 'I' for Inactive)
REMARK    1  A    between atoms: C_4  and  C_7
REMARK    2  A    between atoms: C_9  and  C_33
REMARK    3  A    between atoms: N_10  and  C_12
REMARK    4  A    between atoms: C_15  and  C_18
REMARK    5  A    between atoms: N_21  and  C_22
REMARK    6  A    between atoms: C_25  and  O_28
REMARK                            x       y       z     vdW  Elec       q    Type
REMARK                         _______ _______ _______ _____ _____    ______ ____
ROOT
ATOM      1  C   UNL     1       7.242  -0.767  -1.069  0.00  0.00    +0.066 A 
ATOM      2  C   UNL     1       8.073  -1.870  -0.898  0.00  0.00    +0.028 A 
ATOM      3  C   UNL     1       9.441  -1.713  -0.906  0.00  0.00    +0.010 A 
ATOM      4  C   UNL     1       9.995  -0.440  -1.088  0.00  0.00    -0.024 A 
ATOM      5  C   UNL     1       9.155   0.667  -1.261  0.00  0.00    +0.010 A 
ATOM      6  C   UNL     1       7.789   0.498  -1.256  0.00  0.00    +0.028 A 
ENDROOT
BRANCH   4   7
ATOM      7  C   UNL     1      11.454  -0.266  -1.098  0.00  0.00    +0.026 C 
ATOM      8  C   UNL     1      12.266  -1.353  -1.133  0.00  0.00    +0.058 C 
ATOM      9  C   UNL     1      13.736  -1.429  -1.008  0.00  0.00    +0.140 C 
ATOM     10  N   UNL     1      14.476  -0.357  -0.833  0.00  0.00    -0.231 NA
ATOM     11  N   UNL     1      14.277  -2.674  -1.083  0.00  0.00    -0.260 N 
ATOM     12  C   UNL     1      13.494  -3.756  -1.262  0.00  0.00    +0.282 C 
ATOM     13  O   UNL     1      13.832  -4.922  -1.348  0.00  0.00    -0.262 OA
ATOM     14  S   UNL     1      11.846  -3.077  -1.337  0.00  0.00    -0.028 S 
ATOM     15  H   UNL     1      15.238  -2.784  -1.008  0.00  0.00    +0.157 HD
BRANCH  10  16
ATOM     16  C   UNL     1      13.884   0.857  -0.631  0.00  0.00    +0.066 A 
ATOM     17  C   UNL     1      13.177   1.104   0.549  0.00  0.00    +0.031 A 
ATOM     18  C   UNL     1      12.581   2.331   0.749  0.00  0.00    +0.047 A 
ATOM     19  C   UNL     1      12.682   3.321  -0.220  0.00  0.00    +0.117 A 
ATOM     20  C   UNL     1      13.383   3.080  -1.394  0.00  0.00    +0.047 A 
ATOM     21  C   UNL     1      13.988   1.859  -1.601  0.00  0.00    +0.031 A 
BRANCH  19  22
ATOM     22  O   UNL     1      12.092   4.529  -0.019  0.00  0.00    -0.507 OA
ATOM     23  H   UNL     1      12.660   5.176   0.420  0.00  0.00    +0.292 HD
ENDBRANCH  19  22
ENDBRANCH  10  16
ENDBRANCH   4   7
BRANCH   1  27
ATOM     24  C   UNL     1       3.732  -0.729  -1.624  0.00  0.00    +0.094 A 
ATOM     25  C   UNL     1       3.824  -1.590  -0.516  0.00  0.00    +0.058 A 
ATOM     26  C   UNL     1       5.142  -1.703  -0.184  0.00  0.00    +0.075 A 
ATOM     27  N   UNL     1       5.854  -0.932  -1.060  0.00  0.00    -0.232 N 
ATOM     28  N   UNL     1       4.948  -0.342  -1.950  0.00  0.00    -0.166 NA
BRANCH  24  32
ATOM     29  C   UNL     1       0.143   0.413  -3.598  0.00  0.00    +0.000 A 
ATOM     30  C   UNL     1       1.359   0.897  -4.045  0.00  0.00    +0.001 A 
ATOM     31  C   UNL     1       2.527   0.530  -3.408  0.00  0.00    +0.010 A 
ATOM     32  C   UNL     1       2.479  -0.330  -2.312  0.00  0.00    +0.002 A 
ATOM     33  C   UNL     1       1.251  -0.814  -1.866  0.00  0.00    +0.010 A 
ATOM     34  C   UNL     1       0.090  -0.440  -2.511  0.00  0.00    +0.001 A 
ENDBRANCH  24  32
BRANCH  26  35
ATOM     35  C   UNL     1       5.699  -2.511   0.923  0.00  0.00    +0.000 A 
ATOM     36  C   UNL     1       6.914  -2.154   1.508  0.00  0.00    +0.010 A 
ATOM     37  C   UNL     1       7.428  -2.912   2.540  0.00  0.00    +0.001 A 
ATOM     38  C   UNL     1       6.741  -4.023   2.996  0.00  0.00    +0.000 A 
ATOM     39  C   UNL     1       5.535  -4.381   2.420  0.00  0.00    +0.001 A 
ATOM     40  C   UNL     1       5.008  -3.629   1.391  0.00  0.00    +0.010 A 
ENDBRANCH  26  35
ENDBRANCH   1  27
TORSDOF 6
