REMARK  Name = ZINC02957848
REMARK  5 active torsions:
REMARK  status: ('A' for Active; 'I' for Inactive)
REMARK    1  A    between atoms: C_1  and  C_2
REMARK    2  A    between atoms: C_6  and  N_8
REMARK    3  A    between atoms: C_10  and  C_15
REMARK    4  A    between atoms: C_21  and  O_26
REMARK    5  A    between atoms: O_26  and  C_27
REMARK                            x       y       z     vdW  Elec       q    Type
REMARK                         _______ _______ _______ _____ _____    ______ ____
ROOT
ATOM      1  N   UNL     1      -0.069   5.243   0.029  0.00  0.00    -0.295 N 
ATOM      2  C   UNL     1      -0.809   6.046  -0.818  0.00  0.00    +0.120 A 
ATOM      3  C   UNL     1      -0.554   7.328  -0.494  0.00  0.00    +0.072 A 
ATOM      4  N   UNL     1       0.352   7.320   0.564  0.00  0.00    -0.333 N 
ATOM      5  H   UNL     1       0.718   8.102   1.007  0.00  0.00    +0.168 HD
ATOM      6  C   UNL     1       0.626   6.036   0.867  0.00  0.00    +0.163 A 
ATOM      7  S   UNL     1       1.682   5.504   2.104  0.00  0.00    -0.013 S 
ENDROOT
BRANCH   3   8
ATOM      8  C   UNL     1      -1.131   8.523  -1.142  0.00  0.00    +0.085 A 
ATOM      9  C   UNL     1      -1.508   9.608  -0.392  0.00  0.00    +0.028 A 
ATOM     10  C   UNL     1      -2.073  10.766  -1.085  0.00  0.00    +0.022 A 
ATOM     11  C   UNL     1      -2.474  11.900  -0.365  0.00  0.00    +0.012 A 
ATOM     12  C   UNL     1      -2.999  12.975  -1.024  0.00  0.00    +0.004 A 
ATOM     13  C   UNL     1      -3.140  12.955  -2.404  0.00  0.00    +0.049 A 
ATOM     14  C   UNL     1      -2.752  11.847  -3.135  0.00  0.00    +0.163 A 
ATOM     15  C   UNL     1      -2.213  10.738  -2.482  0.00  0.00    +0.180 A 
ATOM     16  O   UNL     1      -1.831   9.653  -3.191  0.00  0.00    -0.418 OA
ATOM     17  C   UNL     1      -1.304   8.572  -2.598  0.00  0.00    +0.347 A 
ATOM     18  O   UNL     1      -0.969   7.618  -3.275  0.00  0.00    -0.244 OA
BRANCH  14  19
ATOM     19  O   UNL     1      -2.894  11.839  -4.487  0.00  0.00    -0.491 OA
ATOM     20  C   UNL     1      -3.453  13.009  -5.088  0.00  0.00    +0.277 C 
ENDBRANCH  14  19
ENDBRANCH   3   8
BRANCH   1  26
ATOM     21  C   UNL     1       2.490   1.044  -0.016  0.00  0.00    +0.044 C 
ATOM     22  C   UNL     1       1.177   1.782   0.000  0.00  0.00    -0.048 A 
ATOM     23  C   UNL     1      -0.013   1.076   0.008  0.00  0.00    +0.003 A 
ATOM     24  C   UNL     1      -1.220   1.749   0.017  0.00  0.00    +0.002 A 
ATOM     25  C   UNL     1      -1.242   3.130   0.031  0.00  0.00    +0.026 A 
ATOM     26  C   UNL     1      -0.050   3.842   0.023  0.00  0.00    +0.049 A 
ATOM     27  C   UNL     1       1.161   3.163   0.007  0.00  0.00    +0.029 A 
ENDBRANCH   1  26
TORSDOF 3
