REMARK  Name = ZINC38551458
REMARK  6 active torsions:
REMARK  status: ('A' for Active; 'I' for Inactive)
REMARK    1  A    between atoms: C_1  and  N_2
REMARK    2  A    between atoms: N_2  and  C_3
REMARK    3  A    between atoms: N_2  and  C_4
REMARK    4  A    between atoms: C_7  and  C_10
REMARK    5  A    between atoms: C_16  and  C_18
REMARK    6  A    between atoms: C_18  and  C_19
REMARK                            x       y       z     vdW  Elec       q    Type
REMARK                         _______ _______ _______ _____ _____    ______ ____
ROOT
ATOM      1  C   UNL     1      -4.840  -2.888   0.032  0.00  0.00    +0.252 C 
ATOM      2  O   UNL     1      -4.824  -4.104   0.030  0.00  0.00    -0.270 OA
ATOM      3  N   UNL     1      -6.016  -2.231   0.042  0.00  0.00    -0.234 N 
ATOM      4  C   UNL     1      -7.207  -2.940   0.049  0.00  0.00    +0.314 A 
ATOM      5  N   UNL     1      -7.335  -4.244   0.053  0.00  0.00    -0.092 NA
ATOM      6  N   UNL     1      -8.585  -4.549   0.060  0.00  0.00    -0.111 NA
ATOM      7  C   UNL     1      -9.298  -3.461   0.060  0.00  0.00    +0.223 A 
ATOM      8  O   UNL     1      -8.447  -2.417   0.058  0.00  0.00    -0.409 OA
ATOM      9  H   UNL     1      -6.030  -1.261   0.043  0.00  0.00    +0.160 HD
ENDROOT
BRANCH   1  13
ATOM     10  C   UNL     1      -1.192  -0.716   0.010  0.00  0.00    +0.029 A 
ATOM     11  C   UNL     1      -1.172  -2.108   0.008  0.00  0.00    +0.024 A 
ATOM     12  C   UNL     1      -2.352  -2.815   0.015  0.00  0.00    +0.015 A 
ATOM     13  C   UNL     1      -3.573  -2.134   0.025  0.00  0.00    +0.037 A 
ATOM     14  C   UNL     1      -3.591  -0.736   0.027  0.00  0.00    +0.015 A 
ATOM     15  C   UNL     1      -2.407  -0.035   0.025  0.00  0.00    +0.024 A 
BRANCH  10  17
ATOM     16  C   UNL     1      -0.018   1.461   0.010  0.00  0.00    +0.129 C 
ATOM     17  N   UNL     1       0.002  -0.004   0.002  0.00  0.00    -0.336 N 
ATOM     18  C   UNL     1       1.281  -0.719  -0.014  0.00  0.00    +0.129 C 
ENDBRANCH  10  17
ENDBRANCH   1  13
BRANCH   7  19
ATOM     19  C   UNL     1     -10.803  -3.383   0.067  0.00  0.00    +0.132 C 
BRANCH  19  20
ATOM     20  C   UNL     1     -11.298  -3.353   1.490  0.00  0.00    -0.038 A 
ATOM     21  C   UNL     1     -11.582  -4.535   2.148  0.00  0.00    +0.007 A 
ATOM     22  C   UNL     1     -12.036  -4.508   3.453  0.00  0.00    +0.038 A 
ATOM     23  C   UNL     1     -12.206  -3.296   4.101  0.00  0.00    +0.123 A 
ATOM     24  C   UNL     1     -11.922  -2.113   3.441  0.00  0.00    +0.038 A 
ATOM     25  C   UNL     1     -11.464  -2.143   2.138  0.00  0.00    +0.007 A 
ATOM     26  F   UNL     1     -12.650  -3.269   5.377  0.00  0.00    -0.205 F 
ENDBRANCH  19  20
ENDBRANCH   7  19
TORSDOF 4
