REMARK  Name = ZINC35026777
REMARK  10 active torsions:
REMARK  status: ('A' for Active; 'I' for Inactive)
REMARK    1  A    between atoms: C_1  and  C_2
REMARK    2  A    between atoms: C_2  and  C_4
REMARK    3  A    between atoms: C_2  and  N_16
REMARK    4  A    between atoms: N_16  and  C_17
REMARK    5  A    between atoms: C_17  and  C_18
REMARK    6  A    between atoms: C_18  and  O_19
REMARK    7  A    between atoms: O_19  and  C_20
REMARK    8  A    between atoms: N_23  and  C_24
REMARK    9  A    between atoms: C_27  and  S_30
REMARK   10  A    between atoms: S_30  and  C_31
REMARK                            x       y       z     vdW  Elec       q    Type
REMARK                         _______ _______ _______ _____ _____    ______ ____
ROOT
ATOM      1  N   UNL     1       0.606  -0.617  -1.191  0.00  0.00    -0.273 N 
ATOM      2  C   UNL     1       1.711  -1.383  -1.098  0.00  0.00    +0.307 C 
ATOM      3  O   UNL     1       2.062  -1.813  -0.017  0.00  0.00    -0.252 OA
ATOM      4  N   UNL     1       2.426  -1.672  -2.203  0.00  0.00    -0.269 N 
ATOM      5  H   UNL     1       2.104  -1.394  -3.075  0.00  0.00    +0.156 HD
ENDROOT
BRANCH   4   6
ATOM      6  C   UNL     1       3.635  -2.373  -2.092  0.00  0.00    +0.035 A 
ATOM      7  C   UNL     1       4.026  -3.245  -3.100  0.00  0.00    +0.024 A 
ATOM      8  C   UNL     1       5.216  -3.936  -2.992  0.00  0.00    +0.016 A 
ATOM      9  C   UNL     1       6.023  -3.759  -1.874  0.00  0.00    +0.008 A 
ATOM     10  C   UNL     1       5.631  -2.886  -0.867  0.00  0.00    +0.016 A 
ATOM     11  C   UNL     1       4.443  -2.192  -0.978  0.00  0.00    +0.024 A 
BRANCH   9  12
ATOM     12  S   UNL     1       7.542  -4.641  -1.735  0.00  0.00    -0.129 S 
ATOM     13  C   UNL     1       8.224  -4.092  -0.146  0.00  0.00    +0.090 C 
ENDBRANCH   9  12
ENDBRANCH   4   6
BRANCH   1  15
ATOM     14  C   UNL     1      -0.211   1.213   0.211  0.00  0.00    +0.036 C 
ATOM     15  C   UNL     1      -0.172  -0.303   0.010  0.00  0.00    +0.141 C 
BRANCH  15  16
ATOM     16  C   UNL     1      -1.577  -0.825  -0.150  0.00  0.00    +0.131 A 
ATOM     17  N   UNL     1      -2.486  -0.537   0.817  0.00  0.00    -0.309 N 
ATOM     18  H   UNL     1      -2.219  -0.007   1.585  0.00  0.00    +0.170 HD
ATOM     19  C   UNL     1      -3.760  -0.981   0.720  0.00  0.00    +0.259 A 
ATOM     20  O   UNL     1      -4.585  -0.730   1.579  0.00  0.00    -0.267 OA
ATOM     21  C   UNL     1      -4.110  -1.780  -0.464  0.00  0.00    +0.065 A 
ATOM     22  C   UNL     1      -5.394  -2.286  -0.659  0.00  0.00    +0.015 A 
ATOM     23  C   UNL     1      -5.666  -3.029  -1.787  0.00  0.00    +0.001 A 
ATOM     24  C   UNL     1      -4.674  -3.276  -2.727  0.00  0.00    +0.002 A 
ATOM     25  C   UNL     1      -3.399  -2.787  -2.552  0.00  0.00    +0.028 A 
ATOM     26  C   UNL     1      -3.098  -2.030  -1.417  0.00  0.00    +0.078 A 
ATOM     27  N   UNL     1      -1.857  -1.523  -1.208  0.00  0.00    -0.232 NA
ENDBRANCH  15  16
ENDBRANCH   1  15
BRANCH   1  28
ATOM     28  C   UNL     1       0.182  -0.099  -2.494  0.00  0.00    +0.138 C 
BRANCH  28  29
ATOM     29  C   UNL     1       0.835   1.263  -2.738  0.00  0.00    +0.178 C 
BRANCH  29  30
ATOM     30  O   UNL     1       2.251   1.101  -2.838  0.00  0.00    -0.381 OA
ATOM     31  C   UNL     1       2.961   2.320  -3.067  0.00  0.00    +0.194 C 
ENDBRANCH  29  30
ENDBRANCH  28  29
ENDBRANCH   1  28
TORSDOF 7
