REMARK  Name = ZINC13075060
REMARK  6 active torsions:
REMARK  status: ('A' for Active; 'I' for Inactive)
REMARK    1  A    between atoms: C_3  and  O_31
REMARK    2  A    between atoms: C_4  and  C_28
REMARK    3  A    between atoms: C_6  and  C_7
REMARK    4  A    between atoms: N_11  and  C_12
REMARK    5  A    between atoms: N_20  and  C_21
REMARK    6  A    between atoms: C_21  and  C_22
REMARK                            x       y       z     vdW  Elec       q    Type
REMARK                         _______ _______ _______ _____ _____    ______ ____
ROOT
ATOM      1  C   UNL     1       1.118   1.854   0.075  0.00  0.00    +0.058 A 
ATOM      2  C   UNL     1       2.245   1.116   0.010  0.00  0.00    +0.075 A 
ATOM      3  S   UNL     1       1.607  -0.550   0.089  0.00  0.00    -0.057 S 
ATOM      4  C   UNL     1      -0.129  -0.146   0.205  0.00  0.00    +0.174 A 
ATOM      5  N   UNL     1      -1.168  -0.953   0.295  0.00  0.00    -0.222 NA
ATOM      6  N   UNL     1      -0.096   1.229   0.174  0.00  0.00    -0.317 N 
ENDROOT
BRANCH   5   7
ATOM      7  C   UNL     1      -0.978  -2.303   0.414  0.00  0.00    +0.085 A 
ATOM      8  C   UNL     1      -0.803  -3.090  -0.727  0.00  0.00    +0.031 A 
ATOM      9  C   UNL     1      -0.606  -4.449  -0.600  0.00  0.00    +0.022 A 
ATOM     10  C   UNL     1      -0.593  -5.036   0.654  0.00  0.00    +0.042 A 
ATOM     11  C   UNL     1      -0.772  -4.263   1.789  0.00  0.00    +0.042 A 
ATOM     12  C   UNL     1      -0.965  -2.901   1.677  0.00  0.00    +0.068 A 
ATOM     13 CL   UNL     1      -1.188  -1.934   3.101  0.00  0.00    -0.081 Cl
ATOM     14 CL   UNL     1      -0.352  -6.749   0.804  0.00  0.00    -0.083 Cl
ENDBRANCH   5   7
BRANCH   1  20
ATOM     15  C   UNL     1       1.941   3.968  -0.954  0.00  0.00    +0.013 A 
ATOM     16  C   UNL     1       2.011   5.344  -0.995  0.00  0.00    +0.047 A 
ATOM     17  C   UNL     1       1.347   6.106  -0.044  0.00  0.00    +0.129 A 
ATOM     18  C   UNL     1       0.597   5.477   0.960  0.00  0.00    +0.078 A 
ATOM     19  C   UNL     1       0.522   4.085   0.998  0.00  0.00    +0.026 A 
ATOM     20  C   UNL     1       1.193   3.331   0.039  0.00  0.00    -0.000 A 
BRANCH  18  21
ATOM     21  C   UNL     1      -0.111   6.284   1.972  0.00  0.00    +0.245 C 
ATOM     22  O   UNL     1      -0.044   7.498   1.936  0.00  0.00    -0.270 OA
ATOM     23  N   UNL     1      -0.831   5.677   2.935  0.00  0.00    -0.325 N 
ATOM     24  H   UNL     1      -0.884   4.709   2.964  0.00  0.00    +0.145 HD
ATOM     25  H   UNL     1      -1.296   6.208   3.601  0.00  0.00    +0.145 HD
ENDBRANCH  18  21
BRANCH  17  26
ATOM     26  O   UNL     1       1.423   7.460  -0.086  0.00  0.00    -0.506 OA
ATOM     27  H   UNL     1       2.160   7.829   0.420  0.00  0.00    +0.292 HD
ENDBRANCH  17  26
ENDBRANCH   1  20
BRANCH   6  28
ATOM     28  C   UNL     1      -1.334   2.008   0.240  0.00  0.00    +0.156 C 
BRANCH  28  29
ATOM     29  C   UNL     1      -2.193   1.706  -0.989  0.00  0.00    +0.138 C 
ATOM     30  C   UNL     1      -3.449   2.604  -0.984  0.00  0.00    +0.035 C 
ATOM     31  C   UNL     1      -4.549   1.634  -1.495  0.00  0.00    +0.031 C 
ATOM     32  C   UNL     1      -4.069   0.295  -0.882  0.00  0.00    +0.160 C 
ATOM     33  O   UNL     1      -2.635   0.344  -0.951  0.00  0.00    -0.375 OA
ENDBRANCH  28  29
ENDBRANCH   6  28
TORSDOF 6
