REMARK  Name = ZINC02279621
REMARK  8 active torsions:
REMARK  status: ('A' for Active; 'I' for Inactive)
REMARK    1  A    between atoms: C_3  and  C_11
REMARK    2  A    between atoms: C_5  and  C_7
REMARK    3  A    between atoms: C_14  and  C_16
REMARK    4  A    between atoms: C_17  and  C_18
REMARK    5  A    between atoms: C_17  and  N_27
REMARK    6  A    between atoms: N_20  and  C_21
REMARK    7  A    between atoms: C_21  and  C_22
REMARK    8  A    between atoms: C_28  and  C_30
REMARK                            x       y       z     vdW  Elec       q    Type
REMARK                         _______ _______ _______ _____ _____    ______ ____
ROOT
ATOM      1  C   UNL     1       1.540   8.407  -0.560  0.00  0.00    +0.074 C 
ATOM      2  C   UNL     1       2.816   8.272  -0.106  0.00  0.00    +0.100 C 
ENDROOT
BRANCH   1   6
ATOM      3  C   UNL     1       0.289   5.180  -1.423  0.00  0.00    +0.136 A 
ATOM      4  C   UNL     1      -0.755   5.946  -1.858  0.00  0.00    +0.050 A 
ATOM      5  C   UNL     1      -0.427   7.279  -1.592  0.00  0.00    +0.050 A 
ATOM      6  C   UNL     1       0.821   7.271  -0.997  0.00  0.00    +0.131 A 
ATOM      7  O   UNL     1       1.229   5.989  -0.901  0.00  0.00    -0.455 OA
BRANCH   3  10
ATOM      8  C   UNL     1      -0.641   1.597  -2.045  0.00  0.00    +0.001 A 
ATOM      9  C   UNL     1      -0.725   2.971  -1.965  0.00  0.00    +0.011 A 
ATOM     10  C   UNL     1       0.369   3.709  -1.506  0.00  0.00    +0.018 A 
ATOM     11  C   UNL     1       1.539   3.047  -1.125  0.00  0.00    +0.024 A 
ATOM     12  C   UNL     1       1.606   1.672  -1.205  0.00  0.00    +0.055 A 
ATOM     13  C   UNL     1       0.519   0.948  -1.661  0.00  0.00    +0.012 A 
BRANCH  12  14
ATOM     14  C   UNL     1       2.867   0.956  -0.794  0.00  0.00    +0.417 C 
ATOM     15  F   UNL     1       2.697  -0.422  -0.961  0.00  0.00    -0.166 F 
ATOM     16  F   UNL     1       3.932   1.394  -1.589  0.00  0.00    -0.166 F 
ATOM     17  F   UNL     1       3.144   1.232   0.549  0.00  0.00    -0.166 F 
ENDBRANCH  12  14
ENDBRANCH   3  10
ENDBRANCH   1   6
BRANCH   2  18
ATOM     18  C   UNL     1       3.507   9.418   0.488  0.00  0.00    +0.259 C 
ATOM     19  O   UNL     1       2.977  10.514   0.491  0.00  0.00    -0.269 OA
ATOM     20  N   UNL     1       4.731   9.260   1.031  0.00  0.00    -0.303 N 
ATOM     21  H   UNL     1       5.245   8.290   0.955  0.00  0.00    +0.149 HD
BRANCH  20  22
ATOM     22  C   UNL     1       5.376  10.379   1.722  0.00  0.00    +0.179 C 
BRANCH  22  23
ATOM     23  C   UNL     1       6.725   9.944   2.233  0.00  0.00    +0.122 A 
ATOM     24  C   UNL     1       7.887  10.032   1.560  0.00  0.00    +0.046 A 
ATOM     25  C   UNL     1       8.892   9.513   2.409  0.00  0.00    +0.041 A 
ATOM     26  C   UNL     1       8.284   9.138   3.549  0.00  0.00    +0.195 A 
ATOM     27  O   UNL     1       6.972   9.407   3.439  0.00  0.00    -0.466 OA
ENDBRANCH  22  23
ENDBRANCH  20  22
ENDBRANCH   2  18
BRANCH   2  28
ATOM     28  N   UNL     1       3.466   7.037  -0.206  0.00  0.00    -0.277 N 
ATOM     29  C   UNL     1       4.592   6.926  -0.939  0.00  0.00    +0.248 C 
ATOM     30  O   UNL     1       5.082   7.912  -1.453  0.00  0.00    -0.270 OA
ATOM     31  H   UNL     1       3.059   6.157   0.314  0.00  0.00    +0.155 HD
BRANCH  29  32
ATOM     32  C   UNL     1       5.229   5.605  -1.118  0.00  0.00    +0.037 A 
ATOM     33  C   UNL     1       4.749   4.495  -0.420  0.00  0.00    +0.014 A 
ATOM     34  C   UNL     1       5.345   3.263  -0.596  0.00  0.00    +0.021 A 
ATOM     35  C   UNL     1       6.424   3.129  -1.454  0.00  0.00    +0.041 A 
ATOM     36  C   UNL     1       6.909   4.228  -2.144  0.00  0.00    +0.021 A 
ATOM     37  C   UNL     1       6.318   5.463  -1.981  0.00  0.00    +0.014 A 
ATOM     38 CL   UNL     1       7.173   1.577  -1.665  0.00  0.00    -0.084 Cl
ENDBRANCH  29  32
ENDBRANCH   2  28
TORSDOF 8
