REMARK  Name = ZINC15235134
REMARK  12 active torsions:
REMARK  status: ('A' for Active; 'I' for Inactive)
REMARK    1  A    between atoms: C_1  and  C_2
REMARK    2  A    between atoms: C_5  and  C_32
REMARK    3  A    between atoms: C_6  and  O_8
REMARK    4  A    between atoms: O_8  and  C_9
REMARK    5  A    between atoms: C_9  and  C_10
REMARK    6  A    between atoms: C_10  and  C_12
REMARK    7  A    between atoms: C_10  and  O_31
REMARK    8  A    between atoms: C_12  and  N_13
REMARK    9  A    between atoms: C_16  and  C_20
REMARK   10  A    between atoms: C_16  and  C_21
REMARK   11  A    between atoms: C_24  and  O_27
REMARK   12  A    between atoms: O_27  and  C_28
REMARK                            x       y       z     vdW  Elec       q    Type
REMARK                         _______ _______ _______ _____ _____    ______ ____
ROOT
ATOM      1  N   UNL     1       1.304  -0.351  -0.012  0.00  0.00    -0.221 N 
ATOM      2  C   UNL     1       0.002  -0.004   0.002  0.00  0.00    +0.251 C 
ATOM      3  O   UNL     1      -0.954  -0.749   0.008  0.00  0.00    -0.272 OA
ATOM      4  C   UNL     1      -0.018   1.512   0.010  0.00  0.00    +0.135 C 
ATOM      5  N   UNL     1       1.409   1.877  -0.001  0.00  0.00    -0.281 N 
ATOM      6  C   UNL     1       2.101   0.724  -0.014  0.00  0.00    +0.310 C 
ATOM      7  O   UNL     1       3.315   0.665  -0.026  0.00  0.00    -0.252 OA
ATOM      8  C   UNL     1      -0.698   2.034   1.278  0.00  0.00    +0.047 C 
ATOM      9  H   UNL     1       1.777   2.775  -0.000  0.00  0.00    +0.152 HD
ENDROOT
BRANCH   4  10
ATOM     10  C   UNL     1      -0.711   2.039  -1.220  0.00  0.00    -0.015 A 
ATOM     11  C   UNL     1      -1.712   1.298  -1.820  0.00  0.00    +0.010 A 
ATOM     12  C   UNL     1      -2.353   1.782  -2.944  0.00  0.00    +0.046 A 
ATOM     13  C   UNL     1      -1.982   3.008  -3.478  0.00  0.00    +0.127 A 
ATOM     14  C   UNL     1      -0.974   3.747  -2.877  0.00  0.00    +0.046 A 
ATOM     15  C   UNL     1      -0.341   3.261  -1.750  0.00  0.00    +0.010 A 
BRANCH  13  16
ATOM     16  O   UNL     1      -2.606   3.483  -4.588  0.00  0.00    -0.434 OA
BRANCH  16  17
ATOM     17  C   UNL     1      -3.635   2.668  -5.152  0.00  0.00    +0.541 C 
ATOM     18  F   UNL     1      -3.099   1.431  -5.524  0.00  0.00    -0.166 F 
ATOM     19  F   UNL     1      -4.647   2.473  -4.207  0.00  0.00    -0.166 F 
ENDBRANCH  16  17
ENDBRANCH  13  16
ENDBRANCH   4  10
BRANCH   1  20
ATOM     20  C   UNL     1       1.788  -1.734  -0.025  0.00  0.00    +0.152 C 
BRANCH  20  21
ATOM     21  C   UNL     1       1.942  -2.206  -1.472  0.00  0.00    +0.170 C 
BRANCH  21  22
ATOM     22  O   UNL     1       0.678  -2.138  -2.133  0.00  0.00    -0.387 OA
ATOM     23  H   UNL     1      -0.009  -2.684  -1.727  0.00  0.00    +0.210 HD
ENDBRANCH  21  22
BRANCH  21  24
ATOM     24  C   UNL     1       2.447  -3.651  -1.485  0.00  0.00    +0.262 C 
BRANCH  24  25
ATOM     25  O   UNL     1       2.703  -4.053  -2.832  0.00  0.00    -0.489 OA
BRANCH  25  31
ATOM     26  C   UNL     1       4.040  -8.352  -0.946  0.00  0.00    +0.044 C 
ATOM     27  C   UNL     1       3.824  -7.442  -2.128  0.00  0.00    -0.047 A 
ATOM     28  C   UNL     1       4.092  -7.895  -3.407  0.00  0.00    +0.004 A 
ATOM     29  C   UNL     1       3.894  -7.063  -4.493  0.00  0.00    +0.007 A 
ATOM     30  C   UNL     1       3.429  -5.776  -4.303  0.00  0.00    -0.009 A 
ATOM     31  C   UNL     1       3.160  -5.319  -3.022  0.00  0.00    +0.124 A 
ATOM     32  C   UNL     1       3.365  -6.154  -1.933  0.00  0.00    +0.049 A 
ATOM     33  C   UNL     1       3.215  -4.870  -5.488  0.00  0.00    +0.047 C 
ENDBRANCH  25  31
ENDBRANCH  24  25
ENDBRANCH  21  24
ENDBRANCH  20  21
ENDBRANCH   1  20
TORSDOF 9
