REMARK  Name = ZINC23259695
REMARK  9 active torsions:
REMARK  status: ('A' for Active; 'I' for Inactive)
REMARK    1  A    between atoms: C_1  and  C_2
REMARK    2  A    between atoms: C_3  and  N_9
REMARK    3  A    between atoms: C_10  and  C_12
REMARK    4  A    between atoms: C_12  and  N_13
REMARK    5  A    between atoms: N_16  and  C_19
REMARK    6  A    between atoms: C_19  and  C_20
REMARK    7  A    between atoms: N_22  and  C_23
REMARK    8  A    between atoms: C_26  and  O_29
REMARK    9  A    between atoms: O_29  and  C_30
REMARK                            x       y       z     vdW  Elec       q    Type
REMARK                         _______ _______ _______ _____ _____    ______ ____
ROOT
ATOM      1  N   UNL     1       5.655   3.177  -1.155  0.00  0.00    +0.387 N 
ATOM      2  C   UNL     1       5.616   2.595   0.194  0.00  0.00    -0.063 C 
ATOM      3  C   UNL     1       4.610   1.443   0.221  0.00  0.00    +0.066 C 
ATOM      4  N   UNL     1       3.285   1.943  -0.172  0.00  0.00    -0.298 NA
ATOM      5  C   UNL     1       3.324   2.524  -1.521  0.00  0.00    +0.066 C 
ATOM      6  C   UNL     1       4.330   3.677  -1.548  0.00  0.00    -0.063 C 
ATOM      7  H   UNL     1       5.941   2.382  -1.860  0.00  0.00    -0.081 HD
ENDROOT
BRANCH   1   8
ATOM      8  C   UNL     1       6.666   4.239  -1.242  0.00  0.00    +0.019 C 
BRANCH   8  10
ATOM      9  N   UNL     1       9.133   4.416  -1.236  0.00  0.00    -0.287 N 
ATOM     10  C   UNL     1       8.041   3.636  -1.113  0.00  0.00    +0.201 C 
ATOM     11  O   UNL     1       8.164   2.449  -0.898  0.00  0.00    -0.278 OA
ATOM     12  H   UNL     1       9.021   5.502  -1.369  0.00  0.00    +0.155 HD
BRANCH   9  15
ATOM     13  C   UNL     1      11.252   5.760  -2.578  0.00  0.00    +0.047 C 
ATOM     14  C   UNL     1      11.472   4.466  -1.837  0.00  0.00    -0.011 A 
ATOM     15  C   UNL     1      10.409   3.844  -1.195  0.00  0.00    +0.038 A 
ATOM     16  C   UNL     1      10.615   2.649  -0.517  0.00  0.00    +0.023 A 
ATOM     17  C   UNL     1      11.876   2.086  -0.479  0.00  0.00    +0.003 A 
ATOM     18  C   UNL     1      12.933   2.711  -1.113  0.00  0.00    +0.020 A 
ATOM     19  C   UNL     1      12.732   3.902  -1.789  0.00  0.00    +0.046 A 
ATOM     20 CL   UNL     1      14.063   4.683  -2.584  0.00  0.00    -0.083 Cl
ENDBRANCH   9  15
ENDBRANCH   8  10
ENDBRANCH   1   8
BRANCH   4  21
ATOM     21  C   UNL     1       2.274   0.880  -0.085  0.00  0.00    +0.180 C 
BRANCH  21  22
ATOM     22  C   UNL     1       0.901   1.479  -0.254  0.00  0.00    +0.231 C 
ATOM     23  O   UNL     1       0.777   2.672  -0.429  0.00  0.00    -0.274 OA
ATOM     24  N   UNL     1      -0.189   0.687  -0.210  0.00  0.00    -0.284 N 
ATOM     25  H   UNL     1      -0.073  -0.404  -0.131  0.00  0.00    +0.155 HD
BRANCH  24  26
ATOM     26  C   UNL     1      -1.469   1.254  -0.264  0.00  0.00    +0.034 A 
ATOM     27  C   UNL     1      -1.678   2.543   0.207  0.00  0.00    +0.027 A 
ATOM     28  C   UNL     1      -2.939   3.103   0.148  0.00  0.00    +0.048 A 
ATOM     29  C   UNL     1      -3.999   2.373  -0.371  0.00  0.00    +0.130 A 
ATOM     30  C   UNL     1      -3.791   1.083  -0.837  0.00  0.00    +0.048 A 
ATOM     31  C   UNL     1      -2.530   0.524  -0.784  0.00  0.00    +0.027 A 
BRANCH  29  32
ATOM     32  O   UNL     1      -5.241   2.923  -0.423  0.00  0.00    -0.406 OA
BRANCH  32  33
ATOM     33  C   UNL     1      -5.383   4.255   0.075  0.00  0.00    +0.575 C 
ATOM     34  F   UNL     1      -4.560   5.117  -0.658  0.00  0.00    -0.133 F 
ATOM     35  F   UNL     1      -6.715   4.662  -0.053  0.00  0.00    -0.133 F 
ATOM     36  F   UNL     1      -5.012   4.291   1.423  0.00  0.00    -0.133 F 
ENDBRANCH  32  33
ENDBRANCH  29  32
ENDBRANCH  24  26
ENDBRANCH  21  22
ENDBRANCH   4  21
TORSDOF 8
