REMARK  Name = ZINC39836488
REMARK  9 active torsions:
REMARK  status: ('A' for Active; 'I' for Inactive)
REMARK    1  A    between atoms: C_1  and  C_2
REMARK    2  A    between atoms: C_2  and  C_3
REMARK    3  A    between atoms: C_2  and  C_4
REMARK    4  A    between atoms: C_2  and  C_5
REMARK    5  A    between atoms: C_12  and  N_25
REMARK    6  A    between atoms: C_13  and  C_14
REMARK    7  A    between atoms: N_16  and  C_17
REMARK    8  A    between atoms: C_26  and  C_28
REMARK    9  A    between atoms: C_33  and  N_34
REMARK                            x       y       z     vdW  Elec       q    Type
REMARK                         _______ _______ _______ _____ _____    ______ ____
ROOT
ATOM      1  C   UNL     1       2.082  -1.042   0.170  0.00  0.00    -0.000 C 
ATOM      2  C   UNL     1       1.044  -0.915  -0.950  0.00  0.00    +0.009 C 
ATOM      3  C   UNL     1       1.518  -1.679  -2.188  0.00  0.00    +0.037 C 
ATOM      4  C   UNL     1       2.930  -1.224  -2.530  0.00  0.00    -0.023 A 
ATOM      5  C   UNL     1       3.700  -0.584  -1.624  0.00  0.00    -0.004 A 
ATOM      6  S   UNL     1       5.219  -0.265  -2.472  0.00  0.00    -0.077 S 
ATOM      7  C   UNL     1       4.863  -0.946  -3.965  0.00  0.00    +0.085 A 
ATOM      8  C   UNL     1       3.570  -1.423  -3.819  0.00  0.00    +0.069 A 
ATOM      9  C   UNL     1       3.331  -0.236  -0.214  0.00  0.00    +0.046 C 
ENDROOT
BRANCH   1  11
ATOM     10  C   UNL     1       1.123   0.978   1.284  0.00  0.00    +0.011 C 
ATOM     11  C   UNL     1       1.498  -0.493   1.473  0.00  0.00    -0.035 C 
ATOM     12  C   UNL     1       2.539  -0.614   2.588  0.00  0.00    +0.011 C 
ATOM     13  C   UNL     1       0.250  -1.293   1.851  0.00  0.00    +0.011 C 
ENDBRANCH   1  11
BRANCH   8  14
ATOM     14  C   UNL     1       2.877  -2.102  -4.919  0.00  0.00    +0.247 C 
ATOM     15  O   UNL     1       2.210  -1.458  -5.707  0.00  0.00    -0.270 OA
ATOM     16  N   UNL     1       2.979  -3.438  -5.057  0.00  0.00    -0.307 N 
ATOM     17  H   UNL     1       3.511  -3.952  -4.428  0.00  0.00    +0.149 HD
BRANCH  16  18
ATOM     18  C   UNL     1       2.287  -4.116  -6.156  0.00  0.00    +0.096 C 
ATOM     19  C   UNL     1       0.847  -4.452  -5.735  0.00  0.00    +0.046 C 
ATOM     20  C   UNL     1       0.217  -5.437  -6.748  0.00  0.00    +0.168 C 
ATOM     21  S   UNL     1       1.681  -6.345  -7.393  0.00  0.00    -0.029 S 
ATOM     22  O   UNL     1       1.808  -6.087  -8.784  0.00  0.00    -0.174 OA
ATOM     23  O   UNL     1       1.632  -7.688  -6.932  0.00  0.00    -0.174 OA
ATOM     24  C   UNL     1       3.015  -5.449  -6.493  0.00  0.00    +0.188 C 
ENDBRANCH  16  18
ENDBRANCH   8  14
BRANCH   7  25
ATOM     25  N   UNL     1       5.675  -1.014  -5.085  0.00  0.00    -0.275 N 
ATOM     26  C   UNL     1       6.917  -0.492  -5.051  0.00  0.00    +0.251 C 
ATOM     27  O   UNL     1       7.325   0.038  -4.036  0.00  0.00    -0.270 OA
ATOM     28  H   UNL     1       5.349  -1.437  -5.895  0.00  0.00    +0.156 HD
BRANCH  26  29
ATOM     29  C   UNL     1       7.783  -0.565  -6.246  0.00  0.00    +0.067 A 
ATOM     30  C   UNL     1       8.043  -1.797  -6.849  0.00  0.00    +0.015 A 
ATOM     31  C   UNL     1       8.852  -1.858  -7.965  0.00  0.00    +0.001 A 
ATOM     32  C   UNL     1       9.406  -0.701  -8.486  0.00  0.00    +0.002 A 
ATOM     33  C   UNL     1       9.152   0.522  -7.893  0.00  0.00    +0.033 A 
ATOM     34  C   UNL     1       8.340   0.598  -6.780  0.00  0.00    +0.138 A 
BRANCH  34  35
ATOM     35  N   UNL     1       8.064   1.909  -6.150  0.00  0.00    +0.057 N 
ATOM     36  O   UNL     1       8.643   2.898  -6.536  0.00  0.00    -0.126 OA
ATOM     37  O   UNL     1       7.261   1.991  -5.251  0.00  0.00    -0.126 OA
ENDBRANCH  34  35
ENDBRANCH  26  29
ENDBRANCH   7  25
TORSDOF 6
