REMARK  Name = ZINC19683371
REMARK  6 active torsions:
REMARK  status: ('A' for Active; 'I' for Inactive)
REMARK    1  A    between atoms: C_4  and  C_7
REMARK    2  A    between atoms: C_7  and  N_8
REMARK    3  A    between atoms: C_9  and  C_11
REMARK    4  A    between atoms: C_16  and  O_17
REMARK    5  A    between atoms: O_17  and  S_18
REMARK    6  A    between atoms: S_18  and  C_21
REMARK                            x       y       z     vdW  Elec       q    Type
REMARK                         _______ _______ _______ _____ _____    ______ ____
ROOT
ATOM      1  C   UNL     1       3.274   5.220   2.051  0.00  0.00    +0.081 A 
ATOM      2  C   UNL     1       4.511   5.076   2.683  0.00  0.00    +0.017 A 
ATOM      3  C   UNL     1       4.821   3.898   3.328  0.00  0.00    +0.001 A 
ATOM      4  C   UNL     1       3.910   2.854   3.352  0.00  0.00    +0.004 A 
ATOM      5  C   UNL     1       2.682   2.985   2.735  0.00  0.00    +0.049 A 
ATOM      6  C   UNL     1       2.356   4.161   2.077  0.00  0.00    +0.169 A 
ENDROOT
BRANCH   1   8
ATOM      7  N   UNL     1       3.822   7.493   1.336  0.00  0.00    -0.307 N 
ATOM      8  C   UNL     1       2.936   6.478   1.359  0.00  0.00    +0.248 C 
ATOM      9  O   UNL     1       1.858   6.599   0.810  0.00  0.00    -0.270 OA
ATOM     10  H   UNL     1       4.797   7.383   1.833  0.00  0.00    +0.149 HD
BRANCH   7  11
ATOM     11  C   UNL     1       3.486   8.743   0.649  0.00  0.00    +0.139 C 
BRANCH  11  15
ATOM     12  C   UNL     1       6.750  11.477   0.992  0.00  0.00    +0.000 A 
ATOM     13  C   UNL     1       6.690  10.604  -0.078  0.00  0.00    +0.000 A 
ATOM     14  C   UNL     1       5.634   9.719  -0.188  0.00  0.00    +0.005 A 
ATOM     15  C   UNL     1       4.638   9.708   0.770  0.00  0.00    -0.030 A 
ATOM     16  C   UNL     1       4.695  10.585   1.837  0.00  0.00    +0.005 A 
ATOM     17  C   UNL     1       5.755  11.466   1.950  0.00  0.00    +0.000 A 
ENDBRANCH  11  15
ENDBRANCH   7  11
ENDBRANCH   1   8
BRANCH   6  18
ATOM     18  O   UNL     1       1.151   4.289   1.467  0.00  0.00    -0.342 OA
BRANCH  18  19
ATOM     19  S   UNL     1       1.144   3.847   0.011  0.00  0.00    +0.151 S 
ATOM     20  O   UNL     1       2.378   4.275  -0.549  0.00  0.00    -0.131 OA
ATOM     21  O   UNL     1      -0.112   4.236  -0.526  0.00  0.00    -0.131 OA
BRANCH  19  22
ATOM     22  C   UNL     1       1.171   2.085   0.002  0.00  0.00    +0.128 A 
ATOM     23  C   UNL     1       2.380   1.413  -0.014  0.00  0.00    +0.032 A 
ATOM     24  C   UNL     1       2.405   0.033  -0.021  0.00  0.00    +0.025 A 
ATOM     25  C   UNL     1       1.214  -0.681  -0.014  0.00  0.00    +0.037 A 
ATOM     26  C   UNL     1       0.002  -0.004   0.002  0.00  0.00    -0.024 A 
ATOM     27  C   UNL     1      -0.017   1.377   0.010  0.00  0.00    +0.036 A 
ATOM     28  C   UNL     1      -1.290  -0.779   0.011  0.00  0.00    +0.046 C 
ATOM     29  C   UNL     1      -1.121  -2.063  -0.802  0.00  0.00    +0.101 C 
ATOM     30  C   UNL     1       0.137  -2.774  -0.383  0.00  0.00    +0.218 C 
ATOM     31  O   UNL     1       0.166  -3.986  -0.370  0.00  0.00    -0.275 OA
ATOM     32  N   UNL     1       1.232  -2.079  -0.022  0.00  0.00    -0.285 N 
ATOM     33  H   UNL     1       2.146  -2.619   0.268  0.00  0.00    +0.155 HD
ENDBRANCH  19  22
ENDBRANCH  18  19
ENDBRANCH   6  18
TORSDOF 6
