REMARK  Name = ZINC64870527
REMARK  7 active torsions:
REMARK  status: ('A' for Active; 'I' for Inactive)
REMARK    1  A    between atoms: C_1  and  C_2
REMARK    2  A    between atoms: C_2  and  C_3
REMARK    3  A    between atoms: C_3  and  C_4
REMARK    4  A    between atoms: C_4  and  N_5
REMARK    5  A    between atoms: C_11  and  C_18
REMARK    6  A    between atoms: C_21  and  C_25
REMARK    7  A    between atoms: C_28  and  C_31
REMARK                            x       y       z     vdW  Elec       q    Type
REMARK                         _______ _______ _______ _____ _____    ______ ____
ROOT
ATOM      1  N   UNL     1      -2.832  -2.450   0.022  0.00  0.00    -0.261 N 
ATOM      2  C   UNL     1      -3.400  -2.799   1.197  0.00  0.00    +0.264 A 
ATOM      3  O   UNL     1      -2.788  -2.692   2.242  0.00  0.00    -0.267 OA
ATOM      4  C   UNL     1      -4.781  -3.312   1.179  0.00  0.00    +0.063 A 
ATOM      5  C   UNL     1      -5.437  -3.692   2.348  0.00  0.00    +0.016 A 
ATOM      6  C   UNL     1      -6.730  -4.166   2.278  0.00  0.00    +0.008 A 
ATOM      7  C   UNL     1      -7.376  -4.266   1.055  0.00  0.00    -0.000 A 
ATOM      8  C   UNL     1      -6.738  -3.892  -0.110  0.00  0.00    +0.034 A 
ATOM      9  C   UNL     1      -5.438  -3.413  -0.060  0.00  0.00    +0.056 A 
ATOM     10  N   UNL     1      -4.760  -3.027  -1.208  0.00  0.00    -0.307 N 
ATOM     11  H   UNL     1      -5.201  -3.090  -2.070  0.00  0.00    +0.170 HD
ATOM     12  C   UNL     1      -3.502  -2.560  -1.136  0.00  0.00    +0.330 A 
ATOM     13  O   UNL     1      -2.945  -2.228  -2.164  0.00  0.00    -0.246 OA
ENDROOT
BRANCH   7  14
ATOM     14  C   UNL     1      -8.789  -4.787   0.998  0.00  0.00    +0.242 C 
ATOM     15  N   UNL     1      -8.871  -5.915   0.044  0.00  0.00    -0.265 NA
ATOM     16  C   UNL     1     -10.190  -5.733  -0.619  0.00  0.00    +0.180 C 
ATOM     17  N   UNL     1     -10.288  -4.252  -0.724  0.00  0.00    -0.177 NA
ATOM     18  O   UNL     1      -9.670  -3.758   0.523  0.00  0.00    -0.274 OA
ATOM     19  H   UNL     1      -8.120  -5.876  -0.628  0.00  0.00    +0.127 HD
ATOM     20  H   UNL     1      -9.790  -3.914  -1.534  0.00  0.00    +0.156 HD
BRANCH  16  21
ATOM     21  C   UNL     1     -10.198  -6.374  -1.983  0.00  0.00    -0.014 A 
ATOM     22  C   UNL     1      -9.417  -7.487  -2.228  0.00  0.00    +0.007 A 
ATOM     23  C   UNL     1      -9.425  -8.075  -3.479  0.00  0.00    +0.004 A 
ATOM     24  C   UNL     1     -10.213  -7.549  -4.485  0.00  0.00    -0.050 A 
ATOM     25  C   UNL     1     -10.995  -6.436  -4.240  0.00  0.00    +0.004 A 
ATOM     26  C   UNL     1     -10.991  -5.851  -2.987  0.00  0.00    +0.007 A 
ATOM     27  C   UNL     1     -10.221  -8.190  -5.849  0.00  0.00    +0.044 C 
ENDBRANCH  16  21
ENDBRANCH   7  14
BRANCH   1  28
ATOM     28  C   UNL     1      -1.460  -1.937   0.012  0.00  0.00    +0.130 C 
BRANCH  28  29
ATOM     29  C   UNL     1      -1.483  -0.415   0.171  0.00  0.00    +0.022 C 
BRANCH  29  31
ATOM     30  C   UNL     1      -0.074   1.643   0.320  0.00  0.00    +0.004 C 
ATOM     31  C   UNL     1      -0.051   0.121   0.161  0.00  0.00    -0.002 C 
ENDBRANCH  29  31
ENDBRANCH  28  29
ENDBRANCH   1  28
TORSDOF 5
