REMARK  Name = ZINC50256783
REMARK  4 active torsions:
REMARK  status: ('A' for Active; 'I' for Inactive)
REMARK    1  A    between atoms: C_3  and  C_10
REMARK    2  A    between atoms: C_5  and  N_7
REMARK    3  A    between atoms: C_12  and  C_15
REMARK    4  A    between atoms: N_17  and  C_18
REMARK                            x       y       z     vdW  Elec       q    Type
REMARK                         _______ _______ _______ _____ _____    ______ ____
ROOT
ATOM      1  C   UNL     1       3.659   2.161  -0.055  0.00  0.00    +0.109 A 
ATOM      2  N   UNL     1       3.853   3.467  -0.034  0.00  0.00    -0.234 NA
ATOM      3  C   UNL     1       5.098   3.921  -0.041  0.00  0.00    +0.133 A 
ATOM      4  C   UNL     1       6.134   3.024  -0.069  0.00  0.00    +0.080 A 
ATOM      5  S   UNL     1       5.332   1.544  -0.079  0.00  0.00    -0.075 S 
ENDROOT
BRANCH   1   8
ATOM      6  C   UNL     1      -0.015   1.378  -0.031  0.00  0.00    +0.003 A 
ATOM      7  C   UNL     1       1.169   2.087  -0.033  0.00  0.00    +0.011 A 
ATOM      8  C   UNL     1       2.386   1.407  -0.053  0.00  0.00    +0.009 A 
ATOM      9  C   UNL     1       2.399   0.011  -0.072  0.00  0.00    +0.043 A 
ATOM     10  C   UNL     1       1.208  -0.686  -0.070  0.00  0.00    +0.127 A 
ATOM     11  C   UNL     1       0.004  -0.005  -0.050  0.00  0.00    +0.033 A 
BRANCH  10  12
ATOM     12  N   UNL     1       1.220  -2.166  -0.091  0.00  0.00    +0.056 N 
ATOM     13  O   UNL     1       2.272  -2.762  -0.108  0.00  0.00    -0.126 OA
ATOM     14  O   UNL     1       0.178  -2.779  -0.089  0.00  0.00    -0.126 OA
ENDBRANCH  10  12
ENDBRANCH   1   8
BRANCH   3  15
ATOM     15  C   UNL     1       5.365   5.369  -0.019  0.00  0.00    +0.267 C 
ATOM     16  O   UNL     1       6.512   5.777  -0.026  0.00  0.00    -0.268 OA
ATOM     17  N   UNL     1       4.340   6.243   0.009  0.00  0.00    -0.278 N 
ATOM     18  H   UNL     1       3.427   5.922  -0.051  0.00  0.00    +0.155 HD
BRANCH  17  19
ATOM     19  C   UNL     1       4.593   7.616   0.124  0.00  0.00    +0.072 A 
ATOM     20  C   UNL     1       5.716   8.169  -0.476  0.00  0.00    +0.029 A 
ATOM     21  C   UNL     1       5.964   9.524  -0.362  0.00  0.00    +0.043 A 
ATOM     22  C   UNL     1       5.095  10.332   0.350  0.00  0.00    +0.161 A 
ATOM     23  C   UNL     1       3.972   9.784   0.951  0.00  0.00    +0.195 A 
ATOM     24  C   UNL     1       3.716   8.428   0.835  0.00  0.00    +0.182 A 
ATOM     25  F   UNL     1       2.619   7.894   1.415  0.00  0.00    -0.200 F 
ATOM     26  F   UNL     1       3.125  10.574   1.647  0.00  0.00    -0.199 F 
ATOM     27  F   UNL     1       5.341  11.655   0.460  0.00  0.00    -0.202 F 
ENDBRANCH  17  19
ENDBRANCH   3  15
TORSDOF 4
