REMARK  Name = ZINC41022310
REMARK  8 active torsions:
REMARK  status: ('A' for Active; 'I' for Inactive)
REMARK    1  A    between atoms: C_4  and  C_7
REMARK    2  A    between atoms: C_7  and  N_8
REMARK    3  A    between atoms: C_9  and  C_11
REMARK    4  A    between atoms: C_15  and  N_16
REMARK    5  A    between atoms: C_17  and  C_19
REMARK    6  A    between atoms: C_19  and  C_20
REMARK    7  A    between atoms: C_20  and  C_21
REMARK    8  A    between atoms: C_24  and  C_26
REMARK                            x       y       z     vdW  Elec       q    Type
REMARK                         _______ _______ _______ _____ _____    ______ ____
ROOT
ATOM      1  C   UNL     1       5.752  -1.846   2.945  0.00  0.00    +0.069 A 
ATOM      2  C   UNL     1       5.379  -3.057   3.655  0.00  0.00    -0.023 A 
ATOM      3  C   UNL     1       5.864  -3.132   4.913  0.00  0.00    -0.004 A 
ATOM      4  S   UNL     1       6.784  -1.637   5.129  0.00  0.00    -0.077 S 
ATOM      5  C   UNL     1       6.547  -0.935   3.622  0.00  0.00    +0.084 A 
ATOM      6  C   UNL     1       5.657  -4.246   5.892  0.00  0.00    +0.043 C 
ATOM      7  C   UNL     1       4.497  -5.120   5.390  0.00  0.00    +0.005 C 
ATOM      8  C   UNL     1       4.720  -5.435   3.908  0.00  0.00    +0.005 C 
ATOM      9  C   UNL     1       4.519  -4.169   3.071  0.00  0.00    +0.037 C 
ENDROOT
BRANCH   1  11
ATOM     10  N   UNL     1       4.152  -0.952   1.338  0.00  0.00    -0.307 N 
ATOM     11  C   UNL     1       5.311  -1.601   1.569  0.00  0.00    +0.247 C 
ATOM     12  O   UNL     1       5.991  -1.982   0.635  0.00  0.00    -0.270 OA
ATOM     13  H   UNL     1       3.610  -0.648   2.082  0.00  0.00    +0.149 HD
BRANCH  10  14
ATOM     14  C   UNL     1       3.711  -0.707  -0.038  0.00  0.00    +0.139 C 
BRANCH  14  18
ATOM     15  C   UNL     1      -0.017   1.378   0.010  0.00  0.00    +0.000 A 
ATOM     16  C   UNL     1       1.171   2.086   0.002  0.00  0.00    +0.000 A 
ATOM     17  C   UNL     1       2.377   1.411  -0.013  0.00  0.00    +0.005 A 
ATOM     18  C   UNL     1       2.396   0.029  -0.020  0.00  0.00    -0.030 A 
ATOM     19  C   UNL     1       1.208  -0.679  -0.012  0.00  0.00    +0.005 A 
ATOM     20  C   UNL     1       0.002  -0.004   0.002  0.00  0.00    +0.000 A 
ENDBRANCH  14  18
ENDBRANCH  10  14
ENDBRANCH   1  11
BRANCH   5  21
ATOM     21  N   UNL     1       7.034   0.279   3.162  0.00  0.00    -0.279 N 
ATOM     22  C   UNL     1       7.800   1.046   3.963  0.00  0.00    +0.218 C 
ATOM     23  O   UNL     1       8.064   0.674   5.087  0.00  0.00    -0.275 OA
ATOM     24  H   UNL     1       6.822   0.577   2.263  0.00  0.00    +0.155 HD
BRANCH  22  25
ATOM     25  C   UNL     1       8.329   2.365   3.462  0.00  0.00    +0.105 C 
BRANCH  25  26
ATOM     26  C   UNL     1       9.162   3.030   4.559  0.00  0.00    +0.105 C 
BRANCH  26  27
ATOM     27  C   UNL     1       9.691   4.349   4.059  0.00  0.00    +0.197 A 
ATOM     28  N   UNL     1       9.090   5.500   4.178  0.00  0.00    -0.221 NA
ATOM     29  C   UNL     1       9.854   6.450   3.618  0.00  0.00    +0.161 A 
ATOM     30  C   UNL     1      10.970   5.845   3.137  0.00  0.00    +0.155 A 
ATOM     31  O   UNL     1      10.858   4.530   3.425  0.00  0.00    -0.440 OA
BRANCH  30  32
ATOM     32  C   UNL     1      12.096   6.501   2.438  0.00  0.00    +0.019 A 
ATOM     33  C   UNL     1      13.181   5.744   1.993  0.00  0.00    +0.014 A 
ATOM     34  C   UNL     1      14.228   6.361   1.341  0.00  0.00    +0.039 A 
ATOM     35  C   UNL     1      14.205   7.730   1.128  0.00  0.00    +0.123 A 
ATOM     36  C   UNL     1      13.131   8.486   1.569  0.00  0.00    +0.039 A 
ATOM     37  C   UNL     1      12.075   7.879   2.216  0.00  0.00    +0.014 A 
ATOM     38  F   UNL     1      15.233   8.329   0.489  0.00  0.00    -0.205 F 
ENDBRANCH  30  32
ENDBRANCH  26  27
ENDBRANCH  25  26
ENDBRANCH  22  25
ENDBRANCH   5  21
TORSDOF 8
