REMARK  Name = ZINC28052317
REMARK  5 active torsions:
REMARK  status: ('A' for Active; 'I' for Inactive)
REMARK    1  A    between atoms: C_1  and  C_2
REMARK    2  A    between atoms: C_10  and  C_12
REMARK    3  A    between atoms: C_15  and  N_18
REMARK    4  A    between atoms: C_19  and  C_21
REMARK    5  A    between atoms: C_25  and  C_28
REMARK                            x       y       z     vdW  Elec       q    Type
REMARK                         _______ _______ _______ _____ _____    ______ ____
ROOT
ATOM      1  C   UNL     1       2.033  -2.144   0.190  0.00  0.00    +0.069 C 
ATOM      2  C   UNL     1       1.434  -0.762   0.151  0.00  0.00    +0.087 A 
ATOM      3  C   UNL     1       2.121   0.445   0.059  0.00  0.00    +0.049 A 
ATOM      4  C   UNL     1       1.138   1.401   0.059  0.00  0.00    +0.226 A 
ATOM      5  O   UNL     1      -0.016   0.748   0.144  0.00  0.00    -0.339 OA
ATOM      6  N   UNL     1       0.161  -0.454   0.196  0.00  0.00    -0.081 NA
ATOM      7  N   UNL     1       1.447   2.743  -0.016  0.00  0.00    -0.286 N 
ATOM      8  C   UNL     1       2.749   3.132   0.198  0.00  0.00    +0.019 C 
ATOM      9  C   UNL     1       3.775   2.255   0.213  0.00  0.00    +0.024 C 
ATOM     10  C   UNL     1       3.577   0.773  -0.029  0.00  0.00    +0.091 C 
ATOM     11  C   UNL     1       5.091   2.687   0.460  0.00  0.00    +0.162 C 
ATOM     12  O   UNL     1       5.994   1.874   0.450  0.00  0.00    -0.292 OA
ATOM     13  C   UNL     1       5.406   4.130   0.738  0.00  0.00    +0.088 C 
ATOM     14  C   UNL     1       4.179   4.793   1.371  0.00  0.00    +0.032 C 
ATOM     15  C   UNL     1       2.990   4.607   0.426  0.00  0.00    +0.059 C 
ATOM     16  H   UNL     1       0.660   3.477  -0.243  0.00  0.00    +0.155 HD
ENDROOT
BRANCH  14  17
ATOM     17  C   UNL     1       4.442   6.264   1.572  0.00  0.00    -0.043 A 
ATOM     18  C   UNL     1       4.735   7.067   0.486  0.00  0.00    +0.005 A 
ATOM     19  C   UNL     1       4.971   8.417   0.668  0.00  0.00    +0.020 A 
ATOM     20  C   UNL     1       4.926   8.961   1.940  0.00  0.00    +0.041 A 
ATOM     21  C   UNL     1       4.639   8.155   3.027  0.00  0.00    +0.020 A 
ATOM     22  C   UNL     1       4.397   6.807   2.842  0.00  0.00    +0.005 A 
ATOM     23 CL   UNL     1       5.231  10.655   2.171  0.00  0.00    -0.084 Cl
ENDBRANCH  14  17
BRANCH  10  24
ATOM     24  C   UNL     1       4.092   0.414  -1.399  0.00  0.00    -0.035 A 
ATOM     25  C   UNL     1       3.543   1.009  -2.520  0.00  0.00    +0.006 A 
ATOM     26  C   UNL     1       4.015   0.686  -3.777  0.00  0.00    +0.023 A 
ATOM     27  C   UNL     1       5.036  -0.245  -3.915  0.00  0.00    +0.033 A 
ATOM     28  C   UNL     1       5.582  -0.845  -2.788  0.00  0.00    +0.023 A 
ATOM     29  C   UNL     1       5.109  -0.514  -1.533  0.00  0.00    +0.006 A 
BRANCH  27  30
ATOM     30  N   UNL     1       5.513  -0.579  -5.187  0.00  0.00    -0.286 N 
ATOM     31  C   UNL     1       5.945  -1.831  -5.438  0.00  0.00    +0.214 C 
ATOM     32  O   UNL     1       5.832  -2.692  -4.592  0.00  0.00    -0.276 OA
ATOM     33  C   UNL     1       6.569  -2.160  -6.770  0.00  0.00    +0.109 C 
ATOM     34  H   UNL     1       5.536   0.181  -5.983  0.00  0.00    +0.155 HD
ENDBRANCH  27  30
ENDBRANCH  10  24
TORSDOF 3
