REMARK  Name = ZINC39688589
REMARK  7 active torsions:
REMARK  status: ('A' for Active; 'I' for Inactive)
REMARK    1  A    between atoms: C_1  and  C_2
REMARK    2  A    between atoms: C_6  and  C_9
REMARK    3  A    between atoms: C_13  and  C_22
REMARK    4  A    between atoms: N_24  and  C_25
REMARK    5  A    between atoms: C_25  and  C_27
REMARK    6  A    between atoms: C_25  and  C_28
REMARK    7  A    between atoms: C_28  and  C_29
REMARK                            x       y       z     vdW  Elec       q    Type
REMARK                         _______ _______ _______ _____ _____    ______ ____
ROOT
ATOM      1  C   UNL     1      -0.226  -2.418   2.137  0.00  0.00    +0.251 C 
ATOM      2  O   UNL     1       0.910  -2.567   2.542  0.00  0.00    -0.270 OA
ATOM      3  N   UNL     1      -1.262  -2.927   2.833  0.00  0.00    -0.296 N 
ATOM      4  C   UNL     1      -2.704  -2.855   2.499  0.00  0.00    +0.121 C 
ATOM      5  C   UNL     1      -3.264  -4.243   2.883  0.00  0.00    +0.100 C 
ATOM      6  C   UNL     1      -2.284  -4.782   3.939  0.00  0.00    -0.004 C 
ATOM      7  C   UNL     1      -1.215  -3.692   4.103  0.00  0.00    +0.115 C 
ATOM      8  C   UNL     1      -3.009  -5.016   5.262  0.00  0.00    -0.010 C 
ATOM      9  C   UNL     1      -2.028  -5.606   6.279  0.00  0.00    -0.082 C 
ATOM     10  N   UNL     1      -1.488  -6.870   5.764  0.00  0.00    +0.379 N 
ATOM     11  C   UNL     1      -0.714  -6.623   4.541  0.00  0.00    -0.082 C 
ATOM     12  C   UNL     1      -1.639  -6.076   3.451  0.00  0.00    -0.010 C 
ATOM     13  H   UNL     1      -0.889  -7.287   6.460  0.00  0.00    -0.086 HD
ATOM     14  H   UNL     1      -2.249  -7.500   5.557  0.00  0.00    -0.086 HD
ENDROOT
BRANCH   1  20
ATOM     15  C   UNL     1      -1.129   1.877  -0.245  0.00  0.00    +0.047 C 
ATOM     16  C   UNL     1      -0.907   0.387  -0.271  0.00  0.00    -0.014 A 
ATOM     17  C   UNL     1      -0.933  -0.294  -1.474  0.00  0.00    +0.007 A 
ATOM     18  C   UNL     1      -0.731  -1.663  -1.508  0.00  0.00    +0.021 A 
ATOM     19  C   UNL     1      -0.501  -2.360  -0.339  0.00  0.00    +0.056 A 
ATOM     20  C   UNL     1      -0.471  -1.680   0.882  0.00  0.00    +0.091 A 
ATOM     21  C   UNL     1      -0.671  -0.296   0.908  0.00  0.00    +0.140 A 
ATOM     22  F   UNL     1      -0.640   0.371   2.083  0.00  0.00    -0.204 F 
ATOM     23 CL   UNL     1      -0.248  -4.077  -0.385  0.00  0.00    -0.083 Cl
ENDBRANCH   1  20
BRANCH   5  24
ATOM     24  C   UNL     1      -3.292  -5.149   1.680  0.00  0.00    +0.218 C 
ATOM     25  O   UNL     1      -2.423  -5.067   0.838  0.00  0.00    -0.275 OA
ATOM     26  N   UNL     1      -4.283  -6.051   1.538  0.00  0.00    -0.312 N 
ATOM     27  H   UNL     1      -4.979  -6.117   2.212  0.00  0.00    +0.149 HD
BRANCH  26  28
ATOM     28  C   UNL     1      -4.311  -6.933   0.368  0.00  0.00    +0.074 C 
ATOM     29  C   UNL     1      -4.998  -6.214  -0.795  0.00  0.00    +0.028 C 
BRANCH  28  30
ATOM     30  C   UNL     1      -5.085  -8.208   0.708  0.00  0.00    +0.057 C 
BRANCH  30  31
ATOM     31  C   UNL     1      -4.343  -8.978   1.770  0.00  0.00    -0.045 A 
ATOM     32  C   UNL     1      -3.397  -9.919   1.407  0.00  0.00    +0.006 A 
ATOM     33  C   UNL     1      -2.715 -10.625   2.379  0.00  0.00    +0.038 A 
ATOM     34  C   UNL     1      -2.980 -10.391   3.718  0.00  0.00    +0.123 A 
ATOM     35  C   UNL     1      -3.927  -9.448   4.081  0.00  0.00    +0.038 A 
ATOM     36  C   UNL     1      -4.604  -8.739   3.106  0.00  0.00    +0.006 A 
ATOM     37  F   UNL     1      -2.314 -11.081   4.670  0.00  0.00    -0.205 F 
ENDBRANCH  30  31
ENDBRANCH  28  30
ENDBRANCH  26  28
ENDBRANCH   5  24
TORSDOF 5
