REMARK  Name = ZINC02829354
REMARK  6 active torsions:
REMARK  status: ('A' for Active; 'I' for Inactive)
REMARK    1  A    between atoms: C_3  and  N_9
REMARK    2  A    between atoms: C_6  and  C_7
REMARK    3  A    between atoms: N_9  and  C_10
REMARK    4  A    between atoms: C_10  and  N_12
REMARK    5  A    between atoms: C_13  and  C_15
REMARK    6  A    between atoms: C_18  and  N_22
REMARK                            x       y       z     vdW  Elec       q    Type
REMARK                         _______ _______ _______ _____ _____    ______ ____
ROOT
ATOM      1  N   UNL     1       1.117   2.467  -0.264  0.00  0.00    -0.264 N 
ATOM      2  C   UNL     1       2.287   1.858  -0.539  0.00  0.00    +0.251 C 
ATOM      3  O   UNL     1       2.311   0.666  -0.775  0.00  0.00    -0.270 OA
ATOM      4  H   UNL     1       1.099   3.419  -0.076  0.00  0.00    +0.157 HD
ENDROOT
BRANCH   2   5
ATOM      5  C   UNL     1       3.541   2.639  -0.555  0.00  0.00    +0.055 A 
ATOM      6  C   UNL     1       3.518   4.009  -0.286  0.00  0.00    +0.017 A 
ATOM      7  C   UNL     1       4.692   4.731  -0.302  0.00  0.00    +0.033 A 
ATOM      8  C   UNL     1       5.893   4.103  -0.584  0.00  0.00    +0.128 A 
ATOM      9  C   UNL     1       5.924   2.747  -0.852  0.00  0.00    +0.053 A 
ATOM     10  C   UNL     1       4.757   2.009  -0.835  0.00  0.00    +0.055 A 
ATOM     11 CL   UNL     1       4.799   0.305  -1.165  0.00  0.00    -0.083 Cl
BRANCH   8  12
ATOM     12  N   UNL     1       7.149   4.886  -0.598  0.00  0.00    +0.056 N 
ATOM     13  O   UNL     1       7.124   6.081  -0.362  0.00  0.00    -0.126 OA
ATOM     14  O   UNL     1       8.207   4.336  -0.846  0.00  0.00    -0.126 OA
ENDBRANCH   8  12
ENDBRANCH   2   5
BRANCH   1  15
ATOM     15  C   UNL     1      -0.027   1.755  -0.249  0.00  0.00    +0.141 C 
ATOM     16  S   UNL     1       0.006   0.076  -0.581  0.00  0.00    -0.018 S 
BRANCH  15  17
ATOM     17  N   UNL     1      -1.197   2.366   0.021  0.00  0.00    -0.297 N 
ATOM     18  H   UNL     1      -1.208   3.298   0.287  0.00  0.00    +0.154 HD
BRANCH  17  21
ATOM     19  C   UNL     1      -4.562   1.119   0.786  0.00  0.00    +0.017 A 
ATOM     20  C   UNL     1      -3.380   1.817   0.885  0.00  0.00    +0.024 A 
ATOM     21  C   UNL     1      -2.393   1.657  -0.083  0.00  0.00    +0.033 A 
ATOM     22  C   UNL     1      -2.599   0.796  -1.156  0.00  0.00    +0.024 A 
ATOM     23  C   UNL     1      -3.776   0.090  -1.259  0.00  0.00    +0.017 A 
ATOM     24  C   UNL     1      -4.770   0.248  -0.288  0.00  0.00    +0.063 A 
BRANCH  24  25
ATOM     25  C   UNL     1      -6.035  -0.502  -0.397  0.00  0.00    +0.387 C 
ATOM     26  O   UNL     1      -6.898  -0.364   0.447  0.00  0.00    -0.241 OA
ATOM     27  O   UNL     1      -6.234  -1.340  -1.433  0.00  0.00    -0.241 OA
ENDBRANCH  24  25
ENDBRANCH  17  21
ENDBRANCH  15  17
ENDBRANCH   1  15
TORSDOF 6
