REMARK  Name = ZINC06904573
REMARK  1 active torsions:
REMARK  status: ('A' for Active; 'I' for Inactive)
REMARK    1  A    between atoms: CA_11  and  C_13
REMARK                            x       y       z     vdW  Elec       q    Type
REMARK                         _______ _______ _______ _____ _____    ______ ____
ROOT
ATOM      1  C   UNL     1       5.756   3.361   2.497  0.00  0.00    +0.000 C 
ATOM      2  C   UNL     1       6.029   2.849   1.081  0.00  0.00    -0.002 C 
ATOM      3  C   UNL     1       4.988   3.426   0.119  0.00  0.00    -0.015 C 
ATOM      4  C   UNL     1       3.591   2.988   0.561  0.00  0.00    -0.068 C 
ATOM      5  C   UNL     1       3.318   3.506   1.975  0.00  0.00    -0.025 C 
ATOM      6  C   UNL     1       4.356   2.926   2.937  0.00  0.00    +0.002 C 
ATOM      7  C   UNL     1       1.916   3.073   2.410  0.00  0.00    +0.001 C 
ATOM      8  C   UNL     1       0.892   3.611   1.406  0.00  0.00    -0.004 C 
ATOM      9  CA  UNL     1       1.235   3.094   0.007  0.00  0.00    +0.044 C 
ATOM     10  N   UNL     1       2.590   3.540  -0.371  0.00  0.00    +0.390 N 
ATOM     11  H1  UNL     1       2.799   3.217  -1.323  0.00  0.00    -0.084 HD
ATOM     12  H2  UNL     1       2.629   4.566  -0.342  0.00  0.00    -0.084 HD
ENDROOT
BRANCH   9  13
ATOM     13  C   UNL     1       1.177   1.588  -0.001  0.00  0.00    +0.343 C 
ATOM     14  O   UNL     1       2.137   0.948  -0.358  0.00  0.00    -0.248 OA
ATOM     15  OXT UNL     1       0.058   0.958   0.390  0.00  0.00    -0.248 OA
ENDBRANCH   9  13
TORSDOF 1
