REMARK  Name = ZINC09243098
REMARK  7 active torsions:
REMARK  status: ('A' for Active; 'I' for Inactive)
REMARK    1  A    between atoms: C_4  and  O_30
REMARK    2  A    between atoms: C_5  and  C_7
REMARK    3  A    between atoms: N_15  and  C_26
REMARK    4  A    between atoms: C_16  and  C_18
REMARK    5  A    between atoms: C_26  and  C_27
REMARK    6  A    between atoms: C_27  and  C_28
REMARK    7  A    between atoms: C_28  and  O_29
REMARK                            x       y       z     vdW  Elec       q    Type
REMARK                         _______ _______ _______ _____ _____    ______ ____
ROOT
ATOM      1  C   UNL     1       1.321  -2.547  -0.279  0.00  0.00    +0.102 A 
ATOM      2  C   UNL     1       0.123  -3.228  -0.036  0.00  0.00    +0.035 A 
ATOM      3  C   UNL     1       0.450  -4.570  -0.017  0.00  0.00    +0.126 A 
ATOM      4  N   UNL     1       1.796  -4.637  -0.244  0.00  0.00    -0.272 N 
ATOM      5  H   UNL     1       2.313  -5.456  -0.288  0.00  0.00    +0.189 HD
ATOM      6  N   UNL     1       2.272  -3.453  -0.397  0.00  0.00    -0.173 NA
ATOM      7  C   UNL     1      -0.770  -5.344   0.235  0.00  0.00    +0.265 C 
ATOM      8  O   UNL     1      -0.820  -6.557   0.312  0.00  0.00    -0.268 OA
ATOM      9  N   UNL     1      -1.827  -4.522   0.371  0.00  0.00    -0.285 N 
ATOM     10  C   UNL     1      -1.357  -3.139   0.213  0.00  0.00    +0.141 C 
ENDROOT
BRANCH  10  11
ATOM     11  C   UNL     1      -2.043  -2.490  -0.961  0.00  0.00    -0.021 A 
ATOM     12  C   UNL     1      -2.210  -3.193  -2.139  0.00  0.00    +0.007 A 
ATOM     13  C   UNL     1      -2.838  -2.598  -3.217  0.00  0.00    +0.022 A 
ATOM     14  C   UNL     1      -3.300  -1.298  -3.117  0.00  0.00    +0.059 A 
ATOM     15  C   UNL     1      -3.133  -0.593  -1.937  0.00  0.00    +0.060 A 
ATOM     16  C   UNL     1      -2.509  -1.192  -0.857  0.00  0.00    +0.027 A 
ATOM     17 CL   UNL     1      -3.712   1.038  -1.810  0.00  0.00    -0.082 Cl
ATOM     18 CL   UNL     1      -4.088  -0.549  -4.471  0.00  0.00    -0.082 Cl
ENDBRANCH  10  11
BRANCH   1  23
ATOM     19  C   UNL     1       1.064   1.134   0.443  0.00  0.00    +0.001 A 
ATOM     20  C   UNL     1       1.801   1.669  -0.598  0.00  0.00    +0.004 A 
ATOM     21  C   UNL     1       2.385   0.841  -1.537  0.00  0.00    +0.046 A 
ATOM     22  C   UNL     1       2.234  -0.533  -1.441  0.00  0.00    +0.126 A 
ATOM     23  C   UNL     1       1.489  -1.077  -0.390  0.00  0.00    +0.044 A 
ATOM     24  C   UNL     1       0.905  -0.233   0.551  0.00  0.00    +0.014 A 
BRANCH  22  25
ATOM     25  O   UNL     1       2.807  -1.349  -2.364  0.00  0.00    -0.506 OA
ATOM     26  H   UNL     1       3.703  -1.631  -2.137  0.00  0.00    +0.292 HD
ENDBRANCH  22  25
ENDBRANCH   1  23
BRANCH   9  27
ATOM     27  C   UNL     1      -3.208  -4.935   0.631  0.00  0.00    +0.111 C 
BRANCH  27  28
ATOM     28  C   UNL     1      -3.445  -4.999   2.142  0.00  0.00    +0.047 C 
BRANCH  28  29
ATOM     29  C   UNL     1      -4.887  -5.431   2.414  0.00  0.00    +0.157 C 
BRANCH  29  30
ATOM     30  O   UNL     1      -5.109  -5.491   3.824  0.00  0.00    -0.395 OA
ATOM     31  H   UNL     1      -6.005  -5.758   4.071  0.00  0.00    +0.209 HD
ENDBRANCH  29  30
ENDBRANCH  28  29
ENDBRANCH  27  28
ENDBRANCH   9  27
TORSDOF 7
