REMARK  Name = ZINC39359424
REMARK  6 active torsions:
REMARK  status: ('A' for Active; 'I' for Inactive)
REMARK    1  A    between atoms: C_1  and  C_2
REMARK    2  A    between atoms: C_4  and  C_24
REMARK    3  A    between atoms: C_9  and  C_14
REMARK    4  A    between atoms: C_27  and  O_30
REMARK    5  A    between atoms: O_30  and  C_31
REMARK    6  A    between atoms: C_31  and  C_32
REMARK                            x       y       z     vdW  Elec       q    Type
REMARK                         _______ _______ _______ _____ _____    ______ ____
ROOT
ATOM      1  C   UNL     1      -0.018   1.503   0.010  0.00  0.00    +0.067 C 
ATOM      2  C   UNL     1       0.002  -0.004   0.002  0.00  0.00    +0.064 C 
ATOM      3  C   UNL     1      -1.064  -0.767   0.003  0.00  0.00    +0.008 C 
ATOM      4  C   UNL     1      -2.532  -0.504   0.162  0.00  0.00    +0.085 C 
ATOM      5  C   UNL     1      -3.070  -1.552   1.124  0.00  0.00    +0.023 C 
ATOM      6  C   UNL     1      -2.342  -2.623   1.504  0.00  0.00    +0.014 C 
ATOM      7  C   UNL     1      -2.942  -3.657   2.436  0.00  0.00    +0.060 C 
ATOM      8  C   UNL     1      -3.920  -2.981   3.397  0.00  0.00    +0.039 C 
ATOM      9  C   UNL     1      -5.018  -2.305   2.569  0.00  0.00    +0.088 C 
ATOM     10  C   UNL     1      -4.375  -1.347   1.605  0.00  0.00    +0.162 C 
ATOM     11  O   UNL     1      -4.998  -0.373   1.232  0.00  0.00    -0.292 OA
ATOM     12  N   UNL     1      -1.048  -2.854   1.111  0.00  0.00    -0.321 N 
ATOM     13  C   UNL     1      -0.528  -2.198  -0.091  0.00  0.00    +0.241 C 
ATOM     14  N   UNL     1       0.921  -1.985  -0.031  0.00  0.00    -0.160 NA
ATOM     15  N   UNL     1       1.127  -0.764  -0.013  0.00  0.00    -0.157 NA
ATOM     16  H   UNL     1      -0.481  -3.449   1.626  0.00  0.00    +0.148 HD
ENDROOT
BRANCH   4  17
ATOM     17  C   UNL     1      -3.223  -0.624  -1.171  0.00  0.00    -0.035 A 
ATOM     18  C   UNL     1      -3.183  -1.820  -1.864  0.00  0.00    +0.008 A 
ATOM     19  C   UNL     1      -3.816  -1.933  -3.087  0.00  0.00    +0.046 A 
ATOM     20  C   UNL     1      -4.493  -0.845  -3.619  0.00  0.00    +0.121 A 
ATOM     21  C   UNL     1      -4.532   0.354  -2.922  0.00  0.00    +0.046 A 
ATOM     22  C   UNL     1      -3.902   0.460  -1.697  0.00  0.00    +0.008 A 
BRANCH  20  23
ATOM     23  O   UNL     1      -5.116  -0.953  -4.822  0.00  0.00    -0.481 OA
BRANCH  23  24
ATOM     24  C   UNL     1      -5.793   0.207  -5.309  0.00  0.00    +0.353 C 
BRANCH  24  25
ATOM     25  C   UNL     1      -6.419  -0.100  -6.645  0.00  0.00    +0.393 C 
ATOM     26  O   UNL     1      -6.296  -1.209  -7.135  0.00  0.00    -0.243 OA
ATOM     27  O   UNL     1      -7.048   0.762  -7.236  0.00  0.00    -0.243 OA
ENDBRANCH  24  25
ENDBRANCH  23  24
ENDBRANCH  20  23
ENDBRANCH   4  17
BRANCH   8  28
ATOM     28  C   UNL     1      -4.532  -4.014   4.308  0.00  0.00    -0.006 A 
ATOM     29  C   UNL     1      -4.488  -4.092   5.660  0.00  0.00    +0.011 A 
ATOM     30  C   UNL     1      -5.131  -5.140   6.292  0.00  0.00    +0.008 A 
ATOM     31  C   UNL     1      -5.787  -6.058   5.540  0.00  0.00    +0.045 A 
ATOM     32  S   UNL     1      -5.510  -5.447   3.886  0.00  0.00    -0.101 S 
ENDBRANCH   8  28
TORSDOF 5
