REMARK  Name = ZINC39667079
REMARK  8 active torsions:
REMARK  status: ('A' for Active; 'I' for Inactive)
REMARK    1  A    between atoms: C_1  and  C_2
REMARK    2  A    between atoms: C_5  and  C_9
REMARK    3  A    between atoms: C_6  and  C_8
REMARK    4  A    between atoms: C_9  and  C_10
REMARK    5  A    between atoms: C_10  and  N_11
REMARK    6  A    between atoms: C_12  and  C_14
REMARK    7  A    between atoms: C_25  and  C_27
REMARK    8  A    between atoms: C_30  and  C_35
REMARK                            x       y       z     vdW  Elec       q    Type
REMARK                         _______ _______ _______ _____ _____    ______ ____
ROOT
ATOM      1  C   UNL     1      -2.478  -8.469   0.197  0.00  0.00    +0.100 C 
ATOM      2  C   UNL     1      -1.596  -9.006   1.347  0.00  0.00    +0.121 C 
ATOM      3  N   UNL     1      -2.545  -9.266   2.455  0.00  0.00    -0.296 N 
ATOM      4  C   UNL     1      -3.743  -9.831   1.790  0.00  0.00    +0.115 C 
ATOM      5  C   UNL     1      -3.885  -9.015   0.489  0.00  0.00    -0.004 C 
ATOM      6  C   UNL     1      -4.867  -7.865   0.693  0.00  0.00    -0.010 C 
ATOM      7  C   UNL     1      -6.269  -8.433   0.926  0.00  0.00    -0.082 C 
ATOM      8  N   UNL     1      -6.669  -9.245  -0.230  0.00  0.00    +0.379 N 
ATOM      9  C   UNL     1      -5.774 -10.401  -0.364  0.00  0.00    -0.082 C 
ATOM     10  C   UNL     1      -4.350  -9.916  -0.651  0.00  0.00    -0.010 C 
ATOM     11  C   UNL     1      -2.360  -9.040   3.771  0.00  0.00    +0.250 C 
ATOM     12  O   UNL     1      -1.353  -8.478   4.155  0.00  0.00    -0.270 OA
ATOM     13  H   UNL     1      -7.616  -9.568  -0.101  0.00  0.00    -0.086 HD
ATOM     14  H   UNL     1      -6.618  -8.683  -1.067  0.00  0.00    -0.086 HD
ENDROOT
BRANCH  11  15
ATOM     15  C   UNL     1      -3.381  -9.475   4.745  0.00  0.00    +0.075 A 
ATOM     16  C   UNL     1      -4.099 -10.653   4.530  0.00  0.00    +0.016 A 
ATOM     17  C   UNL     1      -5.051 -11.055   5.443  0.00  0.00    +0.007 A 
ATOM     18  C   UNL     1      -5.298 -10.294   6.573  0.00  0.00    -0.012 A 
ATOM     19  C   UNL     1      -4.592  -9.125   6.796  0.00  0.00    +0.162 A 
ATOM     20  C   UNL     1      -3.628  -8.712   5.890  0.00  0.00    +0.171 A 
ATOM     21  F   UNL     1      -2.934  -7.574   6.110  0.00  0.00    -0.202 F 
ATOM     22  F   UNL     1      -4.839  -8.388   7.901  0.00  0.00    -0.202 F 
ATOM     23  C   UNL     1      -6.341 -10.741   7.565  0.00  0.00    +0.047 C 
ENDBRANCH  11  15
BRANCH   1  25
ATOM     24  N   UNL     1      -2.632  -6.284  -0.953  0.00  0.00    -0.315 N 
ATOM     25  C   UNL     1      -2.488  -6.962   0.203  0.00  0.00    +0.218 C 
ATOM     26  O   UNL     1      -2.366  -6.359   1.249  0.00  0.00    -0.275 OA
ATOM     27  H   UNL     1      -2.730  -6.766  -1.789  0.00  0.00    +0.149 HD
BRANCH  24  28
ATOM     28  C   UNL     1      -2.643  -4.819  -0.946  0.00  0.00    +0.109 C 
BRANCH  28  29
ATOM     29  C   UNL     1      -2.819  -4.304  -2.376  0.00  0.00    +0.054 C 
BRANCH  29  34
ATOM     30  C   UNL     1      -2.859   1.475  -2.348  0.00  0.00    +0.044 C 
ATOM     31  C   UNL     1      -2.848  -0.032  -2.355  0.00  0.00    -0.050 A 
ATOM     32  C   UNL     1      -4.040  -0.732  -2.320  0.00  0.00    +0.003 A 
ATOM     33  C   UNL     1      -4.031  -2.114  -2.327  0.00  0.00    +0.004 A 
ATOM     34  C   UNL     1      -2.829  -2.797  -2.369  0.00  0.00    -0.043 A 
ATOM     35  C   UNL     1      -1.638  -2.098  -2.405  0.00  0.00    -0.047 A 
ATOM     36  C   UNL     1      -1.647  -0.715  -2.403  0.00  0.00    +0.007 A 
ATOM     37  C   UNL     1      -0.328  -2.842  -2.451  0.00  0.00    +0.044 C 
ENDBRANCH  29  34
ENDBRANCH  28  29
ENDBRANCH  24  28
ENDBRANCH   1  25
TORSDOF 5
