REMARK  Name = ZINC01283253
REMARK  7 active torsions:
REMARK  status: ('A' for Active; 'I' for Inactive)
REMARK    1  A    between atoms: C_2  and  C_3
REMARK    2  A    between atoms: C_3  and  N_4
REMARK    3  A    between atoms: C_5  and  C_23
REMARK    4  A    between atoms: C_8  and  S_9
REMARK    5  A    between atoms: S_9  and  C_10
REMARK    6  A    between atoms: C_10  and  C_11
REMARK    7  A    between atoms: N_13  and  C_14
REMARK                            x       y       z     vdW  Elec       q    Type
REMARK                         _______ _______ _______ _____ _____    ______ ____
ROOT
ATOM      1  S   UNL     1       2.233  -4.540  -2.058  0.00  0.00    -0.077 S 
ENDROOT
BRANCH   1   6
ATOM      2  N   UNL     1       1.683  -2.703  -4.093  0.00  0.00    -0.297 N 
ATOM      3  C   UNL     1       0.629  -2.446  -4.940  0.00  0.00    +0.184 A 
ATOM      4  N   UNL     1      -0.314  -3.314  -4.656  0.00  0.00    -0.127 NA
ATOM      5  N   UNL     1       0.072  -4.085  -3.704  0.00  0.00    -0.122 NA
ATOM      6  C   UNL     1       1.289  -3.760  -3.324  0.00  0.00    +0.193 A 
BRANCH   3   7
ATOM      7  C   UNL     1       0.570  -1.391  -5.973  0.00  0.00    +0.108 A 
ATOM      8  C   UNL     1      -0.578  -1.251  -6.755  0.00  0.00    +0.031 A 
ATOM      9  C   UNL     1      -0.618  -0.258  -7.717  0.00  0.00    +0.004 A 
ATOM     10  C   UNL     1       0.491   0.563  -7.869  0.00  0.00    +0.020 A 
ATOM     11  C   UNL     1       1.596   0.368  -7.061  0.00  0.00    +0.111 A 
ATOM     12  N   UNL     1       1.608  -0.581  -6.148  0.00  0.00    -0.252 NA
ENDBRANCH   3   7
BRANCH   2  13
ATOM     13  C   UNL     1       2.964  -1.995  -4.033  0.00  0.00    +0.152 C 
BRANCH  13  15
ATOM     14  C   UNL     1       4.546  -1.941  -5.892  0.00  0.00    +0.005 C 
ATOM     15  C   UNL     1       3.945  -2.651  -4.970  0.00  0.00    -0.013 C 
ENDBRANCH  13  15
ENDBRANCH   2  13
ENDBRANCH   1   6
BRANCH   1  16
ATOM     16  C   UNL     1       1.142  -5.853  -1.443  0.00  0.00    +0.173 C 
BRANCH  16  17
ATOM     17  C   UNL     1       1.837  -6.608  -0.340  0.00  0.00    +0.228 C 
ATOM     18  O   UNL     1       2.959  -6.293  -0.002  0.00  0.00    -0.275 OA
ATOM     19  N   UNL     1       1.213  -7.635   0.271  0.00  0.00    -0.283 N 
ATOM     20  H   UNL     1       0.291  -7.841   0.052  0.00  0.00    +0.155 HD
BRANCH  19  21
ATOM     21  C   UNL     1       1.896  -8.404   1.222  0.00  0.00    +0.062 A 
ATOM     22  C   UNL     1       1.843  -8.056   2.566  0.00  0.00    +0.041 A 
ATOM     23  C   UNL     1       2.518  -8.817   3.502  0.00  0.00    +0.032 A 
ATOM     24  C   UNL     1       3.246  -9.923   3.101  0.00  0.00    +0.020 A 
ATOM     25  C   UNL     1       3.301 -10.272   1.763  0.00  0.00    +0.032 A 
ATOM     26  C   UNL     1       2.623  -9.518   0.823  0.00  0.00    +0.041 A 
ATOM     27 BR   UNL     1       2.692 -10.000  -1.004  0.00  0.00    -0.048 Br
ATOM     28 BR   UNL     1       4.168 -10.961   4.385  0.00  0.00    -0.050 Br
ATOM     29 BR   UNL     1       0.850  -6.544   3.114  0.00  0.00    -0.048 Br
ENDBRANCH  19  21
ENDBRANCH  16  17
ENDBRANCH   1  16
TORSDOF 7
