REMARK  Name = ZINC08901613
REMARK  10 active torsions:
REMARK  status: ('A' for Active; 'I' for Inactive)
REMARK    1  A    between atoms: C_1  and  C_2
REMARK    2  A    between atoms: C_2  and  C_3
REMARK    3  A    between atoms: N_5  and  C_6
REMARK    4  A    between atoms: C_9  and  S_13
REMARK    5  A    between atoms: C_10  and  C_12
REMARK    6  A    between atoms: S_13  and  N_16
REMARK    7  A    between atoms: N_16  and  C_17
REMARK    8  A    between atoms: C_17  and  C_18
REMARK    9  A    between atoms: C_18  and  C_20
REMARK   10  A    between atoms: C_18  and  N_61
REMARK                            x       y       z     vdW  Elec       q    Type
REMARK                         _______ _______ _______ _____ _____    ______ ____
ROOT
ATOM      1  N   UNL     1      -6.969  -0.568   1.824  0.00  0.00    -0.191 NA
ATOM      2  H   UNL     1      -6.881  -1.258   2.501  0.00  0.00    +0.148 HD
ENDROOT
BRANCH   1   3
ATOM      3  S   UNL     1      -6.477  -0.864   0.271  0.00  0.00    +0.059 S 
ATOM      4  O   UNL     1      -7.552  -0.483  -0.576  0.00  0.00    -0.153 OA
ATOM      5  O   UNL     1      -5.928  -2.175   0.263  0.00  0.00    -0.153 OA
BRANCH   3   9
ATOM      6  C   UNL     1      -3.062   1.975  -0.616  0.00  0.00    +0.034 A 
ATOM      7  C   UNL     1      -4.246   2.064  -1.336  0.00  0.00    +0.025 A 
ATOM      8  C   UNL     1      -5.283   1.193  -1.067  0.00  0.00    +0.030 A 
ATOM      9  C   UNL     1      -5.148   0.240  -0.073  0.00  0.00    +0.108 A 
ATOM     10  C   UNL     1      -3.973   0.153   0.649  0.00  0.00    -0.022 A 
ATOM     11  C   UNL     1      -2.929   1.017   0.381  0.00  0.00    +0.028 A 
ATOM     12  C   UNL     1      -3.830  -0.887   1.730  0.00  0.00    +0.046 C 
BRANCH   6  15
ATOM     13  C   UNL     1      -1.805   3.292  -2.148  0.00  0.00    +0.217 C 
ATOM     14  O   UNL     1      -2.477   2.854  -3.058  0.00  0.00    -0.275 OA
ATOM     15  N   UNL     1      -2.006   2.852  -0.890  0.00  0.00    -0.285 N 
ATOM     16  H   UNL     1      -1.420   3.143  -0.175  0.00  0.00    +0.155 HD
BRANCH  13  18
ATOM     17  C   UNL     1      -0.733   4.659  -3.918  0.00  0.00    +0.013 C 
ATOM     18  C   UNL     1      -0.751   4.333  -2.423  0.00  0.00    +0.093 C 
ENDBRANCH  13  18
ENDBRANCH   6  15
ENDBRANCH   3   9
ENDBRANCH   1   3
BRANCH   1  19
ATOM     19  C   UNL     1      -7.538   0.735   2.176  0.00  0.00    +0.095 C 
BRANCH  19  20
ATOM     20  C   UNL     1      -8.254   0.632   3.525  0.00  0.00    -0.021 C 
BRANCH  20  27
ATOM     21  C   UNL     1      -7.673   2.980   3.763  0.00  0.00    -0.078 C 
ATOM     22  C   UNL     1      -8.020   4.293   4.410  0.00  0.00    -0.019 C 
ATOM     23  C   UNL     1      -7.425   4.308   5.834  0.00  0.00    -0.002 C 
ATOM     24  C   UNL     1      -8.232   3.539   6.776  0.00  0.00    -0.002 C 
ATOM     25  C   UNL     1      -8.331   2.051   6.379  0.00  0.00    -0.019 C 
ATOM     26  C   UNL     1      -9.344   1.918   5.275  0.00  0.00    -0.078 C 
ATOM     27  N   UNL     1      -8.771   1.961   3.887  0.00  0.00    +0.385 N 
ATOM     28  H   UNL     1      -9.522   2.214   3.234  0.00  0.00    -0.081 HD
ENDBRANCH  20  27
BRANCH  20  29
ATOM     29  C   UNL     1      -9.425  -0.309   3.401  0.00  0.00    -0.053 A 
ATOM     30  C   UNL     1      -9.325  -1.615   3.840  0.00  0.00    +0.009 A 
ATOM     31  C   UNL     1     -10.397  -2.435   3.714  0.00  0.00    +0.045 A 
ATOM     32  S   UNL     1     -11.600  -1.356   2.955  0.00  0.00    -0.105 S 
ATOM     33  C   UNL     1     -10.594   0.116   2.862  0.00  0.00    +0.047 A 
ENDBRANCH  20  29
ENDBRANCH  19  20
ENDBRANCH   1  19
TORSDOF 8
