REMARK  Name = ZINC39355672
REMARK  7 active torsions:
REMARK  status: ('A' for Active; 'I' for Inactive)
REMARK    1  A    between atoms: C_1  and  O_2
REMARK    2  A    between atoms: O_2  and  C_3
REMARK    3  A    between atoms: C_3  and  C_5
REMARK    4  A    between atoms: C_8  and  N_11
REMARK    5  A    between atoms: C_12  and  C_14
REMARK    6  A    between atoms: N_19  and  C_21
REMARK    7  A    between atoms: C_23  and  C_34
REMARK                            x       y       z     vdW  Elec       q    Type
REMARK                         _______ _______ _______ _____ _____    ______ ____
ROOT
ATOM      1  C   UNL     1      -2.676  -8.374   0.384  0.00  0.00    +0.059 C 
ATOM      2  C   UNL     1      -1.962  -8.852  -0.884  0.00  0.00    +0.009 C 
ATOM      3  C   UNL     1      -2.077 -10.377  -0.979  0.00  0.00    -0.018 C 
ATOM      4  C   UNL     1      -3.554 -10.774  -0.961  0.00  0.00    -0.077 C 
ATOM      5  N   UNL     1      -4.174 -10.312   0.287  0.00  0.00    +0.391 N 
ATOM      6  C   UNL     1      -4.132  -8.846   0.352  0.00  0.00    -0.065 C 
ATOM      7  H   UNL     1      -3.672 -10.696   1.073  0.00  0.00    -0.080 HD
ENDROOT
BRANCH   5   8
ATOM      8  C   UNL     1      -5.572 -10.762   0.334  0.00  0.00    +0.052 C 
ATOM      9  C   UNL     1      -5.571 -12.250   0.629  0.00  0.00    -0.036 C 
ATOM     10  C   UNL     1      -6.199 -13.082  -0.302  0.00  0.00    +0.000 A 
ATOM     11  C   UNL     1      -6.245 -14.478  -0.106  0.00  0.00    +0.030 A 
ATOM     12  C   UNL     1      -6.864 -15.265  -1.029  0.00  0.00    +0.042 A 
ATOM     13  C   UNL     1      -7.454 -14.719  -2.167  0.00  0.00    +0.022 A 
ATOM     14  C   UNL     1      -7.441 -13.379  -2.410  0.00  0.00    +0.025 A 
ATOM     15  C   UNL     1      -6.820 -12.506  -1.500  0.00  0.00    +0.041 A 
ATOM     16  N   UNL     1      -6.809 -11.190  -1.741  0.00  0.00    -0.286 N 
ATOM     17  C   UNL     1      -6.249 -10.308  -0.938  0.00  0.00    +0.208 C 
ATOM     18  O   UNL     1      -6.278  -9.125  -1.222  0.00  0.00    -0.277 OA
ATOM     19 CL   UNL     1      -6.918 -16.982  -0.782  0.00  0.00    -0.084 Cl
ATOM     20  H   UNL     1      -7.237 -10.868  -2.550  0.00  0.00    +0.155 HD
BRANCH   9  21
ATOM     21  C   UNL     1      -4.960 -12.774   1.796  0.00  0.00    -0.022 A 
ATOM     22  C   UNL     1      -3.847 -13.623   1.692  0.00  0.00    +0.008 A 
ATOM     23  C   UNL     1      -3.261 -14.127   2.832  0.00  0.00    +0.001 A 
ATOM     24  C   UNL     1      -3.767 -13.798   4.079  0.00  0.00    +0.000 A 
ATOM     25  C   UNL     1      -4.865 -12.960   4.194  0.00  0.00    +0.001 A 
ATOM     26  C   UNL     1      -5.462 -12.442   3.066  0.00  0.00    +0.008 A 
ENDBRANCH   9  21
ENDBRANCH   5   8
BRANCH   1  28
ATOM     27  N   UNL     1      -1.657  -6.250   1.135  0.00  0.00    -0.285 N 
ATOM     28  C   UNL     1      -2.636  -6.869   0.447  0.00  0.00    +0.219 C 
ATOM     29  O   UNL     1      -3.485  -6.216  -0.121  0.00  0.00    -0.275 OA
ATOM     30  H   UNL     1      -0.932  -6.767   1.519  0.00  0.00    +0.155 HD
BRANCH  27  34
ATOM     31  C   UNL     1      -1.743  -2.113   1.612  0.00  0.00    +0.059 A 
ATOM     32  C   UNL     1      -2.938  -2.835   1.538  0.00  0.00    +0.017 A 
ATOM     33  C   UNL     1      -2.906  -4.202   1.380  0.00  0.00    +0.024 A 
ATOM     34  C   UNL     1      -1.686  -4.865   1.294  0.00  0.00    +0.033 A 
ATOM     35  C   UNL     1      -0.494  -4.150   1.368  0.00  0.00    +0.024 A 
ATOM     36  C   UNL     1      -0.519  -2.782   1.520  0.00  0.00    +0.017 A 
BRANCH  31  37
ATOM     37  C   UNL     1      -1.773  -0.648   1.781  0.00  0.00    +0.339 C 
ATOM     38  O   UNL     1      -0.734  -0.022   1.840  0.00  0.00    -0.245 OA
BRANCH  37  40
ATOM     39  C   UNL     1      -2.909   1.414   2.032  0.00  0.00    +0.280 C 
ATOM     40  O   UNL     1      -2.954  -0.005   1.870  0.00  0.00    -0.464 OA
ENDBRANCH  37  40
ENDBRANCH  31  37
ENDBRANCH  27  34
ENDBRANCH   1  28
TORSDOF 6
