REMARK  Name = ZINC08835893
REMARK  6 active torsions:
REMARK  status: ('A' for Active; 'I' for Inactive)
REMARK    1  A    between atoms: C_10  and  S_11
REMARK    2  A    between atoms: S_11  and  N_14
REMARK    3  A    between atoms: N_14  and  C_15
REMARK    4  A    between atoms: C_18  and  N_21
REMARK    5  A    between atoms: N_21  and  S_22
REMARK    6  A    between atoms: S_22  and  C_25
REMARK                            x       y       z     vdW  Elec       q    Type
REMARK                         _______ _______ _______ _____ _____    ______ ____
ROOT
ATOM      1  C   UNL     1      -1.760   5.270   1.845  0.00  0.00    +0.048 A 
ATOM      2  C   UNL     1      -0.389   5.269   1.623  0.00  0.00    +0.026 A 
ATOM      3  C   UNL     1       0.373   6.354   2.007  0.00  0.00    +0.026 A 
ATOM      4  C   UNL     1      -0.229   7.443   2.622  0.00  0.00    +0.048 A 
ATOM      5  C   UNL     1      -1.599   7.443   2.849  0.00  0.00    +0.026 A 
ATOM      6  C   UNL     1      -2.362   6.359   2.462  0.00  0.00    +0.026 A 
ENDROOT
BRANCH   1   7
ATOM      7  N   UNL     1      -2.534   4.172   1.452  0.00  0.00    -0.216 N 
ATOM      8  H   UNL     1      -2.503   3.349   1.965  0.00  0.00    +0.174 HD
BRANCH   7   9
ATOM      9  S   UNL     1      -3.503   4.277   0.113  0.00  0.00    +0.073 S 
ATOM     10  O   UNL     1      -4.210   5.505   0.220  0.00  0.00    -0.150 OA
ATOM     11  O   UNL     1      -4.164   3.026  -0.009  0.00  0.00    -0.150 OA
BRANCH   9  21
ATOM     12  C   UNL     1      -0.283   7.936  -1.979  0.00  0.00    +0.001 A 
ATOM     13  C   UNL     1      -1.117   7.837  -0.866  0.00  0.00    +0.001 A 
ATOM     14  C   UNL     1      -1.828   6.703  -0.623  0.00  0.00    +0.010 A 
ATOM     15  C   UNL     1      -1.723   5.613  -1.504  0.00  0.00    +0.009 A 
ATOM     16  C   UNL     1      -0.875   5.714  -2.636  0.00  0.00    -0.016 A 
ATOM     17  C   UNL     1      -0.156   6.902  -2.854  0.00  0.00    +0.008 A 
ATOM     18  C   UNL     1      -0.771   4.625  -3.517  0.00  0.00    +0.008 A 
ATOM     19  C   UNL     1      -1.483   3.491  -3.274  0.00  0.00    +0.003 A 
ATOM     20  C   UNL     1      -2.320   3.394  -2.165  0.00  0.00    +0.029 A 
ATOM     21  C   UNL     1      -2.442   4.426  -1.286  0.00  0.00    +0.116 A 
ENDBRANCH   9  21
ENDBRANCH   7   9
ENDBRANCH   1   7
BRANCH   4  22
ATOM     22  N   UNL     1       0.545   8.542   3.014  0.00  0.00    -0.216 N 
ATOM     23  H   UNL     1       0.502   9.370   2.510  0.00  0.00    +0.174 HD
BRANCH  22  24
ATOM     24  S   UNL     1       1.533   8.429   4.338  0.00  0.00    +0.073 S 
ATOM     25  O   UNL     1       2.314   7.255   4.162  0.00  0.00    -0.150 OA
ATOM     26  O   UNL     1       2.117   9.712   4.520  0.00  0.00    -0.150 OA
BRANCH  24  27
ATOM     27  C   UNL     1       0.500   8.143   5.736  0.00  0.00    +0.116 A 
ATOM     28  C   UNL     1       0.596   6.975   6.430  0.00  0.00    +0.029 A 
ATOM     29  C   UNL     1      -0.208   6.733   7.542  0.00  0.00    +0.003 A 
ATOM     30  C   UNL     1      -1.121   7.652   7.960  0.00  0.00    +0.008 A 
ATOM     31  C   UNL     1      -1.252   8.867   7.266  0.00  0.00    -0.016 A 
ATOM     32  C   UNL     1      -0.430   9.116   6.138  0.00  0.00    +0.009 A 
ATOM     33  C   UNL     1      -0.563  10.330   5.444  0.00  0.00    +0.010 A 
ATOM     34  C   UNL     1      -1.475  11.249   5.862  0.00  0.00    +0.001 A 
ATOM     35  C   UNL     1      -2.284  11.004   6.971  0.00  0.00    +0.001 A 
ATOM     36  C   UNL     1      -2.184   9.840   7.668  0.00  0.00    +0.008 A 
ENDBRANCH  24  27
ENDBRANCH  22  24
ENDBRANCH   4  22
TORSDOF 6
