REMARK  Name = ZINC09109544
REMARK  5 active torsions:
REMARK  status: ('A' for Active; 'I' for Inactive)
REMARK    1  A    between atoms: C_1  and  C_2
REMARK    2  A    between atoms: C_2  and  C_3
REMARK    3  A    between atoms: C_2  and  C_4
REMARK    4  A    between atoms: C_7  and  C_10
REMARK    5  A    between atoms: C_15  and  C_23
REMARK                            x       y       z     vdW  Elec       q    Type
REMARK                         _______ _______ _______ _____ _____    ______ ____
ROOT
ATOM      1  C   UNL     1      -5.419  -2.005   0.043  0.00  0.00    +0.032 C 
ATOM      2  C   UNL     1      -5.404  -3.535   0.027  0.00  0.00    +0.060 C 
ATOM      3  C   UNL     1      -6.821  -4.056  -0.001  0.00  0.00    +0.020 C 
ATOM      4  C   UNL     1      -7.802  -3.361  -0.616  0.00  0.00    +0.044 C 
ATOM      5  C   UNL     1      -9.228  -3.865  -0.676  0.00  0.00    +0.211 C 
ATOM      6  N   UNL     1      -9.411  -4.955   0.274  0.00  0.00    -0.218 N 
ATOM      7  C   UNL     1      -8.382  -5.603   0.875  0.00  0.00    +0.219 A 
ATOM      8  N   UNL     1      -8.884  -6.521   1.654  0.00  0.00    -0.201 NA
ATOM      9  C   UNL     1     -10.218  -6.488   1.582  0.00  0.00    +0.247 A 
ATOM     10  N   UNL     1     -10.582  -5.544   0.750  0.00  0.00    -0.156 NA
ATOM     11  N   UNL     1      -7.065  -5.254   0.626  0.00  0.00    -0.287 N 
ATOM     12  C   UNL     1      -7.535  -2.123  -1.227  0.00  0.00    +0.164 C 
ATOM     13  O   UNL     1      -8.437  -1.529  -1.785  0.00  0.00    -0.292 OA
ATOM     14  C   UNL     1      -6.160  -1.516  -1.206  0.00  0.00    +0.088 C 
ATOM     15  H   UNL     1      -6.336  -5.838   0.886  0.00  0.00    +0.155 HD
ENDROOT
BRANCH   1  19
ATOM     16  C   UNL     1      -1.412  -0.526   0.013  0.00  0.00    -0.045 A 
ATOM     17  C   UNL     1      -2.259  -0.204   1.056  0.00  0.00    +0.004 A 
ATOM     18  C   UNL     1      -3.556  -0.683   1.066  0.00  0.00    +0.004 A 
ATOM     19  C   UNL     1      -4.006  -1.482   0.032  0.00  0.00    -0.043 A 
ATOM     20  C   UNL     1      -3.159  -1.803  -1.012  0.00  0.00    +0.004 A 
ATOM     21  C   UNL     1      -1.863  -1.321  -1.024  0.00  0.00    +0.004 A 
BRANCH  16  23
ATOM     22  C   UNL     1      -0.019   1.526   0.010  0.00  0.00    +0.012 C 
ATOM     23  C   UNL     1       0.002  -0.004   0.002  0.00  0.00    +0.013 C 
ATOM     24  C   UNL     1       0.742  -0.511   1.242  0.00  0.00    +0.012 C 
ENDBRANCH  16  23
ENDBRANCH   1  19
BRANCH   5  25
ATOM     25  C   UNL     1      -9.524  -4.362  -2.067  0.00  0.00    +0.134 A 
ATOM     26  C   UNL     1     -10.477  -3.883  -2.887  0.00  0.00    +0.047 A 
ATOM     27  C   UNL     1     -10.404  -4.635  -4.083  0.00  0.00    +0.041 A 
ATOM     28  C   UNL     1      -9.411  -5.527  -3.922  0.00  0.00    +0.195 A 
ATOM     29  O   UNL     1      -8.877  -5.353  -2.702  0.00  0.00    -0.465 OA
ENDBRANCH   5  25
TORSDOF 3
