REMARK  Name = ZINC33757569
REMARK  8 active torsions:
REMARK  status: ('A' for Active; 'I' for Inactive)
REMARK    1  A    between atoms: C_1  and  C_2
REMARK    2  A    between atoms: C_2  and  C_3
REMARK    3  A    between atoms: C_6  and  N_9
REMARK    4  A    between atoms: C_19  and  O_36
REMARK    5  A    between atoms: C_22  and  C_35
REMARK    6  A    between atoms: C_23  and  C_25
REMARK    7  A    between atoms: N_27  and  C_28
REMARK    8  A    between atoms: O_36  and  C_37
REMARK                            x       y       z     vdW  Elec       q    Type
REMARK                         _______ _______ _______ _____ _____    ______ ____
ROOT
ATOM      1  N   UNL     1       0.465   2.270   0.706  0.00  0.00    -0.243 N 
ATOM      2  C   UNL     1       1.675   2.116   0.147  0.00  0.00    +0.141 C 
ATOM      3  S   UNL     1       2.928   3.200   0.579  0.00  0.00    -0.018 S 
ATOM      4  N   UNL     1       1.939   1.141  -0.740  0.00  0.00    -0.318 N 
ATOM      5  C   UNL     1       0.859   0.245  -1.184  0.00  0.00    +0.123 C 
ATOM      6  C   UNL     1       0.055   0.990  -2.227  0.00  0.00    +0.019 A 
ATOM      7  C   UNL     1       0.446   0.917  -3.553  0.00  0.00    +0.009 A 
ATOM      8  C   UNL     1      -0.264   1.591  -4.527  0.00  0.00    +0.004 A 
ATOM      9  C   UNL     1      -1.370   2.345  -4.178  0.00  0.00    +0.049 A 
ATOM     10  C   UNL     1      -1.767   2.420  -2.855  0.00  0.00    +0.162 A 
ATOM     11  C   UNL     1      -1.052   1.736  -1.870  0.00  0.00    +0.170 A 
ATOM     12  O   UNL     1      -1.480   1.818  -0.583  0.00  0.00    -0.463 OA
ATOM     13  C   UNL     1      -0.629   1.337   0.454  0.00  0.00    +0.194 C 
ATOM     14  C   UNL     1      -0.051  -0.020   0.026  0.00  0.00    +0.163 C 
ATOM     15  C   UNL     1      -1.449   1.158   1.734  0.00  0.00    +0.079 C 
ATOM     16  H   UNL     1       2.958   1.012  -1.134  0.00  0.00    +0.148 HD
ENDROOT
BRANCH   1  20
ATOM     17  C   UNL     1      -0.189   5.513   3.237  0.00  0.00    -0.048 A 
ATOM     18  C   UNL     1       0.632   4.477   3.642  0.00  0.00    +0.005 A 
ATOM     19  C   UNL     1       0.851   3.400   2.805  0.00  0.00    +0.024 A 
ATOM     20  C   UNL     1       0.245   3.359   1.556  0.00  0.00    +0.039 A 
ATOM     21  C   UNL     1      -0.575   4.404   1.151  0.00  0.00    +0.024 A 
ATOM     22  C   UNL     1      -0.794   5.476   1.994  0.00  0.00    +0.005 A 
BRANCH  17  24
ATOM     23  C   UNL     1       0.631   7.761   3.890  0.00  0.00    +0.009 C 
ATOM     24  C   UNL     1      -0.426   6.687   4.153  0.00  0.00    +0.032 C 
ENDBRANCH  17  24
ENDBRANCH   1  20
BRANCH  14  25
ATOM     25  C   UNL     1       0.752  -0.616   1.153  0.00  0.00    +0.228 C 
ATOM     26  O   UNL     1       1.236   0.105   2.001  0.00  0.00    -0.275 OA
ATOM     27  N   UNL     1       0.935  -1.950   1.220  0.00  0.00    -0.285 N 
ATOM     28  H   UNL     1       0.571  -2.595   0.407  0.00  0.00    +0.155 HD
BRANCH  27  29
ATOM     29  C   UNL     1       1.587  -2.513   2.323  0.00  0.00    +0.033 A 
ATOM     30  C   UNL     1       2.614  -1.821   2.951  0.00  0.00    +0.025 A 
ATOM     31  C   UNL     1       3.253  -2.378   4.042  0.00  0.00    +0.022 A 
ATOM     32  C   UNL     1       2.877  -3.627   4.502  0.00  0.00    +0.041 A 
ATOM     33  C   UNL     1       1.857  -4.321   3.874  0.00  0.00    +0.022 A 
ATOM     34  C   UNL     1       1.212  -3.767   2.786  0.00  0.00    +0.025 A 
ATOM     35 CL   UNL     1       3.687  -4.327   5.869  0.00  0.00    -0.084 Cl
ENDBRANCH  27  29
ENDBRANCH  14  25
BRANCH  10  36
ATOM     36  O   UNL     1      -2.854   3.161  -2.513  0.00  0.00    -0.491 OA
ATOM     37  C   UNL     1      -3.539   3.835  -3.571  0.00  0.00    +0.277 C 
ENDBRANCH  10  36
TORSDOF 5
