REMARK  Name = ZINC00880577
REMARK  11 active torsions:
REMARK  status: ('A' for Active; 'I' for Inactive)
REMARK    1  A    between atoms: C_1  and  C_2
REMARK    2  A    between atoms: C_9  and  C_14
REMARK    3  A    between atoms: C_14  and  N_15
REMARK    4  A    between atoms: N_15  and  C_16
REMARK    5  A    between atoms: N_15  and  C_20
REMARK    6  A    between atoms: C_16  and  C_17
REMARK    7  A    between atoms: C_17  and  N_54
REMARK    8  A    between atoms: C_18  and  N_54
REMARK    9  A    between atoms: C_19  and  N_54
REMARK   10  A    between atoms: C_20  and  N_22
REMARK   11  A    between atoms: N_22  and  C_23
REMARK                            x       y       z     vdW  Elec       q    Type
REMARK                         _______ _______ _______ _____ _____    ______ ____
ROOT
ATOM      1  N   UNL     1       1.019  -3.003   1.302  0.00  0.00    -0.310 N 
ENDROOT
BRANCH   1   2
ATOM      2  C   UNL     1       2.143  -3.237   2.006  0.00  0.00    +0.137 C 
ATOM      3  S   UNL     1       3.658  -3.287   1.210  0.00  0.00    -0.018 S 
BRANCH   2   4
ATOM      4  N   UNL     1       2.075  -3.433   3.338  0.00  0.00    -0.297 N 
ATOM      5  H   UNL     1       1.230  -3.326   3.802  0.00  0.00    +0.154 HD
BRANCH   4   6
ATOM      6  C   UNL     1       3.224  -3.789   4.052  0.00  0.00    +0.034 A 
ATOM      7  C   UNL     1       4.106  -4.726   3.528  0.00  0.00    +0.023 A 
ATOM      8  C   UNL     1       5.242  -5.072   4.233  0.00  0.00    +0.003 A 
ATOM      9  C   UNL     1       5.497  -4.496   5.464  0.00  0.00    +0.020 A 
ATOM     10  C   UNL     1       4.618  -3.567   5.992  0.00  0.00    +0.043 A 
ATOM     11  C   UNL     1       3.482  -3.213   5.289  0.00  0.00    +0.043 A 
ATOM     12 CL   UNL     1       4.942  -2.848   7.538  0.00  0.00    -0.083 Cl
ENDBRANCH   4   6
ENDBRANCH   2   4
ENDBRANCH   1   2
BRANCH   1  13
ATOM     13  C   UNL     1       1.092  -2.791  -0.146  0.00  0.00    +0.147 C 
BRANCH  13  22
ATOM     14  C   UNL     1       5.378   3.144  -1.571  0.00  0.00    +0.044 C 
ATOM     15  C   UNL     1       4.022   2.525  -1.351  0.00  0.00    -0.050 A 
ATOM     16  C   UNL     1       2.885   3.319  -1.409  0.00  0.00    +0.005 A 
ATOM     17  C   UNL     1       1.635   2.774  -1.211  0.00  0.00    +0.026 A 
ATOM     18  C   UNL     1       1.509   1.413  -0.951  0.00  0.00    +0.049 A 
ATOM     19  C   UNL     1       2.664   0.611  -0.893  0.00  0.00    -0.001 A 
ATOM     20  C   UNL     1       3.922   1.186  -1.097  0.00  0.00    +0.013 A 
ATOM     21  C   UNL     1       2.520  -0.820  -0.619  0.00  0.00    +0.020 A 
ATOM     22  C   UNL     1       1.275  -1.322  -0.430  0.00  0.00    +0.035 A 
ATOM     23  C   UNL     1       0.149  -0.474  -0.498  0.00  0.00    +0.254 A 
ATOM     24  O   UNL     1      -0.962  -0.946  -0.325  0.00  0.00    -0.268 OA
ATOM     25  N   UNL     1       0.271   0.841  -0.750  0.00  0.00    -0.322 N 
ATOM     26  H   UNL     1      -0.549   1.413  -0.792  0.00  0.00    +0.169 HD
ENDBRANCH  13  22
ENDBRANCH   1  13
BRANCH   1  27
ATOM     27  C   UNL     1      -0.278  -2.961   1.983  0.00  0.00    +0.088 C 
BRANCH  27  28
ATOM     28  C   UNL     1      -0.888  -4.364   2.004  0.00  0.00    -0.060 C 
BRANCH  28  31
ATOM     29  C   UNL     1      -3.160  -3.528   1.922  0.00  0.00    -0.097 C 
ATOM     30  C   UNL     1      -2.696  -5.677   2.938  0.00  0.00    -0.097 C 
ATOM     31  N   UNL     1      -2.184  -4.308   2.713  0.00  0.00    +0.377 N 
ATOM     32  H   UNL     1      -2.049  -3.849   3.621  0.00  0.00    -0.083 HD
ENDBRANCH  28  31
ENDBRANCH  27  28
ENDBRANCH   1  27
TORSDOF 8
