REMARK  Name = ZINC29770610
REMARK  4 active torsions:
REMARK  status: ('A' for Active; 'I' for Inactive)
REMARK    1  A    between atoms: C_1  and  C_2
REMARK    2  A    between atoms: C_7  and  C_8
REMARK    3  A    between atoms: N_10  and  C_11
REMARK    4  A    between atoms: C_20  and  C_23
REMARK                            x       y       z     vdW  Elec       q    Type
REMARK                         _______ _______ _______ _____ _____    ______ ____
ROOT
ATOM      1  C   UNL     1       1.317   1.874   2.743  0.00  0.00    +0.265 C 
ATOM      2  O   UNL     1       2.132   1.644   1.869  0.00  0.00    -0.268 OA
ATOM      3  N   UNL     1       1.720   2.018   4.020  0.00  0.00    -0.280 N 
ATOM      4  H   UNL     1       0.997   2.312   4.796  0.00  0.00    +0.155 HD
ENDROOT
BRANCH   3   5
ATOM      5  C   UNL     1       3.060   1.795   4.361  0.00  0.00    +0.036 A 
ATOM      6  C   UNL     1       3.651   2.537   5.376  0.00  0.00    +0.027 A 
ATOM      7  C   UNL     1       4.973   2.319   5.716  0.00  0.00    +0.049 A 
ATOM      8  C   UNL     1       5.711   1.360   5.045  0.00  0.00    +0.143 A 
ATOM      9  C   UNL     1       5.121   0.614   4.025  0.00  0.00    +0.077 A 
ATOM     10  C   UNL     1       3.796   0.828   3.688  0.00  0.00    +0.050 A 
ATOM     11  N   UNL     1       5.883  -0.352   3.353  0.00  0.00    -0.279 N 
ATOM     12  C   UNL     1       7.049  -0.763   3.899  0.00  0.00    +0.258 C 
ATOM     13  O   UNL     1       7.739  -1.576   3.320  0.00  0.00    -0.271 OA
ATOM     14  C   UNL     1       7.488  -0.207   5.229  0.00  0.00    +0.256 C 
ATOM     15  O   UNL     1       7.013   1.134   5.370  0.00  0.00    -0.478 OA
ATOM     16  C   UNL     1       6.916  -1.071   6.356  0.00  0.00    +0.062 C 
ATOM     17  H   UNL     1       5.529  -0.764   2.396  0.00  0.00    +0.155 HD
ENDBRANCH   3   5
BRANCH   1  24
ATOM     18  C   UNL     1       0.104   1.587  -0.124  0.00  0.00    +0.047 C 
ATOM     19  C   UNL     1      -0.644   1.869   1.153  0.00  0.00    -0.010 A 
ATOM     20  C   UNL     1      -2.024   2.061   1.289  0.00  0.00    +0.042 A 
ATOM     21  C   UNL     1      -2.289   2.293   2.639  0.00  0.00    +0.027 A 
ATOM     22  N   UNL     1      -1.130   2.251   3.297  0.00  0.00    -0.354 N 
ATOM     23  H   UNL     1      -1.109   2.412   4.385  0.00  0.00    +0.166 HD
ATOM     24  C   UNL     1      -0.107   1.994   2.404  0.00  0.00    +0.106 A 
ATOM     25  C   UNL     1      -3.677   2.545   3.169  0.00  0.00    +0.054 C 
ATOM     26  C   UNL     1      -4.582   2.996   2.019  0.00  0.00    +0.014 C 
ATOM     27  C   UNL     1      -4.512   2.004   0.854  0.00  0.00    +0.080 C 
ATOM     28  C   UNL     1      -3.100   2.028   0.287  0.00  0.00    +0.165 C 
ATOM     29  O   UNL     1      -2.878   2.024  -0.906  0.00  0.00    -0.292 OA
ENDBRANCH   1  24
TORSDOF 2
