REMARK  Name = ZINC67238939
REMARK  9 active torsions:
REMARK  status: ('A' for Active; 'I' for Inactive)
REMARK    1  A    between atoms: C_1  and  C_2
REMARK    2  A    between atoms: C_2  and  C_3
REMARK    3  A    between atoms: C_3  and  C_5
REMARK    4  A    between atoms: C_3  and  N_6
REMARK    5  A    between atoms: C_12  and  C_15
REMARK    6  A    between atoms: C_17  and  S_18
REMARK    7  A    between atoms: S_18  and  C_19
REMARK    8  A    between atoms: C_19  and  C_20
REMARK    9  A    between atoms: N_22  and  C_23
REMARK                            x       y       z     vdW  Elec       q    Type
REMARK                         _______ _______ _______ _____ _____    ______ ____
ROOT
ATOM      1  N   UNL     1      -0.051  -0.123  -2.447  0.00  0.00    -0.283 N 
ATOM      2  C   UNL     1      -1.318  -0.570  -2.595  0.00  0.00    +0.279 A 
ATOM      3  O   UNL     1      -1.830  -1.284  -1.749  0.00  0.00    -0.265 OA
ATOM      4  C   UNL     1      -2.033  -0.192  -3.747  0.00  0.00    +0.131 A 
ATOM      5  C   UNL     1      -1.404   0.629  -4.690  0.00  0.00    +0.097 A 
ATOM      6  C   UNL     1      -2.340   0.845  -5.725  0.00  0.00    +0.051 A 
ATOM      7  C   UNL     1      -3.470   0.181  -5.407  0.00  0.00    +0.016 A 
ATOM      8  N   UNL     1      -3.304  -0.452  -4.214  0.00  0.00    -0.353 N 
ATOM      9  H   UNL     1      -3.970  -0.997  -3.766  0.00  0.00    +0.166 HD
ATOM     10  C   UNL     1      -4.723   0.146  -6.244  0.00  0.00    +0.063 C 
ATOM     11  N   UNL     1      -0.137   1.037  -4.478  0.00  0.00    -0.221 NA
ATOM     12  C   UNL     1       0.514   0.680  -3.395  0.00  0.00    +0.173 A 
ENDROOT
BRANCH   1  13
ATOM     13  C   UNL     1       0.718  -0.499  -1.258  0.00  0.00    +0.089 C 
ATOM     14  C   UNL     1       0.856  -2.022  -1.200  0.00  0.00    +0.031 C 
BRANCH  13  16
ATOM     15  C   UNL     1      -0.034   1.525  -0.002  0.00  0.00    +0.006 C 
ATOM     16  C   UNL     1      -0.006  -0.004  -0.004  0.00  0.00    +0.021 C 
ENDBRANCH  13  16
ENDBRANCH   1  13
BRANCH  12  17
ATOM     17  S   UNL     1       2.166   1.248  -3.162  0.00  0.00    -0.078 S 
BRANCH  17  18
ATOM     18  C   UNL     1       2.493   2.260  -4.632  0.00  0.00    +0.173 C 
BRANCH  18  19
ATOM     19  C   UNL     1       3.892   2.814  -4.559  0.00  0.00    +0.227 C 
ATOM     20  O   UNL     1       4.599   2.553  -3.609  0.00  0.00    -0.275 OA
ATOM     21  N   UNL     1       4.358   3.600  -5.550  0.00  0.00    -0.285 N 
ATOM     22  H   UNL     1       3.818   3.755  -6.341  0.00  0.00    +0.155 HD
BRANCH  21  23
ATOM     23  C   UNL     1       5.621   4.194  -5.437  0.00  0.00    +0.035 A 
ATOM     24  C   UNL     1       5.841   5.464  -5.953  0.00  0.00    +0.026 A 
ATOM     25  C   UNL     1       7.087   6.049  -5.841  0.00  0.00    +0.041 A 
ATOM     26  C   UNL     1       8.118   5.370  -5.214  0.00  0.00    +0.142 A 
ATOM     27  C   UNL     1       7.901   4.102  -4.697  0.00  0.00    +0.078 A 
ATOM     28  C   UNL     1       6.654   3.516  -4.803  0.00  0.00    +0.046 A 
ATOM     29 CL   UNL     1       9.195   3.253  -3.912  0.00  0.00    -0.081 Cl
ATOM     30  F   UNL     1       9.336   5.943  -5.106  0.00  0.00    -0.204 F 
ENDBRANCH  21  23
ENDBRANCH  18  19
ENDBRANCH  17  18
ENDBRANCH  12  17
TORSDOF 6
