REMARK  Name = ZINC15507839
REMARK  10 active torsions:
REMARK  status: ('A' for Active; 'I' for Inactive)
REMARK    1  A    between atoms: C_1  and  C_2
REMARK    2  A    between atoms: C_2  and  C_4
REMARK    3  A    between atoms: C_2  and  N_62
REMARK    4  A    between atoms: N_6  and  C_7
REMARK    5  A    between atoms: C_11  and  S_13
REMARK    6  A    between atoms: S_13  and  N_16
REMARK    7  A    between atoms: N_16  and  C_17
REMARK    8  A    between atoms: N_16  and  C_18
REMARK    9  A    between atoms: C_21  and  C_24
REMARK   10  A    between atoms: N_26  and  C_27
REMARK                            x       y       z     vdW  Elec       q    Type
REMARK                         _______ _______ _______ _____ _____    ______ ____
ROOT
ATOM      1  C   UNL     1       7.129   8.540   0.281  0.00  0.00    -0.004 C 
ATOM      2  C   UNL     1       6.426   9.083   1.527  0.00  0.00    +0.016 C 
ENDROOT
BRANCH   2   8
ATOM      3  C   UNL     1       4.305   9.163   2.691  0.00  0.00    -0.077 C 
ATOM      4  C   UNL     1       2.938   8.486   2.814  0.00  0.00    -0.006 C 
ATOM      5  C   UNL     1       2.172   8.650   1.498  0.00  0.00    +0.072 C 
ATOM      6  C   UNL     1       2.999   8.050   0.357  0.00  0.00    -0.006 C 
ATOM      7  C   UNL     1       4.364   8.740   0.305  0.00  0.00    -0.077 C 
ATOM      8  N   UNL     1       5.060   8.524   1.592  0.00  0.00    +0.387 N 
ATOM      9  H   UNL     1       5.121   7.515   1.772  0.00  0.00    -0.081 HD
BRANCH   5  10
ATOM     10  C   UNL     1       0.850   7.934   1.592  0.00  0.00    +0.220 C 
ATOM     11  O   UNL     1       0.548   7.349   2.611  0.00  0.00    -0.275 OA
ATOM     12  N   UNL     1       0.002   7.943   0.544  0.00  0.00    -0.285 N 
ATOM     13  H   UNL     1       0.271   8.351  -0.294  0.00  0.00    +0.155 HD
BRANCH  12  14
ATOM     14  C   UNL     1      -1.266   7.364   0.665  0.00  0.00    +0.033 A 
ATOM     15  C   UNL     1      -1.930   7.390   1.884  0.00  0.00    +0.023 A 
ATOM     16  C   UNL     1      -3.181   6.818   2.000  0.00  0.00    +0.002 A 
ATOM     17  C   UNL     1      -3.771   6.214   0.904  0.00  0.00    +0.000 A 
ATOM     18  C   UNL     1      -3.115   6.191  -0.313  0.00  0.00    +0.002 A 
ATOM     19  C   UNL     1      -1.863   6.761  -0.435  0.00  0.00    +0.023 A 
ENDBRANCH  12  14
ENDBRANCH   5  10
ENDBRANCH   2   8
BRANCH   2  20
ATOM     20  C   UNL     1       7.184   8.657   2.757  0.00  0.00    +0.203 C 
ATOM     21  O   UNL     1       6.859   7.650   3.351  0.00  0.00    -0.277 OA
ATOM     22  N   UNL     1       8.222   9.394   3.199  0.00  0.00    -0.287 N 
ATOM     23  H   UNL     1       8.435  10.237   2.769  0.00  0.00    +0.155 HD
BRANCH  22  24
ATOM     24  C   UNL     1       8.992   8.943   4.276  0.00  0.00    +0.035 A 
ATOM     25  C   UNL     1      10.356   9.206   4.315  0.00  0.00    +0.023 A 
ATOM     26  C   UNL     1      11.113   8.759   5.380  0.00  0.00    +0.004 A 
ATOM     27  C   UNL     1      10.516   8.052   6.407  0.00  0.00    +0.028 A 
ATOM     28  C   UNL     1       9.159   7.789   6.372  0.00  0.00    +0.107 A 
ATOM     29  C   UNL     1       8.395   8.238   5.312  0.00  0.00    +0.051 A 
BRANCH  28  30
ATOM     30  S   UNL     1       8.402   6.888   7.683  0.00  0.00    +0.060 S 
ATOM     31  O   UNL     1       7.223   6.303   7.147  0.00  0.00    -0.153 OA
ATOM     32  O   UNL     1       9.429   6.114   8.289  0.00  0.00    -0.153 OA
BRANCH  30  33
ATOM     33  N   UNL     1       7.910   7.992   8.816  0.00  0.00    -0.183 NA
ATOM     34  C   UNL     1       6.569   8.576   8.735  0.00  0.00    +0.131 C 
ATOM     35  C   UNL     1       8.816   8.383   9.898  0.00  0.00    +0.131 C 
ENDBRANCH  30  33
ENDBRANCH  28  30
ENDBRANCH  22  24
ENDBRANCH   2  20
TORSDOF 7
