REMARK  Name = ZINC59385635
REMARK  11 active torsions:
REMARK  status: ('A' for Active; 'I' for Inactive)
REMARK    1  A    between atoms: C_1  and  C_2
REMARK    2  A    between atoms: C_3  and  C_19
REMARK    3  A    between atoms: C_4  and  C_10
REMARK    4  A    between atoms: C_13  and  N_16
REMARK    5  A    between atoms: N_16  and  C_17
REMARK    6  A    between atoms: N_16  and  C_18
REMARK    7  A    between atoms: N_21  and  N_22
REMARK    8  A    between atoms: C_23  and  C_24
REMARK    9  A    between atoms: C_27  and  C_30
REMARK   10  A    between atoms: C_30  and  O_32
REMARK   11  A    between atoms: O_32  and  C_33
REMARK                            x       y       z     vdW  Elec       q    Type
REMARK                         _______ _______ _______ _____ _____    ______ ____
ROOT
ATOM      1  C   UNL     1      -0.171   1.487   0.160  0.00  0.00    +0.061 C 
ATOM      2  C   UNL     1      -0.087  -0.016   0.101  0.00  0.00    +0.019 C 
ATOM      3  C   UNL     1      -1.222  -0.746   0.131  0.00  0.00    +0.057 C 
ATOM      4  C   UNL     1      -1.092  -2.255   0.070  0.00  0.00    +0.142 C 
ATOM      5  N   UNL     1       0.271  -2.805  -0.017  0.00  0.00    -0.288 N 
ATOM      6  C   UNL     1       1.309  -1.945  -0.037  0.00  0.00    +0.304 C 
ATOM      7  O   UNL     1       2.439  -2.389  -0.109  0.00  0.00    -0.252 OA
ATOM      8  N   UNL     1       1.137  -0.619   0.014  0.00  0.00    -0.273 N 
ATOM      9  H   UNL     1       0.419  -3.762  -0.059  0.00  0.00    +0.151 HD
ATOM     10  H   UNL     1       1.925  -0.053  -0.008  0.00  0.00    +0.156 HD
ENDROOT
BRANCH   4  11
ATOM     11  C   UNL     1      -1.745  -2.828   1.301  0.00  0.00    -0.022 A 
ATOM     12  C   UNL     1      -1.112  -2.730   2.527  0.00  0.00    +0.007 A 
ATOM     13  C   UNL     1      -1.708  -3.253   3.657  0.00  0.00    +0.023 A 
ATOM     14  C   UNL     1      -2.945  -3.879   3.562  0.00  0.00    +0.029 A 
ATOM     15  C   UNL     1      -3.578  -3.976   2.329  0.00  0.00    +0.023 A 
ATOM     16  C   UNL     1      -2.979  -3.445   1.204  0.00  0.00    +0.007 A 
BRANCH  14  17
ATOM     17  N   UNL     1      -3.550  -4.410   4.703  0.00  0.00    -0.336 N 
ATOM     18  C   UNL     1      -2.939  -4.206   6.019  0.00  0.00    +0.129 C 
ATOM     19  C   UNL     1      -4.796  -5.171   4.585  0.00  0.00    +0.129 C 
ENDBRANCH  14  17
ENDBRANCH   4  11
BRANCH   3  20
ATOM     20  C   UNL     1      -2.491  -0.124   0.216  0.00  0.00    +0.263 C 
ATOM     21  O   UNL     1      -3.173   0.009  -0.784  0.00  0.00    -0.269 OA
ATOM     22  N   UNL     1      -2.944   0.323   1.405  0.00  0.00    -0.203 N 
ATOM     23  H   UNL     1      -2.372   0.285   2.187  0.00  0.00    +0.178 HD
BRANCH  22  24
ATOM     24  N   UNL     1      -4.241   0.842   1.510  0.00  0.00    -0.187 NA
ATOM     25  C   UNL     1      -4.677   1.272   2.655  0.00  0.00    +0.138 C 
BRANCH  25  26
ATOM     26  C   UNL     1      -6.040   1.818   2.765  0.00  0.00    -0.005 A 
ATOM     27  C   UNL     1      -6.867   1.868   1.638  0.00  0.00    +0.010 A 
ATOM     28  C   UNL     1      -8.132   2.375   1.741  0.00  0.00    +0.015 A 
ATOM     29  C   UNL     1      -8.600   2.843   2.973  0.00  0.00    +0.059 A 
ATOM     30  C   UNL     1      -7.773   2.794   4.099  0.00  0.00    +0.015 A 
ATOM     31  C   UNL     1      -6.511   2.282   3.999  0.00  0.00    +0.010 A 
BRANCH  29  32
ATOM     32  C   UNL     1      -9.965   3.390   3.083  0.00  0.00    +0.339 C 
ATOM     33  O   UNL     1     -10.683   3.433   2.104  0.00  0.00    -0.245 OA
BRANCH  32  34
ATOM     34  O   UNL     1     -10.416   3.842   4.270  0.00  0.00    -0.464 OA
ATOM     35  C   UNL     1     -11.748   4.358   4.304  0.00  0.00    +0.280 C 
ENDBRANCH  32  34
ENDBRANCH  29  32
ENDBRANCH  25  26
ENDBRANCH  22  24
ENDBRANCH   3  20
TORSDOF 7
