REMARK  Name = ZINC63248944
REMARK  3 active torsions:
REMARK  status: ('A' for Active; 'I' for Inactive)
REMARK    1  A    between atoms: C_1  and  S_2
REMARK    2  A    between atoms: S_2  and  N_5
REMARK    3  A    between atoms: C_9  and  N_11
REMARK                            x       y       z     vdW  Elec       q    Type
REMARK                         _______ _______ _______ _____ _____    ______ ____
ROOT
ATOM      1  N   UNL     1       4.030  -2.107  -2.128  0.00  0.00    -0.324 N 
ATOM      2  C   UNL     1       4.604  -3.366  -2.137  0.00  0.00    +0.131 A 
ATOM      3  C   UNL     1       5.998  -3.522  -2.374  0.00  0.00    +0.051 A 
ATOM      4  C   UNL     1       7.005  -2.491  -2.631  0.00  0.00    -0.025 A 
ATOM      5  C   UNL     1       8.272  -2.908  -2.826  0.00  0.00    -0.004 A 
ATOM      6  S   UNL     1       8.205  -4.674  -2.680  0.00  0.00    -0.073 S 
ATOM      7  C   UNL     1       6.469  -4.850  -2.359  0.00  0.00    +0.114 A 
ATOM      8  N   UNL     1       5.659  -5.867  -2.141  0.00  0.00    -0.228 NA
ATOM      9  C   UNL     1       4.374  -5.660  -1.928  0.00  0.00    +0.224 A 
ATOM     10  N   UNL     1       3.864  -4.442  -1.921  0.00  0.00    -0.220 NA
ATOM     11  C   UNL     1       9.475  -2.059  -3.105  0.00  0.00    +0.043 C 
ATOM     12  C   UNL     1       8.995  -0.658  -3.510  0.00  0.00    +0.005 C 
ATOM     13  C   UNL     1       7.939  -0.191  -2.503  0.00  0.00    +0.005 C 
ATOM     14  C   UNL     1       6.657  -1.005  -2.682  0.00  0.00    +0.037 C 
ATOM     15  H   UNL     1       4.561  -1.331  -2.365  0.00  0.00    +0.148 HD
ENDROOT
BRANCH   1  20
ATOM     16  N   UNL     1       0.952  -0.343  -0.991  0.00  0.00    -0.180 NA
ATOM     17  C   UNL     1       0.011  -0.624  -2.083  0.00  0.00    +0.109 C 
ATOM     18  C   UNL     1       0.269  -2.042  -2.604  0.00  0.00    +0.019 C 
ATOM     19  C   UNL     1       1.743  -2.177  -2.993  0.00  0.00    +0.025 C 
ATOM     20  C   UNL     1       2.621  -1.947  -1.761  0.00  0.00    +0.087 C 
ATOM     21  C   UNL     1       2.390  -0.523  -1.233  0.00  0.00    +0.131 C 
BRANCH  16  23
ATOM     22  C   UNL     1       0.366   1.984   0.358  0.00  0.00    +0.215 C 
ATOM     23  S   UNL     1       0.403   0.175   0.484  0.00  0.00    +0.029 S 
ATOM     24  O   UNL     1       1.404  -0.232   1.407  0.00  0.00    -0.158 OA
ATOM     25  O   UNL     1      -0.920  -0.336   0.578  0.00  0.00    -0.158 OA
ENDBRANCH  16  23
ENDBRANCH   1  20
TORSDOF 2
