REMARK  Name = ZINC17673015
REMARK  7 active torsions:
REMARK  status: ('A' for Active; 'I' for Inactive)
REMARK    1  A    between atoms: C_1  and  C_2
REMARK    2  A    between atoms: N_13  and  C_26
REMARK    3  A    between atoms: C_14  and  S_16
REMARK    4  A    between atoms: S_16  and  C_17
REMARK    5  A    between atoms: C_17  and  C_18
REMARK    6  A    between atoms: C_26  and  C_27
REMARK    7  A    between atoms: C_27  and  C_28
REMARK                            x       y       z     vdW  Elec       q    Type
REMARK                         _______ _______ _______ _____ _____    ______ ____
ROOT
ATOM      1  C   UNL     1       5.789  -2.793   7.898  0.00  0.00    +0.008 C 
ATOM      2  C   UNL     1       4.897  -1.829   7.114  0.00  0.00    -0.009 C 
ATOM      3  C   UNL     1       3.475  -1.865   7.679  0.00  0.00    +0.008 C 
ATOM      4  C   UNL     1       2.646  -0.733   7.071  0.00  0.00    +0.037 C 
ATOM      5  C   UNL     1       2.752  -0.807   5.550  0.00  0.00    -0.023 A 
ATOM      6  C   UNL     1       3.751  -1.496   4.962  0.00  0.00    -0.004 A 
ATOM      7  S   UNL     1       3.477  -1.308   3.221  0.00  0.00    -0.073 S 
ATOM      8  C   UNL     1       2.015  -0.303   3.288  0.00  0.00    +0.117 A 
ATOM      9  C   UNL     1       1.790  -0.146   4.666  0.00  0.00    +0.076 A 
ATOM     10  C   UNL     1       0.649   0.639   5.027  0.00  0.00    +0.263 A 
ATOM     11  O   UNL     1       0.375   0.829   6.199  0.00  0.00    -0.267 OA
ATOM     12  N   UNL     1      -0.115   1.167   4.053  0.00  0.00    -0.287 N 
ATOM     13  C   UNL     1       0.174   0.961   2.735  0.00  0.00    +0.173 A 
ATOM     14  N   UNL     1       1.219   0.242   2.376  0.00  0.00    -0.216 NA
ATOM     15  C   UNL     1       4.853  -2.253   5.639  0.00  0.00    +0.046 C 
ENDROOT
BRANCH  13  16
ATOM     16  S   UNL     1      -0.860   1.669   1.497  0.00  0.00    -0.080 S 
BRANCH  16  17
ATOM     17  C   UNL     1      -0.013   1.086   0.008  0.00  0.00    +0.153 C 
BRANCH  17  18
ATOM     18  C   UNL     1      -0.742   1.585  -1.213  0.00  0.00    +0.146 A 
ATOM     19  N   UNL     1      -1.705   0.857  -1.749  0.00  0.00    -0.199 NA
ATOM     20  C   UNL     1      -2.355   1.297  -2.824  0.00  0.00    +0.217 A 
ATOM     21  N   UNL     1      -2.026   2.465  -3.365  0.00  0.00    -0.181 NA
ATOM     22  C   UNL     1      -1.053   3.192  -2.826  0.00  0.00    +0.217 A 
ATOM     23  N   UNL     1      -0.412   2.748  -1.748  0.00  0.00    -0.199 NA
ATOM     24  N   UNL     1      -0.708   4.406  -3.385  0.00  0.00    -0.327 N 
ATOM     25  N   UNL     1      -3.365   0.538  -3.380  0.00  0.00    -0.327 N 
ATOM     26  H   UNL     1       0.003   4.936  -2.991  0.00  0.00    +0.145 HD
ATOM     27  H   UNL     1      -1.176   4.729  -4.170  0.00  0.00    +0.145 HD
ATOM     28  H   UNL     1      -3.835   0.858  -4.165  0.00  0.00    +0.145 HD
ATOM     29  H   UNL     1      -3.604  -0.315  -2.984  0.00  0.00    +0.145 HD
ENDBRANCH  17  18
ENDBRANCH  16  17
ENDBRANCH  13  16
BRANCH  12  30
ATOM     30  C   UNL     1      -1.281   1.977   4.415  0.00  0.00    +0.132 C 
BRANCH  30  31
ATOM     31  C   UNL     1      -2.508   1.072   4.547  0.00  0.00    +0.057 C 
BRANCH  31  32
ATOM     32  C   UNL     1      -3.708   1.905   4.918  0.00  0.00    -0.046 A 
ATOM     33  C   UNL     1      -4.016   2.118   6.249  0.00  0.00    +0.004 A 
ATOM     34  C   UNL     1      -5.114   2.885   6.590  0.00  0.00    +0.000 A 
ATOM     35  C   UNL     1      -5.910   3.431   5.601  0.00  0.00    +0.000 A 
ATOM     36  C   UNL     1      -5.605   3.213   4.270  0.00  0.00    +0.000 A 
ATOM     37  C   UNL     1      -4.504   2.450   3.929  0.00  0.00    +0.004 A 
ENDBRANCH  31  32
ENDBRANCH  30  31
ENDBRANCH  12  30
TORSDOF 6
