REMARK  Name = ZINC45352526
REMARK  10 active torsions:
REMARK  status: ('A' for Active; 'I' for Inactive)
REMARK    1  A    between atoms: C_1  and  C_2
REMARK    2  A    between atoms: C_2  and  C_3
REMARK    3  A    between atoms: C_2  and  C_4
REMARK    4  A    between atoms: C_4  and  C_6
REMARK    5  A    between atoms: C_4  and  N_12
REMARK    6  A    between atoms: C_13  and  C_15
REMARK    7  A    between atoms: C_15  and  O_16
REMARK    8  A    between atoms: O_16  and  C_17
REMARK    9  A    between atoms: C_17  and  C_19
REMARK   10  A    between atoms: C_22  and  N_25
REMARK                            x       y       z     vdW  Elec       q    Type
REMARK                         _______ _______ _______ _____ _____    ______ ____
ROOT
ATOM      1  O   UNL     1      -0.199   3.128  -4.346  0.00  0.00    -0.452 OA
ENDROOT
BRANCH   1   2
ATOM      2  C   UNL     1      -0.560   3.628  -5.544  0.00  0.00    +0.340 C 
ATOM      3  O   UNL     1      -1.230   2.958  -6.304  0.00  0.00    -0.245 OA
BRANCH   2   4
ATOM      4  C   UNL     1      -0.143   4.989  -5.932  0.00  0.00    +0.059 A 
ATOM      5  C   UNL     1       0.632   5.759  -5.061  0.00  0.00    +0.017 A 
ATOM      6  C   UNL     1       1.019   7.029  -5.427  0.00  0.00    +0.025 A 
ATOM      7  C   UNL     1       0.640   7.545  -6.662  0.00  0.00    +0.044 A 
ATOM      8  C   UNL     1      -0.132   6.781  -7.531  0.00  0.00    +0.025 A 
ATOM      9  C   UNL     1      -0.518   5.508  -7.175  0.00  0.00    +0.017 A 
BRANCH   7  10
ATOM     10  N   UNL     1       1.034   8.834  -7.030  0.00  0.00    -0.210 N 
ATOM     11  C   UNL     1       0.168   9.845  -7.167  0.00  0.00    +0.227 C 
ATOM     12  O   UNL     1      -1.030   9.772  -6.995  0.00  0.00    -0.275 OA
ATOM     13  C   UNL     1       0.921  11.095  -7.571  0.00  0.00    +0.106 C 
ATOM     14  C   UNL     1       2.388  10.625  -7.644  0.00  0.00    +0.106 C 
ATOM     15  C   UNL     1       2.311   9.161  -7.268  0.00  0.00    +0.227 C 
ATOM     16  O   UNL     1       3.254   8.403  -7.197  0.00  0.00    -0.275 OA
ENDBRANCH   7  10
ENDBRANCH   2   4
ENDBRANCH   1   2
BRANCH   1  17
ATOM     17  C   UNL     1      -0.637   1.804  -4.036  0.00  0.00    +0.328 C 
BRANCH  17  19
ATOM     18  N   UNL     1      -0.435   0.205  -2.160  0.00  0.00    -0.305 N 
ATOM     19  C   UNL     1      -0.141   1.419  -2.666  0.00  0.00    +0.251 C 
ATOM     20  O   UNL     1       0.523   2.201  -2.019  0.00  0.00    -0.272 OA
ATOM     21  H   UNL     1      -0.966  -0.421  -2.677  0.00  0.00    +0.149 HD
BRANCH  18  22
ATOM     22  C   UNL     1       0.048  -0.170  -0.828  0.00  0.00    +0.106 C 
BRANCH  22  23
ATOM     23  C   UNL     1       0.145  -1.671  -0.734  0.00  0.00    -0.027 A 
ATOM     24  C   UNL     1      -0.833  -2.464  -1.304  0.00  0.00    +0.005 A 
ATOM     25  C   UNL     1      -0.744  -3.841  -1.217  0.00  0.00    +0.000 A 
ATOM     26  C   UNL     1       0.323  -4.424  -0.560  0.00  0.00    +0.000 A 
ATOM     27  C   UNL     1       1.301  -3.631   0.010  0.00  0.00    +0.000 A 
ATOM     28  C   UNL     1       1.214  -2.255  -0.081  0.00  0.00    +0.005 A 
ENDBRANCH  22  23
BRANCH  22  30
ATOM     29  C   UNL     1      -1.026   1.870   0.135  0.00  0.00    +0.009 C 
ATOM     30  C   UNL     1      -0.927   0.346   0.232  0.00  0.00    +0.008 C 
ATOM     31  C   UNL     1      -2.308  -0.270  -0.003  0.00  0.00    +0.009 C 
ENDBRANCH  22  30
ENDBRANCH  18  22
ENDBRANCH  17  19
ENDBRANCH   1  17
TORSDOF 8
