REMARK  Name = ZINC01802135
REMARK  11 active torsions:
REMARK  status: ('A' for Active; 'I' for Inactive)
REMARK    1  A    between atoms: C_1  and  C_2
REMARK    2  A    between atoms: C_2  and  O_3
REMARK    3  A    between atoms: O_3  and  C_4
REMARK    4  A    between atoms: C_4  and  C_6
REMARK    5  A    between atoms: C_6  and  N_60
REMARK    6  A    between atoms: C_7  and  C_29
REMARK    7  A    between atoms: C_16  and  C_18
REMARK    8  A    between atoms: C_21  and  O_26
REMARK    9  A    between atoms: C_23  and  O_24
REMARK   10  A    between atoms: O_24  and  C_25
REMARK   11  A    between atoms: O_26  and  C_27
REMARK                            x       y       z     vdW  Elec       q    Type
REMARK                         _______ _______ _______ _____ _____    ______ ____
ROOT
ATOM      1  C   UNL     1      -3.536  -0.733  -0.263  0.00  0.00    -0.001 C 
ATOM      2  C   UNL     1      -3.392  -2.072  -0.936  0.00  0.00    -0.035 A 
ATOM      3  C   UNL     1      -4.522  -2.819  -1.220  0.00  0.00    +0.019 A 
ATOM      4  C   UNL     1      -4.403  -4.053  -1.832  0.00  0.00    +0.018 A 
ATOM      5  C   UNL     1      -3.155  -4.549  -2.163  0.00  0.00    +0.017 A 
ATOM      6  C   UNL     1      -2.022  -3.809  -1.884  0.00  0.00    +0.024 A 
ATOM      7  C   UNL     1      -2.140  -2.569  -1.271  0.00  0.00    +0.028 A 
ATOM      8  N   UNL     1      -0.993  -1.817  -0.990  0.00  0.00    -0.353 N 
ATOM      9  C   UNL     1      -1.123  -0.660  -0.091  0.00  0.00    +0.053 C 
ATOM     10 BR   UNL     1      -5.953  -5.066  -2.217  0.00  0.00    -0.050 Br
ATOM     11  H   UNL     1      -0.135  -2.052  -1.378  0.00  0.00    +0.145 HD
ATOM     12  N   UNL     1      -2.332   0.085  -0.506  0.00  0.00    +0.409 N 
ATOM     13  H   UNL     1      -2.268   0.293  -1.510  0.00  0.00    -0.076 HD
ENDROOT
BRANCH   9  14
ATOM     14  C   UNL     1       0.085   0.230  -0.227  0.00  0.00    -0.002 A 
ATOM     15  C   UNL     1       0.064   1.292  -1.111  0.00  0.00    +0.010 A 
ATOM     16  C   UNL     1       1.169   2.110  -1.238  0.00  0.00    +0.046 A 
ATOM     17  C   UNL     1       2.305   1.868  -0.477  0.00  0.00    +0.124 A 
ATOM     18  C   UNL     1       2.328   0.804   0.411  0.00  0.00    +0.091 A 
ATOM     19  C   UNL     1       1.217  -0.016   0.536  0.00  0.00    +0.127 A 
BRANCH  19  20
ATOM     20  O   UNL     1       1.237  -1.060   1.407  0.00  0.00    -0.495 OA
ATOM     21  C   UNL     1       2.436  -1.254   2.160  0.00  0.00    +0.277 C 
ENDBRANCH  19  20
BRANCH  17  22
ATOM     22  O   UNL     1       3.392   2.673  -0.603  0.00  0.00    -0.495 OA
ATOM     23  C   UNL     1       3.298   3.750  -1.538  0.00  0.00    +0.277 C 
ENDBRANCH  17  22
ENDBRANCH   9  14
BRANCH   1  24
ATOM     24  C   UNL     1      -4.731  -0.014  -0.834  0.00  0.00    -0.057 A 
ATOM     25  C   UNL     1      -4.626   0.647  -2.044  0.00  0.00    +0.002 A 
ATOM     26  C   UNL     1      -5.723   1.304  -2.570  0.00  0.00    +0.000 A 
ATOM     27  C   UNL     1      -6.923   1.305  -1.883  0.00  0.00    +0.000 A 
ATOM     28  C   UNL     1      -7.026   0.648  -0.671  0.00  0.00    +0.000 A 
ATOM     29  C   UNL     1      -5.930  -0.011  -0.147  0.00  0.00    +0.002 A 
ENDBRANCH   1  24
BRANCH  12  30
ATOM     30  C   UNL     1      -2.426   1.357   0.244  0.00  0.00    +0.048 C 
BRANCH  30  31
ATOM     31  C   UNL     1      -2.516   1.090   1.724  0.00  0.00    +0.290 C 
ATOM     32  O   UNL     1      -2.451  -0.043   2.139  0.00  0.00    -0.253 OA
BRANCH  31  33
ATOM     33  O   UNL     1      -2.668   2.111   2.582  0.00  0.00    -0.466 OA
BRANCH  33  35
ATOM     34  C   UNL     1      -3.139   3.048   4.780  0.00  0.00    +0.048 C 
ATOM     35  C   UNL     1      -2.865   1.773   3.981  0.00  0.00    +0.228 C 
ENDBRANCH  33  35
ENDBRANCH  31  33
ENDBRANCH  30  31
ENDBRANCH  12  30
TORSDOF 8
