REMARK  Name = ZINC38890341
REMARK  9 active torsions:
REMARK  status: ('A' for Active; 'I' for Inactive)
REMARK    1  A    between atoms: C_1  and  C_2
REMARK    2  A    between atoms: C_5  and  C_8
REMARK    3  A    between atoms: C_10  and  C_13
REMARK    4  A    between atoms: C_13  and  N_14
REMARK    5  A    between atoms: C_18  and  C_21
REMARK    6  A    between atoms: N_23  and  C_24
REMARK    7  A    between atoms: C_29  and  C_30
REMARK    8  A    between atoms: N_32  and  C_33
REMARK    9  A    between atoms: C_33  and  C_34
REMARK                            x       y       z     vdW  Elec       q    Type
REMARK                         _______ _______ _______ _____ _____    ______ ____
ROOT
ATOM      1  N   UNL     1      -1.299  -7.852   1.984  0.00  0.00    +0.386 N 
ATOM      2  C   UNL     1      -1.965  -6.783   2.738  0.00  0.00    -0.078 C 
ATOM      3  C   UNL     1      -3.425  -7.166   2.991  0.00  0.00    -0.018 C 
ATOM      4  C   UNL     1      -3.473  -8.468   3.797  0.00  0.00    +0.009 C 
ATOM      5  C   UNL     1      -2.712  -9.556   3.035  0.00  0.00    +0.059 C 
ATOM      6  C   UNL     1      -1.278  -9.085   2.780  0.00  0.00    -0.065 C 
ATOM      7  H   UNL     1      -1.801  -8.017   1.124  0.00  0.00    -0.081 HD
ENDROOT
BRANCH   5   8
ATOM      8  C   UNL     1      -2.688 -10.821   3.855  0.00  0.00    +0.219 C 
ATOM      9  O   UNL     1      -1.629 -11.301   4.198  0.00  0.00    -0.275 OA
ATOM     10  N   UNL     1      -3.844 -11.418   4.206  0.00  0.00    -0.285 N 
ATOM     11  H   UNL     1      -4.692 -11.000   3.988  0.00  0.00    +0.155 HD
BRANCH  10  12
ATOM     12  C   UNL     1      -3.822 -12.635   4.882  0.00  0.00    +0.046 A 
ATOM     13  C   UNL     1      -2.820 -12.902   5.806  0.00  0.00    +0.024 A 
ATOM     14  C   UNL     1      -2.800 -14.109   6.475  0.00  0.00    +0.002 A 
ATOM     15  C   UNL     1      -3.775 -15.062   6.231  0.00  0.00    +0.001 A 
ATOM     16  C   UNL     1      -4.777 -14.815   5.318  0.00  0.00    +0.015 A 
ATOM     17  C   UNL     1      -4.814 -13.596   4.638  0.00  0.00    +0.058 A 
BRANCH  17  18
ATOM     18  C   UNL     1      -5.888 -13.322   3.663  0.00  0.00    +0.246 C 
ATOM     19  O   UNL     1      -5.861 -12.304   2.999  0.00  0.00    -0.270 OA
ATOM     20  N   UNL     1      -6.898 -14.200   3.510  0.00  0.00    -0.304 N 
ATOM     21  H   UNL     1      -6.920 -15.012   4.040  0.00  0.00    +0.149 HD
BRANCH  20  22
ATOM     22  C   UNL     1      -7.964 -13.929   2.542  0.00  0.00    +0.179 C 
BRANCH  22  23
ATOM     23  C   UNL     1      -8.963 -15.057   2.566  0.00  0.00    +0.122 A 
ATOM     24  C   UNL     1     -10.056 -15.124   3.346  0.00  0.00    +0.046 A 
ATOM     25  C   UNL     1     -10.702 -16.344   3.043  0.00  0.00    +0.041 A 
ATOM     26  C   UNL     1      -9.965 -16.950   2.095  0.00  0.00    +0.195 A 
ATOM     27  O   UNL     1      -8.916 -16.163   1.806  0.00  0.00    -0.466 OA
ENDBRANCH  22  23
ENDBRANCH  20  22
ENDBRANCH  17  18
ENDBRANCH  10  12
ENDBRANCH   5   8
BRANCH   1  28
ATOM     28  C   UNL     1       0.079  -7.447   1.675  0.00  0.00    +0.022 C 
BRANCH  28  31
ATOM     29  C   UNL     1       0.027  -4.201   0.051  0.00  0.00    +0.202 A 
ATOM     30  N   UNL     1       0.044  -5.005   1.130  0.00  0.00    -0.193 NA
ATOM     31  C   UNL     1       0.057  -6.252   0.756  0.00  0.00    +0.211 A 
ATOM     32  O   UNL     1       0.049  -6.295  -0.582  0.00  0.00    -0.340 OA
ATOM     33  N   UNL     1       0.024  -4.947  -1.026  0.00  0.00    -0.056 NA
BRANCH  29  38
ATOM     34  C   UNL     1      -0.049   1.557   0.152  0.00  0.00    +0.044 C 
ATOM     35  C   UNL     1      -0.029   0.050   0.126  0.00  0.00    -0.050 A 
ATOM     36  C   UNL     1      -0.033  -0.618  -1.085  0.00  0.00    +0.004 A 
ATOM     37  C   UNL     1      -0.015  -1.998  -1.115  0.00  0.00    +0.012 A 
ATOM     38  C   UNL     1       0.007  -2.717   0.077  0.00  0.00    +0.022 A 
ATOM     39  C   UNL     1       0.011  -2.039   1.294  0.00  0.00    +0.012 A 
ATOM     40  C   UNL     1      -0.001  -0.659   1.313  0.00  0.00    +0.004 A 
ENDBRANCH  29  38
ENDBRANCH  28  31
ENDBRANCH   1  28
TORSDOF 8
