REMARK  Name = ZINC59936978
REMARK  3 active torsions:
REMARK  status: ('A' for Active; 'I' for Inactive)
REMARK    1  A    between atoms: C_3  and  N_12
REMARK    2  A    between atoms: C_6  and  C_7
REMARK    3  A    between atoms: C_13  and  C_15
REMARK                            x       y       z     vdW  Elec       q    Type
REMARK                         _______ _______ _______ _____ _____    ______ ____
ROOT
ATOM      1  N   UNL     1       3.583   2.133  -0.022  0.00  0.00    -0.285 N 
ATOM      2  C   UNL     1       4.758   1.479   0.065  0.00  0.00    +0.223 C 
ATOM      3  O   UNL     1       4.779   0.266   0.058  0.00  0.00    -0.275 OA
ATOM      4  H   UNL     1       3.569   3.101  -0.084  0.00  0.00    +0.155 HD
ENDROOT
BRANCH   2   5
ATOM      5  C   UNL     1       6.046   2.255   0.170  0.00  0.00    +0.048 C 
ATOM      6  C   UNL     1       6.014   3.127   1.426  0.00  0.00    +0.019 C 
ATOM      7  C   UNL     1       7.322   3.915   1.533  0.00  0.00    -0.009 C 
ATOM      8  C   UNL     1       8.499   2.941   1.617  0.00  0.00    +0.007 C 
ATOM      9  C   UNL     1       8.530   2.069   0.361  0.00  0.00    -0.009 C 
ATOM     10  C   UNL     1       7.223   1.281   0.254  0.00  0.00    +0.019 C 
ATOM     11  C   UNL     1       8.691   2.958  -0.874  0.00  0.00    +0.007 C 
ATOM     12  C   UNL     1       7.515   3.932  -0.958  0.00  0.00    -0.009 C 
ATOM     13  C   UNL     1       7.483   4.804   0.298  0.00  0.00    +0.007 C 
ATOM     14  C   UNL     1       6.207   3.144  -1.065  0.00  0.00    +0.019 C 
ENDBRANCH   2   5
BRANCH   1  17
ATOM     15  C   UNL     1       0.071   1.241   0.596  0.00  0.00    +0.012 A 
ATOM     16  C   UNL     1       1.256   1.947   0.596  0.00  0.00    +0.024 A 
ATOM     17  C   UNL     1       2.381   1.415  -0.022  0.00  0.00    +0.033 A 
ATOM     18  C   UNL     1       2.316   0.172  -0.640  0.00  0.00    +0.024 A 
ATOM     19  C   UNL     1       1.133  -0.536  -0.642  0.00  0.00    +0.012 A 
ATOM     20  C   UNL     1       0.003  -0.005  -0.023  0.00  0.00    +0.003 A 
BRANCH  20  21
ATOM     21  C   UNL     1      -1.271  -0.767  -0.023  0.00  0.00    +0.102 A 
ATOM     22  C   UNL     1      -1.397  -1.997  -0.609  0.00  0.00    +0.097 A 
ATOM     23  S   UNL     1      -3.008  -2.365  -0.307  0.00  0.00    +0.029 S 
ATOM     24  N   UNL     1      -3.441  -1.032   0.501  0.00  0.00    -0.110 NA
ATOM     25  N   UNL     1      -2.375  -0.313   0.549  0.00  0.00    -0.141 NA
ENDBRANCH  20  21
ENDBRANCH   1  17
TORSDOF 3
