REMARK  Name = ZINC39933502
REMARK  5 active torsions:
REMARK  status: ('A' for Active; 'I' for Inactive)
REMARK    1  A    between atoms: C_4  and  N_7
REMARK    2  A    between atoms: C_8  and  S_19
REMARK    3  A    between atoms: S_19  and  C_20
REMARK    4  A    between atoms: C_20  and  C_21
REMARK    5  A    between atoms: C_21  and  C_23
REMARK                            x       y       z     vdW  Elec       q    Type
REMARK                         _______ _______ _______ _____ _____    ______ ____
ROOT
ATOM      1  N   UNL     1       3.618  -0.656  -0.105  0.00  0.00    -0.244 N 
ATOM      2  C   UNL     1       4.960  -0.054  -0.185  0.00  0.00    +0.240 C 
ATOM      3  N   UNL     1       5.872  -1.204  -0.066  0.00  0.00    -0.259 N 
ATOM      4  N   UNL     1       5.056  -2.335   0.068  0.00  0.00    -0.283 N 
ATOM      5  C   UNL     1       3.806  -2.021   0.051  0.00  0.00    +0.183 C 
ATOM      6  N   UNL     1       2.772  -2.940   0.170  0.00  0.00    -0.303 N 
ATOM      7  C   UNL     1       2.007  -3.364  -1.011  0.00  0.00    +0.108 C 
ATOM      8  C   UNL     1       2.026  -4.894  -1.087  0.00  0.00    +0.019 C 
ATOM      9  C   UNL     1       1.514  -5.473   0.234  0.00  0.00    +0.003 C 
ATOM     10  C   UNL     1       2.435  -5.035   1.376  0.00  0.00    +0.019 C 
ATOM     11  C   UNL     1       2.425  -3.511   1.479  0.00  0.00    +0.108 C 
ATOM     12  H   UNL     1       6.841  -1.183  -0.078  0.00  0.00    +0.169 HD
ATOM     13  H   UNL     1       5.391  -3.241   0.165  0.00  0.00    +0.187 HD
ENDROOT
BRANCH   1  17
ATOM     14  C   UNL     1      -0.026   1.351  -0.291  0.00  0.00    +0.000 A 
ATOM     15  C   UNL     1       1.151   2.036  -0.526  0.00  0.00    +0.002 A 
ATOM     16  C   UNL     1       2.362   1.374  -0.465  0.00  0.00    +0.023 A 
ATOM     17  C   UNL     1       2.395   0.018  -0.167  0.00  0.00    +0.039 A 
ATOM     18  C   UNL     1       1.210  -0.668   0.068  0.00  0.00    +0.023 A 
ATOM     19  C   UNL     1       0.003   0.000   0.005  0.00  0.00    +0.002 A 
ENDBRANCH   1  17
BRANCH   2  20
ATOM     20  S   UNL     1       5.188   0.782  -1.779  0.00  0.00    -0.110 S 
BRANCH  20  21
ATOM     21  C   UNL     1       4.972  -0.540  -3.002  0.00  0.00    +0.151 C 
BRANCH  21  22
ATOM     22  C   UNL     1       5.139   0.026  -4.389  0.00  0.00    +0.171 C 
ATOM     23  O   UNL     1       5.380   1.207  -4.537  0.00  0.00    -0.291 OA
BRANCH  22  24
ATOM     24  C   UNL     1       5.015  -0.815  -5.514  0.00  0.00    +0.024 C 
ATOM     25  C   UNL     1       5.144  -0.458  -6.844  0.00  0.00    +0.006 A 
ATOM     26  C   UNL     1       5.420   0.771  -7.488  0.00  0.00    +0.010 A 
ATOM     27  C   UNL     1       5.489   0.834  -8.837  0.00  0.00    +0.001 A 
ATOM     28  C   UNL     1       5.295  -0.291  -9.654  0.00  0.00    +0.002 A 
ATOM     29  C   UNL     1       5.026  -1.510  -9.140  0.00  0.00    +0.026 A 
ATOM     30  C   UNL     1       4.934  -1.666  -7.679  0.00  0.00    +0.043 A 
ATOM     31  N   UNL     1       4.692  -2.703  -6.928  0.00  0.00    -0.380 N 
ATOM     32  C   UNL     1       4.721  -2.299  -5.519  0.00  0.00    +0.152 C 
ATOM     33  H   UNL     1       4.523  -3.602  -7.251  0.00  0.00    +0.160 HD
ENDBRANCH  22  24
ENDBRANCH  21  22
ENDBRANCH  20  21
ENDBRANCH   2  20
TORSDOF 5
