REMARK  Name = ZINC46848285
REMARK  5 active torsions:
REMARK  status: ('A' for Active; 'I' for Inactive)
REMARK    1  A    between atoms: C_4  and  C_8
REMARK    2  A    between atoms: C_16  and  C_18
REMARK    3  A    between atoms: C_18  and  C_19
REMARK    4  A    between atoms: C_19  and  C_20
REMARK    5  A    between atoms: C_22  and  C_25
REMARK                            x       y       z     vdW  Elec       q    Type
REMARK                         _______ _______ _______ _____ _____    ______ ____
ROOT
ATOM      1  C   UNL     1       3.695  -0.687  -0.038  0.00  0.00    +0.250 C 
ATOM      2  O   UNL     1       4.734  -0.067  -0.152  0.00  0.00    -0.270 OA
ATOM      3  N   UNL     1       3.719  -2.031   0.056  0.00  0.00    -0.294 N 
ATOM      4  C   UNL     1       2.468  -2.803   0.060  0.00  0.00    +0.127 C 
ATOM      5  C   UNL     1       2.532  -3.846  -1.063  0.00  0.00    +0.126 C 
ATOM      6  N   UNL     1       3.809  -4.566  -0.963  0.00  0.00    -0.298 N 
ATOM      7  C   UNL     1       5.060  -3.794  -0.967  0.00  0.00    +0.126 C 
ATOM      8  C   UNL     1       4.996  -2.752   0.150  0.00  0.00    +0.127 C 
ATOM      9  C   UNL     1       3.833  -5.910  -0.869  0.00  0.00    +0.216 C 
ATOM     10  O   UNL     1       2.794  -6.537  -0.866  0.00  0.00    -0.276 OA
ENDROOT
BRANCH   1  14
ATOM     11  C   UNL     1      -0.015   1.383   0.060  0.00  0.00    +0.023 A 
ATOM     12  C   UNL     1       0.862   1.595  -0.987  0.00  0.00    +0.040 A 
ATOM     13  C   UNL     1       2.071   0.925  -1.027  0.00  0.00    +0.136 A 
ATOM     14  C   UNL     1       2.405   0.033  -0.004  0.00  0.00    +0.073 A 
ATOM     15  C   UNL     1       1.514  -0.175   1.051  0.00  0.00    +0.036 A 
ATOM     16  C   UNL     1       0.311   0.500   1.077  0.00  0.00    +0.042 A 
ATOM     17 CL   UNL     1      -0.798   0.242   2.387  0.00  0.00    -0.084 Cl
ATOM     18  F   UNL     1       2.927   1.132  -2.052  0.00  0.00    -0.205 F 
ENDBRANCH   1  14
BRANCH   9  19
ATOM     19  C   UNL     1       5.150  -6.635  -0.767  0.00  0.00    +0.105 C 
BRANCH  19  20
ATOM     20  C   UNL     1       4.898  -8.141  -0.672  0.00  0.00    +0.108 C 
BRANCH  20  21
ATOM     21  C   UNL     1       6.215  -8.866  -0.570  0.00  0.00    +0.228 A 
ATOM     22  N   UNL     1       6.837  -9.164   0.535  0.00  0.00    -0.191 NA
ATOM     23  C   UNL     1       7.983  -9.810   0.259  0.00  0.00    +0.202 A 
ATOM     24  N   UNL     1       8.095  -9.928  -1.041  0.00  0.00    -0.056 NA
ATOM     25  O   UNL     1       6.941  -9.318  -1.601  0.00  0.00    -0.338 OA
BRANCH  23  26
ATOM     26  C   UNL     1       8.959 -10.308   1.260  0.00  0.00    +0.025 A 
ATOM     27  C   UNL     1       8.736 -10.133   2.628  0.00  0.00    +0.031 A 
ATOM     28  C   UNL     1       9.669 -10.612   3.526  0.00  0.00    +0.111 A 
ATOM     29  N   UNL     1      10.758 -11.227   3.107  0.00  0.00    -0.263 NA
ATOM     30  C   UNL     1      11.007 -11.413   1.825  0.00  0.00    +0.111 A 
ATOM     31  C   UNL     1      10.123 -10.970   0.861  0.00  0.00    +0.031 A 
ENDBRANCH  23  26
ENDBRANCH  20  21
ENDBRANCH  19  20
ENDBRANCH   9  19
TORSDOF 5
