REMARK  Name = ZINC12881920
REMARK  6 active torsions:
REMARK  status: ('A' for Active; 'I' for Inactive)
REMARK    1  A    between atoms: C_4  and  C_7
REMARK    2  A    between atoms: C_7  and  C_8
REMARK    3  A    between atoms: C_8  and  N_9
REMARK    4  A    between atoms: C_14  and  C_31
REMARK    5  A    between atoms: C_31  and  C_32
REMARK    6  A    between atoms: C_35  and  O_38
REMARK                            x       y       z     vdW  Elec       q    Type
REMARK                         _______ _______ _______ _____ _____    ______ ____
ROOT
ATOM      1  N   UNL     1      -3.049   3.070   1.476  0.00  0.00    -0.241 N 
ATOM      2  C   UNL     1      -4.229   2.441   1.478  0.00  0.00    +0.224 C 
ATOM      3  O   UNL     1      -4.383   1.238   1.474  0.00  0.00    -0.275 OA
ATOM      4  C   UNL     1      -5.343   3.463   1.488  0.00  0.00    +0.073 C 
ATOM      5  C   UNL     1      -6.085   3.417   0.135  0.00  0.00    -0.053 C 
ATOM      6  C   UNL     1      -4.950   5.478   0.162  0.00  0.00    +0.050 C 
ATOM      7  C   UNL     1      -4.584   4.820   1.497  0.00  0.00    +0.088 C 
ATOM      8  C   UNL     1      -3.130   4.406   1.489  0.00  0.00    +0.225 C 
ATOM      9  O   UNL     1      -2.186   5.165   1.491  0.00  0.00    -0.275 OA
ATOM     10  C   UNL     1      -3.873   5.285  -0.867  0.00  0.00    -0.026 A 
ATOM     11  C   UNL     1      -3.286   4.173  -1.428  0.00  0.00    +0.004 A 
ATOM     12  C   UNL     1      -2.291   4.319  -2.378  0.00  0.00    +0.002 A 
ATOM     13  C   UNL     1      -1.887   5.584  -2.762  0.00  0.00    +0.022 A 
ATOM     14  C   UNL     1      -2.471   6.702  -2.202  0.00  0.00    +0.062 A 
ATOM     15  C   UNL     1      -3.474   6.564  -1.244  0.00  0.00    +0.054 A 
ATOM     16  N   UNL     1      -4.205   7.525  -0.542  0.00  0.00    -0.285 N 
ATOM     17  C   UNL     1      -5.093   6.969   0.305  0.00  0.00    +0.211 C 
ATOM     18  O   UNL     1      -5.858   7.556   1.040  0.00  0.00    -0.277 OA
ATOM     19 CL   UNL     1      -1.955   8.286  -2.692  0.00  0.00    -0.082 Cl
ATOM     20  H   UNL     1      -4.086   8.482  -0.651  0.00  0.00    +0.155 HD
ATOM     21  N   UNL     1      -6.193   4.841  -0.247  0.00  0.00    +0.394 N 
ATOM     22  H   UNL     1      -6.989   5.277   0.234  0.00  0.00    -0.083 HD
ATOM     23  H   UNL     1      -6.317   4.927  -1.262  0.00  0.00    -0.083 HD
ENDROOT
BRANCH   1  24
ATOM     24  C   UNL     1      -1.770   2.355   1.466  0.00  0.00    +0.121 C 
BRANCH  24  25
ATOM     25  C   UNL     1      -1.332   2.114   0.020  0.00  0.00    +0.054 C 
BRANCH  25  29
ATOM     26  C   UNL     1       2.396   0.029  -0.021  0.00  0.00    +0.000 A 
ATOM     27  C   UNL     1       1.208  -0.679  -0.013  0.00  0.00    +0.000 A 
ATOM     28  C   UNL     1       0.002  -0.004   0.002  0.00  0.00    +0.004 A 
ATOM     29  C   UNL     1      -0.017   1.378   0.010  0.00  0.00    -0.046 A 
ATOM     30  C   UNL     1       1.171   2.086   0.002  0.00  0.00    +0.004 A 
ATOM     31  C   UNL     1       2.377   1.411  -0.015  0.00  0.00    +0.000 A 
ENDBRANCH  25  29
ENDBRANCH  24  25
ENDBRANCH   1  24
BRANCH   5  32
ATOM     32  C   UNL     1      -7.459   2.765   0.303  0.00  0.00    +0.020 C 
BRANCH  32  33
ATOM     33  C   UNL     1      -8.114   2.619  -1.046  0.00  0.00    -0.049 A 
ATOM     34  C   UNL     1      -8.917   3.632  -1.537  0.00  0.00    +0.007 A 
ATOM     35  C   UNL     1      -9.514   3.502  -2.776  0.00  0.00    +0.045 A 
ATOM     36  C   UNL     1      -9.316   2.350  -3.523  0.00  0.00    +0.117 A 
ATOM     37  C   UNL     1      -8.515   1.332  -3.026  0.00  0.00    +0.045 A 
ATOM     38  C   UNL     1      -7.916   1.469  -1.788  0.00  0.00    +0.007 A 
BRANCH  36  39
ATOM     39  O   UNL     1      -9.907   2.218  -4.740  0.00  0.00    -0.507 OA
ATOM     40  H   UNL     1     -10.783   1.811  -4.710  0.00  0.00    +0.292 HD
ENDBRANCH  36  39
ENDBRANCH  32  33
ENDBRANCH   5  32
TORSDOF 6
