REMARK  Name = ZINC07383818
REMARK  9 active torsions:
REMARK  status: ('A' for Active; 'I' for Inactive)
REMARK    1  A    between atoms: C_1  and  C_2
REMARK    2  A    between atoms: C_2  and  C_3
REMARK    3  A    between atoms: C_2  and  C_4
REMARK    4  A    between atoms: C_2  and  C_5
REMARK    5  A    between atoms: C_8  and  C_11
REMARK    6  A    between atoms: C_14  and  S_16
REMARK    7  A    between atoms: S_16  and  C_17
REMARK    8  A    between atoms: C_17  and  C_18
REMARK    9  A    between atoms: C_24  and  C_27
REMARK                            x       y       z     vdW  Elec       q    Type
REMARK                         _______ _______ _______ _____ _____    ______ ____
ROOT
ATOM      1  C   UNL     1       0.002  -0.004   0.002  0.00  0.00    +0.249 A 
ATOM      2  N   UNL     1       1.069  -0.765  -0.018  0.00  0.00    -0.106 NA
ATOM      3  N   UNL     1       0.712  -2.002  -0.016  0.00  0.00    -0.101 NA
ATOM      4  C   UNL     1      -0.599  -2.078  -0.004  0.00  0.00    +0.278 A 
ATOM      5  O   UNL     1      -1.076  -0.819   0.008  0.00  0.00    -0.411 OA
ENDROOT
BRANCH   1   9
ATOM      6  C   UNL     1      -0.056   4.242   0.025  0.00  0.00    -0.042 A 
ATOM      7  C   UNL     1       1.154   3.570   0.010  0.00  0.00    +0.005 A 
ATOM      8  C   UNL     1       1.180   2.191   0.003  0.00  0.00    +0.013 A 
ATOM      9  C   UNL     1      -0.018   1.473   0.010  0.00  0.00    +0.039 A 
ATOM     10  C   UNL     1      -1.235   2.158   0.020  0.00  0.00    +0.013 A 
ATOM     11  C   UNL     1      -1.246   3.537   0.033  0.00  0.00    +0.005 A 
BRANCH   6  13
ATOM     12  C   UNL     1       0.626   6.275  -1.221  0.00  0.00    +0.015 C 
ATOM     13  C   UNL     1      -0.076   5.749   0.033  0.00  0.00    -0.013 C 
ATOM     14  C   UNL     1      -1.525   6.239   0.049  0.00  0.00    +0.015 C 
ATOM     15  C   UNL     1       0.650   6.263   1.278  0.00  0.00    +0.015 C 
ENDBRANCH   6  13
ENDBRANCH   1   9
BRANCH   4  16
ATOM     16  S   UNL     1      -1.557  -3.557  -0.002  0.00  0.00    -0.056 S 
BRANCH  16  17
ATOM     17  C   UNL     1      -0.233  -4.790  -0.022  0.00  0.00    +0.174 C 
BRANCH  17  18
ATOM     18  C   UNL     1      -0.833  -6.172  -0.024  0.00  0.00    +0.226 C 
ATOM     19  O   UNL     1      -2.038  -6.310  -0.012  0.00  0.00    -0.275 OA
ATOM     20  N   UNL     1      -0.031  -7.255  -0.038  0.00  0.00    -0.300 N 
ATOM     21  C   UNL     1       1.431  -7.104  -0.059  0.00  0.00    +0.108 C 
ATOM     22  C   UNL     1       1.997  -7.903  -1.231  0.00  0.00    +0.020 C 
ATOM     23  C   UNL     1       1.515  -9.353  -1.137  0.00  0.00    +0.016 C 
ATOM     24  C   UNL     1      -0.012  -9.391  -1.218  0.00  0.00    +0.092 C 
ATOM     25  C   UNL     1      -0.601  -8.609  -0.040  0.00  0.00    +0.120 C 
BRANCH  24  26
ATOM     26  C   UNL     1      -0.484 -10.821  -1.158  0.00  0.00    +0.215 C 
ATOM     27  O   UNL     1       0.323 -11.722  -1.064  0.00  0.00    -0.276 OA
ATOM     28  N   UNL     1      -1.801 -11.099  -1.210  0.00  0.00    -0.329 N 
ATOM     29  H   UNL     1      -2.446 -10.379  -1.285  0.00  0.00    +0.145 HD
ATOM     30  H   UNL     1      -2.105 -12.020  -1.171  0.00  0.00    +0.145 HD
ENDBRANCH  24  26
ENDBRANCH  17  18
ENDBRANCH  16  17
ENDBRANCH   4  16
TORSDOF 6
