REMARK  Name = ZINC13275161
REMARK  6 active torsions:
REMARK  status: ('A' for Active; 'I' for Inactive)
REMARK    1  A    between atoms: C_6  and  O_7
REMARK    2  A    between atoms: O_7  and  C_8
REMARK    3  A    between atoms: C_11  and  S_17
REMARK    4  A    between atoms: C_13  and  N_14
REMARK    5  A    between atoms: S_17  and  N_20
REMARK    6  A    between atoms: C_23  and  C_26
REMARK                            x       y       z     vdW  Elec       q    Type
REMARK                         _______ _______ _______ _____ _____    ______ ____
ROOT
ATOM      1  C   UNL     1       4.725   0.098  -0.148  0.00  0.00    +0.159 A 
ATOM      2  C   UNL     1       4.664   1.485  -0.138  0.00  0.00    +0.050 A 
ATOM      3  C   UNL     1       5.823   2.227  -0.251  0.00  0.00    +0.032 A 
ATOM      4  C   UNL     1       7.044   1.589  -0.374  0.00  0.00    +0.108 A 
ATOM      5  C   UNL     1       7.108   0.208  -0.385  0.00  0.00    +0.065 A 
ATOM      6  C   UNL     1       5.952  -0.539  -0.266  0.00  0.00    +0.170 A 
ENDROOT
BRANCH   6   7
ATOM      7  N   UNL     1       6.021  -2.017  -0.271  0.00  0.00    +0.060 N 
ATOM      8  O   UNL     1       7.098  -2.576  -0.375  0.00  0.00    -0.126 OA
ATOM      9  O   UNL     1       5.001  -2.675  -0.172  0.00  0.00    -0.126 OA
ENDBRANCH   6   7
BRANCH   4  10
ATOM     10  S   UNL     1       8.521   2.539  -0.518  0.00  0.00    +0.061 S 
ATOM     11  O   UNL     1       9.475   1.710  -1.169  0.00  0.00    -0.153 OA
ATOM     12  O   UNL     1       8.140   3.808  -1.030  0.00  0.00    -0.153 OA
BRANCH  10  13
ATOM     13  N   UNL     1       9.088   2.798   1.016  0.00  0.00    -0.177 NA
ATOM     14  C   UNL     1       8.671   3.984   1.778  0.00  0.00    +0.110 C 
ATOM     15  C   UNL     1       9.915   4.726   2.263  0.00  0.00    +0.032 C 
ATOM     16  C   UNL     1      10.811   3.761   3.042  0.00  0.00    +0.105 C 
ATOM     17  C   UNL     1      11.255   2.620   2.124  0.00  0.00    +0.032 C 
ATOM     18  C   UNL     1      10.022   1.851   1.639  0.00  0.00    +0.110 C 
BRANCH  16  19
ATOM     19  C   UNL     1      12.024   4.499   3.547  0.00  0.00    +0.359 C 
ATOM     20  O   UNL     1      13.130   4.149   3.208  0.00  0.00    -0.246 OA
ATOM     21  O   UNL     1      11.876   5.546   4.375  0.00  0.00    -0.246 OA
ENDBRANCH  16  19
ENDBRANCH  10  13
ENDBRANCH   4  10
BRANCH   1  22
ATOM     22  O   UNL     1       3.586  -0.634  -0.036  0.00  0.00    -0.454 OA
BRANCH  22  28
ATOM     23  C   UNL     1       1.615   0.067   1.098  0.00  0.00    +0.048 A 
ATOM     24  C   UNL     1       0.409   0.740   1.086  0.00  0.00    +0.025 A 
ATOM     25  C   UNL     1      -0.019   1.374  -0.066  0.00  0.00    +0.059 A 
ATOM     26  C   UNL     1       0.760   1.337  -1.210  0.00  0.00    +0.063 A 
ATOM     27  C   UNL     1       1.968   0.664  -1.202  0.00  0.00    +0.067 A 
ATOM     28  C   UNL     1       2.398   0.027  -0.047  0.00  0.00    +0.130 A 
ATOM     29 CL   UNL     1       0.221   2.133  -2.655  0.00  0.00    -0.082 Cl
ATOM     30 CL   UNL     1      -1.540   2.213  -0.081  0.00  0.00    -0.082 Cl
ENDBRANCH  22  28
ENDBRANCH   1  22
TORSDOF 6
