REMARK  Name = ZINC37277342
REMARK  8 active torsions:
REMARK  status: ('A' for Active; 'I' for Inactive)
REMARK    1  A    between atoms: C_1  and  C_2
REMARK    2  A    between atoms: C_2  and  C_3
REMARK    3  A    between atoms: C_3  and  C_5
REMARK    4  A    between atoms: C_3  and  C_11
REMARK    5  A    between atoms: N_13  and  C_14
REMARK    6  A    between atoms: N_17  and  C_20
REMARK    7  A    between atoms: C_25  and  C_26
REMARK    8  A    between atoms: N_31  and  C_34
REMARK                            x       y       z     vdW  Elec       q    Type
REMARK                         _______ _______ _______ _____ _____    ______ ____
ROOT
ATOM      1  C   UNL     1       4.203  -7.263  -0.774  0.00  0.00    +0.042 A 
ATOM      2  C   UNL     1       4.124  -8.644  -0.639  0.00  0.00    +0.024 A 
ATOM      3  C   UNL     1       5.003  -9.456  -1.326  0.00  0.00    +0.002 A 
ATOM      4  C   UNL     1       5.968  -8.904  -2.154  0.00  0.00    +0.001 A 
ATOM      5  C   UNL     1       6.061  -7.538  -2.300  0.00  0.00    +0.015 A 
ATOM      6  C   UNL     1       5.175  -6.702  -1.615  0.00  0.00    +0.058 A 
ENDROOT
BRANCH   6   7
ATOM      7  C   UNL     1       5.265  -5.238  -1.772  0.00  0.00    +0.248 C 
ATOM      8  O   UNL     1       5.325  -4.524  -0.790  0.00  0.00    -0.270 OA
ATOM      9  N   UNL     1       5.281  -4.692  -3.004  0.00  0.00    -0.301 N 
ATOM     10  C   UNL     1       5.078  -5.522  -4.202  0.00  0.00    +0.089 C 
ATOM     11  C   UNL     1       3.996  -4.868  -5.068  0.00  0.00    -0.059 C 
ATOM     12  N   UNL     1       4.372  -3.477  -5.351  0.00  0.00    +0.384 N 
ATOM     13  C   UNL     1       4.400  -2.703  -4.103  0.00  0.00    -0.059 C 
ATOM     14  C   UNL     1       5.496  -3.249  -3.189  0.00  0.00    +0.089 C 
ATOM     15  H   UNL     1       5.285  -3.456  -5.778  0.00  0.00    -0.081 HD
BRANCH  12  16
ATOM     16  C   UNL     1       3.391  -2.884  -6.270  0.00  0.00    -0.068 C 
ATOM     17  C   UNL     1       3.408  -3.636  -7.617  0.00  0.00    -0.015 C 
ATOM     18  C   UNL     1       3.190  -2.525  -8.674  0.00  0.00    -0.002 C 
ATOM     19  C   UNL     1       4.005  -1.341  -8.099  0.00  0.00    -0.002 C 
ATOM     20  C   UNL     1       3.770  -1.425  -6.576  0.00  0.00    -0.015 C 
ENDBRANCH  12  16
ENDBRANCH   6   7
BRANCH   1  24
ATOM     21  C   UNL     1       2.218  -4.038   0.916  0.00  0.00    +0.076 C 
ATOM     22  C   UNL     1       3.533  -4.582   1.480  0.00  0.00    +0.041 C 
ATOM     23  C   UNL     1       3.558  -6.106   1.327  0.00  0.00    +0.107 C 
ATOM     24  N   UNL     1       3.319  -6.443  -0.083  0.00  0.00    -0.329 N 
ATOM     25  C   UNL     1       2.129  -5.897  -0.749  0.00  0.00    +0.107 C 
ATOM     26  C   UNL     1       2.120  -4.375  -0.573  0.00  0.00    +0.041 C 
BRANCH  21  29
ATOM     27  C   UNL     1       1.748  -2.057   2.255  0.00  0.00    +0.221 C 
ATOM     28  O   UNL     1       1.397  -2.786   3.158  0.00  0.00    -0.275 OA
ATOM     29  N   UNL     1       2.177  -2.584   1.091  0.00  0.00    -0.312 N 
ATOM     30  H   UNL     1       2.458  -2.000   0.369  0.00  0.00    +0.149 HD
BRANCH  27  31
ATOM     31  C   UNL     1       1.706  -0.561   2.435  0.00  0.00    +0.105 C 
BRANCH  31  32
ATOM     32  C   UNL     1       1.193  -0.235   3.814  0.00  0.00    -0.036 A 
ATOM     33  C   UNL     1      -0.064  -0.658   4.202  0.00  0.00    +0.004 A 
ATOM     34  C   UNL     1      -0.534  -0.359   5.467  0.00  0.00    +0.000 A 
ATOM     35  C   UNL     1       0.253   0.363   6.344  0.00  0.00    +0.000 A 
ATOM     36  C   UNL     1       1.511   0.785   5.957  0.00  0.00    +0.000 A 
ATOM     37  C   UNL     1       1.983   0.483   4.693  0.00  0.00    +0.004 A 
ENDBRANCH  31  32
BRANCH  31  39
ATOM     38  C   UNL     1       0.828   1.578   1.488  0.00  0.00    +0.005 C 
ATOM     39  C   UNL     1       0.775   0.052   1.387  0.00  0.00    +0.014 C 
ENDBRANCH  31  39
ENDBRANCH  27  31
ENDBRANCH  21  29
ENDBRANCH   1  24
TORSDOF 7
