REMARK  Name = ZINC20883781
REMARK  11 active torsions:
REMARK  status: ('A' for Active; 'I' for Inactive)
REMARK    1  A    between atoms: C_1  and  C_2
REMARK    2  A    between atoms: C_2  and  C_3
REMARK    3  A    between atoms: C_2  and  O_4
REMARK    4  A    between atoms: O_4  and  C_5
REMARK    5  A    between atoms: C_6  and  C_13
REMARK    6  A    between atoms: C_10  and  O_11
REMARK    7  A    between atoms: O_11  and  C_12
REMARK    8  A    between atoms: C_18  and  C_23
REMARK    9  A    between atoms: C_26  and  N_29
REMARK   10  A    between atoms: N_29  and  C_30
REMARK   11  A    between atoms: N_29  and  C_31
REMARK                            x       y       z     vdW  Elec       q    Type
REMARK                         _______ _______ _______ _____ _____    ______ ____
ROOT
ATOM      1  C   UNL     1       1.111  -2.168  -0.742  0.00  0.00    +0.140 C 
ATOM      2  C   UNL     1       1.039  -0.662  -0.648  0.00  0.00    +0.037 C 
ATOM      3  C   UNL     1       0.079   0.043  -0.027  0.00  0.00    +0.017 C 
ATOM      4  C   UNL     1       0.118   1.563  -0.030  0.00  0.00    +0.059 C 
ATOM      5  C   UNL     1       1.567   2.046  -0.029  0.00  0.00    +0.032 C 
ATOM      6  C   UNL     1       2.243   1.496  -1.290  0.00  0.00    +0.088 C 
ATOM      7  C   UNL     1       2.109   0.002  -1.291  0.00  0.00    +0.163 C 
ATOM      8  O   UNL     1       2.951  -0.661  -1.865  0.00  0.00    -0.292 OA
ATOM      9  N   UNL     1      -0.977  -0.495   0.634  0.00  0.00    -0.316 N 
ATOM     10  C   UNL     1      -1.782  -1.516   0.143  0.00  0.00    +0.052 A 
ATOM     11  C   UNL     1      -3.136  -1.341  -0.085  0.00  0.00    +0.025 A 
ATOM     12  C   UNL     1      -3.904  -2.427  -0.470  0.00  0.00    +0.002 A 
ATOM     13  C   UNL     1      -3.323  -3.672  -0.626  0.00  0.00    +0.002 A 
ATOM     14  C   UNL     1      -1.965  -3.843  -0.419  0.00  0.00    +0.025 A 
ATOM     15  C   UNL     1      -1.190  -2.755  -0.050  0.00  0.00    +0.049 A 
ATOM     16  N   UNL     1       0.187  -2.868   0.126  0.00  0.00    -0.331 N 
ATOM     17  H   UNL     1      -1.246  -0.125   1.634  0.00  0.00    +0.152 HD
ATOM     18  H   UNL     1       0.570  -3.501   0.940  0.00  0.00    +0.147 HD
ENDROOT
BRANCH   1  20
ATOM     19  C   UNL     1       1.825  -3.141  -2.938  0.00  0.00    +0.168 A 
ATOM     20  C   UNL     1       0.825  -2.572  -2.165  0.00  0.00    +0.023 A 
ATOM     21  C   UNL     1      -0.436  -2.381  -2.697  0.00  0.00    +0.009 A 
ATOM     22  C   UNL     1      -0.701  -2.747  -4.004  0.00  0.00    +0.004 A 
ATOM     23  C   UNL     1       0.292  -3.314  -4.781  0.00  0.00    +0.049 A 
ATOM     24  C   UNL     1       1.557  -3.513  -4.252  0.00  0.00    +0.162 A 
BRANCH  24  25
ATOM     25  O   UNL     1       2.534  -4.072  -5.015  0.00  0.00    -0.491 OA
ATOM     26  C   UNL     1       2.188  -4.430  -6.354  0.00  0.00    +0.277 C 
ENDBRANCH  24  25
BRANCH  19  27
ATOM     27  O   UNL     1       3.065  -3.334  -2.414  0.00  0.00    -0.485 OA
BRANCH  27  29
ATOM     28  C   UNL     1       3.834  -5.595  -2.786  0.00  0.00    +0.051 C 
ATOM     29  C   UNL     1       3.307  -4.584  -1.765  0.00  0.00    +0.168 C 
ATOM     30  C   UNL     1       4.343  -4.391  -0.656  0.00  0.00    +0.051 C 
ENDBRANCH  27  29
ENDBRANCH  19  27
ENDBRANCH   1  20
BRANCH   5  31
ATOM     31  C   UNL     1       1.603   3.553  -0.047  0.00  0.00    -0.043 A 
ATOM     32  C   UNL     1       1.030   4.244  -1.098  0.00  0.00    +0.006 A 
ATOM     33  C   UNL     1       1.056   5.625  -1.115  0.00  0.00    +0.023 A 
ATOM     34  C   UNL     1       1.669   6.319  -0.079  0.00  0.00    +0.029 A 
ATOM     35  C   UNL     1       2.248   5.621   0.973  0.00  0.00    +0.023 A 
ATOM     36  C   UNL     1       2.213   4.240   0.986  0.00  0.00    +0.006 A 
BRANCH  34  37
ATOM     37  N   UNL     1       1.702   7.715  -0.095  0.00  0.00    -0.336 N 
ATOM     38  C   UNL     1       2.348   8.445   0.999  0.00  0.00    +0.129 C 
ATOM     39  C   UNL     1       1.090   8.450  -1.205  0.00  0.00    +0.129 C 
ENDBRANCH  34  37
ENDBRANCH   5  31
TORSDOF 6
