REMARK  Name = ZINC01642143
REMARK  6 active torsions:
REMARK  status: ('A' for Active; 'I' for Inactive)
REMARK    1  A    between atoms: C_9  and  O_30
REMARK    2  A    between atoms: C_10  and  C_11
REMARK    3  A    between atoms: N_13  and  N_18
REMARK    4  A    between atoms: N_18  and  S_19
REMARK    5  A    between atoms: S_19  and  C_22
REMARK    6  A    between atoms: C_26  and  C_28
REMARK                            x       y       z     vdW  Elec       q    Type
REMARK                         _______ _______ _______ _____ _____    ______ ____
ROOT
ATOM      1  C   UNL     1       2.441   6.249  -2.788  0.00  0.00    +0.187 C 
ATOM      2  N   UNL     1       3.604   6.952  -2.215  0.00  0.00    -0.199 N 
ATOM      3  C   UNL     1       3.775   8.242  -2.474  0.00  0.00    +0.242 C 
ATOM      4  O   UNL     1       4.724   8.852  -2.029  0.00  0.00    -0.273 OA
ATOM      5  C   UNL     1       2.738   8.927  -3.350  0.00  0.00    +0.168 C 
ATOM      6  S   UNL     1       1.387   7.670  -3.317  0.00  0.00    -0.123 S 
ENDROOT
BRANCH   1  16
ATOM      7  C   UNL     1       0.950   1.369  -2.406  0.00  0.00    +0.001 A 
ATOM      8  C   UNL     1       1.597   2.123  -3.383  0.00  0.00    +0.001 A 
ATOM      9  C   UNL     1       1.863   3.443  -3.187  0.00  0.00    +0.009 A 
ATOM     10  C   UNL     1       1.477   4.059  -1.984  0.00  0.00    -0.009 A 
ATOM     11  C   UNL     1       0.824   3.291  -0.988  0.00  0.00    -0.017 A 
ATOM     12  C   UNL     1       0.566   1.930  -1.227  0.00  0.00    +0.008 A 
ATOM     13  C   UNL     1       0.443   3.904   0.218  0.00  0.00    +0.012 A 
ATOM     14  C   UNL     1       0.708   5.223   0.418  0.00  0.00    +0.046 A 
ATOM     15  C   UNL     1       1.357   5.981  -0.561  0.00  0.00    +0.123 A 
ATOM     16  C   UNL     1       1.742   5.417  -1.744  0.00  0.00    +0.033 A 
BRANCH  15  17
ATOM     17  O   UNL     1       1.608   7.297  -0.332  0.00  0.00    -0.506 OA
ATOM     18  H   UNL     1       0.870   7.882  -0.549  0.00  0.00    +0.292 HD
ENDBRANCH  15  17
ENDBRANCH   1  16
BRANCH   2  19
ATOM     19  N   UNL     1       4.521   6.263  -1.410  0.00  0.00    -0.104 NA
ATOM     20  H   UNL     1       4.450   6.311  -0.444  0.00  0.00    +0.172 HD
BRANCH  19  21
ATOM     21  S   UNL     1       5.728   5.370  -2.108  0.00  0.00    +0.074 S 
ATOM     22  O   UNL     1       5.091   4.398  -2.927  0.00  0.00    -0.152 OA
ATOM     23  O   UNL     1       6.627   5.016  -1.066  0.00  0.00    -0.152 OA
BRANCH  21  24
ATOM     24  C   UNL     1       6.610   6.442  -3.193  0.00  0.00    +0.108 A 
ATOM     25  C   UNL     1       6.271   6.500  -4.533  0.00  0.00    +0.028 A 
ATOM     26  C   UNL     1       6.958   7.341  -5.391  0.00  0.00    +0.003 A 
ATOM     27  C   UNL     1       7.984   8.130  -4.914  0.00  0.00    +0.015 A 
ATOM     28  C   UNL     1       8.335   8.072  -3.564  0.00  0.00    +0.065 A 
ATOM     29  C   UNL     1       7.637   7.222  -2.703  0.00  0.00    +0.043 A 
BRANCH  28  30
ATOM     30  C   UNL     1       9.436   8.910  -3.047  0.00  0.00    +0.387 C 
ATOM     31  O   UNL     1       9.736   8.862  -1.871  0.00  0.00    -0.241 OA
ATOM     32  O   UNL     1      10.107   9.729  -3.880  0.00  0.00    -0.241 OA
ENDBRANCH  28  30
ENDBRANCH  21  24
ENDBRANCH  19  21
ENDBRANCH   2  19
TORSDOF 6
