REMARK  Name = ZINC13237794
REMARK  12 active torsions:
REMARK  status: ('A' for Active; 'I' for Inactive)
REMARK    1  A    between atoms: C_1  and  C_2
REMARK    2  A    between atoms: C_4  and  C_31
REMARK    3  A    between atoms: C_6  and  S_10
REMARK    4  A    between atoms: C_7  and  C_8
REMARK    5  A    between atoms: S_10  and  C_11
REMARK    6  A    between atoms: C_11  and  C_12
REMARK    7  A    between atoms: N_14  and  C_15
REMARK    8  A    between atoms: C_16  and  C_29
REMARK    9  A    between atoms: C_17  and  C_28
REMARK   10  A    between atoms: C_18  and  C_27
REMARK   11  A    between atoms: N_19  and  C_20
REMARK   12  A    between atoms: C_20  and  C_21
REMARK                            x       y       z     vdW  Elec       q    Type
REMARK                         _______ _______ _______ _____ _____    ______ ____
ROOT
ATOM      1  C   UNL     1      -5.774   2.982  -2.042  0.00  0.00    +0.228 C 
ATOM      2  O   UNL     1      -6.259   3.670  -2.915  0.00  0.00    -0.275 OA
ATOM      3  N   UNL     1      -6.571   2.247  -1.242  0.00  0.00    -0.270 N 
ATOM      4  H   UNL     1      -6.185   1.723  -0.522  0.00  0.00    +0.156 HD
ENDROOT
BRANCH   3   5
ATOM      5  C   UNL     1      -7.942   2.239  -1.447  0.00  0.00    +0.123 A 
ATOM      6  C   UNL     1      -8.589   1.911  -2.631  0.00  0.00    +0.095 A 
ATOM      7  C   UNL     1     -10.025   2.048  -2.357  0.00  0.00    -0.011 A 
ATOM      8  C   UNL     1     -10.139   2.434  -1.076  0.00  0.00    +0.022 A 
ATOM      9  N   UNL     1      -8.891   2.544  -0.524  0.00  0.00    -0.329 N 
ATOM     10  C   UNL     1     -11.437   2.697  -0.357  0.00  0.00    +0.064 C 
ATOM     11  C   UNL     1     -11.152   1.803  -3.327  0.00  0.00    +0.047 C 
BRANCH   6  12
ATOM     12  C   UNL     1      -7.980   1.521  -3.866  0.00  0.00    +0.103 C 
ATOM     13  N   UNL     1      -7.497   1.211  -4.846  0.00  0.00    -0.191 NA
ENDBRANCH   6  12
BRANCH   9  14
ATOM     14  C   UNL     1      -8.618   2.938   0.860  0.00  0.00    +0.154 C 
BRANCH  14  15
ATOM     15  C   UNL     1      -8.324   4.439   0.915  0.00  0.00    +0.138 C 
ATOM     16  C   UNL     1      -7.922   4.842   2.350  0.00  0.00    +0.035 C 
ATOM     17  C   UNL     1      -8.625   6.217   2.515  0.00  0.00    +0.031 C 
ATOM     18  C   UNL     1      -9.912   5.991   1.682  0.00  0.00    +0.160 C 
ATOM     19  O   UNL     1      -9.502   5.178   0.572  0.00  0.00    -0.375 OA
ENDBRANCH  14  15
ENDBRANCH   9  14
ENDBRANCH   3   5
BRANCH   1  20
ATOM     20  C   UNL     1      -4.279   2.951  -1.851  0.00  0.00    +0.172 C 
BRANCH  20  21
ATOM     21  S   UNL     1      -3.493   4.034  -3.069  0.00  0.00    -0.096 S 
BRANCH  21  27
ATOM     22  C   UNL     1       1.652   5.004  -3.707  0.00  0.00    +0.045 C 
ATOM     23  C   UNL     1       0.540   4.298  -2.975  0.00  0.00    -0.032 A 
ATOM     24  C   UNL     1       0.815   3.443  -1.923  0.00  0.00    +0.027 A 
ATOM     25  C   UNL     1      -0.228   2.809  -1.269  0.00  0.00    +0.040 A 
ATOM     26  N   UNL     1      -1.480   3.000  -1.633  0.00  0.00    -0.245 NA
ATOM     27  C   UNL     1      -1.801   3.812  -2.630  0.00  0.00    +0.112 A 
ATOM     28  C   UNL     1      -0.797   4.492  -3.343  0.00  0.00    +0.098 A 
ATOM     29  C   UNL     1       0.076   1.878  -0.123  0.00  0.00    +0.065 C 
BRANCH  28  30
ATOM     30  C   UNL     1      -1.146   5.391  -4.456  0.00  0.00    +0.389 C 
ATOM     31  O   UNL     1      -1.221   4.956  -5.588  0.00  0.00    -0.240 OA
ATOM     32  O   UNL     1      -1.381   6.697  -4.219  0.00  0.00    -0.240 OA
ENDBRANCH  28  30
ENDBRANCH  21  27
ENDBRANCH  20  21
ENDBRANCH   1  20
TORSDOF 8
