REMARK  Name = ZINC63708310
REMARK  11 active torsions:
REMARK  status: ('A' for Active; 'I' for Inactive)
REMARK    1  A    between atoms: C_1  and  C_2
REMARK    2  A    between atoms: C_2  and  C_3
REMARK    3  A    between atoms: C_3  and  C_5
REMARK    4  A    between atoms: C_3  and  S_15
REMARK    5  A    between atoms: N_7  and  C_8
REMARK    6  A    between atoms: S_15  and  C_16
REMARK    7  A    between atoms: C_28  and  C_30
REMARK    8  A    between atoms: C_30  and  C_31
REMARK    9  A    between atoms: C_31  and  C_32
REMARK   10  A    between atoms: C_33  and  C_39
REMARK   11  A    between atoms: C_36  and  C_38
REMARK                            x       y       z     vdW  Elec       q    Type
REMARK                         _______ _______ _______ _____ _____    ______ ____
ROOT
ATOM      1  C   UNL     1       0.134   2.004  -3.038  0.00  0.00    +0.249 C 
ATOM      2  N   UNL     1       1.528   2.248  -3.432  0.00  0.00    -0.356 N 
ATOM      3  C   UNL     1       2.313   2.971  -2.646  0.00  0.00    +0.048 A 
ATOM      4  C   UNL     1       3.656   3.219  -3.005  0.00  0.00    +0.026 A 
ATOM      5  C   UNL     1       4.445   3.964  -2.185  0.00  0.00    +0.002 A 
ATOM      6  C   UNL     1       3.961   4.494  -0.991  0.00  0.00    +0.001 A 
ATOM      7  C   UNL     1       2.676   4.291  -0.589  0.00  0.00    +0.013 A 
ATOM      8  C   UNL     1       1.806   3.530  -1.389  0.00  0.00    +0.038 A 
ATOM      9  C   UNL     1       0.473   3.311  -0.989  0.00  0.00    +0.128 C 
ATOM     10  N   UNL     1      -0.359   2.566  -1.781  0.00  0.00    -0.204 N 
ATOM     11  N   UNL     1      -1.596   2.526  -1.126  0.00  0.00    -0.249 N 
ATOM     12  C   UNL     1      -1.450   3.238   0.014  0.00  0.00    +0.090 C 
ATOM     13  N   UNL     1      -0.228   3.697   0.084  0.00  0.00    -0.332 N 
ATOM     14  H   UNL     1      -2.400   2.077  -1.430  0.00  0.00    +0.171 HD
ATOM     15  H   UNL     1       1.871   1.882  -4.262  0.00  0.00    +0.162 HD
ATOM     16  H   UNL     1       0.121   4.238   0.810  0.00  0.00    +0.168 HD
ENDROOT
BRANCH   1  17
ATOM     17  S   UNL     1      -0.104   0.207  -2.962  0.00  0.00    -0.103 S 
BRANCH  17  18
ATOM     18  C   UNL     1       0.737  -0.284  -1.432  0.00  0.00    +0.136 C 
BRANCH  18  19
ATOM     19  C   UNL     1       2.226  -0.124  -1.605  0.00  0.00    +0.230 C 
ATOM     20  O   UNL     1       2.706  -0.078  -2.717  0.00  0.00    -0.274 OA
ATOM     21  N   UNL     1       3.024  -0.034  -0.522  0.00  0.00    -0.285 N 
ATOM     22  H   UNL     1       2.635   0.002   0.366  0.00  0.00    +0.155 HD
BRANCH  21  23
ATOM     23  C   UNL     1       4.415   0.010  -0.679  0.00  0.00    +0.034 A 
ATOM     24  C   UNL     1       5.192   0.743   0.208  0.00  0.00    +0.026 A 
ATOM     25  C   UNL     1       6.563   0.785   0.052  0.00  0.00    +0.040 A 
ATOM     26  C   UNL     1       7.163   0.097  -0.990  0.00  0.00    +0.124 A 
ATOM     27  C   UNL     1       6.390  -0.635  -1.875  0.00  0.00    +0.040 A 
ATOM     28  C   UNL     1       5.019  -0.684  -1.719  0.00  0.00    +0.026 A 
ATOM     29  F   UNL     1       8.505   0.140  -1.141  0.00  0.00    -0.205 F 
ENDBRANCH  21  23
ENDBRANCH  18  19
BRANCH  18  31
ATOM     30  C   UNL     1      -1.079  -1.883  -0.814  0.00  0.00    +0.005 C 
ATOM     31  C   UNL     1       0.414  -1.746  -1.118  0.00  0.00    +0.020 C 
ENDBRANCH  18  31
ENDBRANCH  17  18
ENDBRANCH   1  17
BRANCH  12  32
ATOM     32  C   UNL     1      -2.528   3.469   1.041  0.00  0.00    +0.075 C 
BRANCH  32  33
ATOM     33  C   UNL     1      -2.487   2.350   2.084  0.00  0.00    +0.042 C 
BRANCH  33  34
ATOM     34  C   UNL     1      -3.565   2.581   3.112  0.00  0.00    -0.021 C 
ATOM     35  C   UNL     1      -4.795   2.065   3.144  0.00  0.00    +0.061 C 
ATOM     36  N   UNL     1      -5.474   2.507   4.225  0.00  0.00    -0.159 NA
ATOM     37  N   UNL     1      -4.839   3.280   4.948  0.00  0.00    -0.180 NA
ATOM     38  C   UNL     1      -3.502   3.451   4.355  0.00  0.00    +0.153 C 
ATOM     39  C   UNL     1      -3.262   4.915   3.980  0.00  0.00    +0.039 C 
ATOM     40  C   UNL     1      -5.352   1.117   2.113  0.00  0.00    +0.067 C 
ENDBRANCH  33  34
ENDBRANCH  32  33
ENDBRANCH  12  32
TORSDOF 8
