REMARK  Name = ZINC39687004
REMARK  7 active torsions:
REMARK  status: ('A' for Active; 'I' for Inactive)
REMARK    1  A    between atoms: C_1  and  C_2
REMARK    2  A    between atoms: C_6  and  C_9
REMARK    3  A    between atoms: C_13  and  C_22
REMARK    4  A    between atoms: N_24  and  C_25
REMARK    5  A    between atoms: C_25  and  C_27
REMARK    6  A    between atoms: C_25  and  C_28
REMARK    7  A    between atoms: C_28  and  C_29
REMARK                            x       y       z     vdW  Elec       q    Type
REMARK                         _______ _______ _______ _____ _____    ______ ____
ROOT
ATOM      1  C   UNL     1       0.085  -2.895   2.598  0.00  0.00    +0.252 C 
ATOM      2  O   UNL     1       1.130  -3.247   3.111  0.00  0.00    -0.270 OA
ATOM      3  N   UNL     1      -1.091  -3.267   3.141  0.00  0.00    -0.296 N 
ATOM      4  C   UNL     1      -2.455  -2.945   2.660  0.00  0.00    +0.121 C 
ATOM      5  C   UNL     1      -3.264  -4.243   2.883  0.00  0.00    +0.100 C 
ATOM      6  C   UNL     1      -2.510  -4.988   3.997  0.00  0.00    -0.004 C 
ATOM      7  C   UNL     1      -1.312  -4.095   4.351  0.00  0.00    +0.115 C 
ATOM      8  C   UNL     1      -3.411  -5.171   5.215  0.00  0.00    -0.010 C 
ATOM      9  C   UNL     1      -2.659  -5.966   6.286  0.00  0.00    -0.082 C 
ATOM     10  N   UNL     1      -2.264  -7.271   5.744  0.00  0.00    +0.379 N 
ATOM     11  C   UNL     1      -1.324  -7.088   4.631  0.00  0.00    -0.082 C 
ATOM     12  C   UNL     1      -2.020  -6.341   3.490  0.00  0.00    -0.010 C 
ATOM     13  H   UNL     1      -1.823  -7.816   6.469  0.00  0.00    -0.086 HD
ATOM     14  H   UNL     1      -3.083  -7.758   5.413  0.00  0.00    -0.086 HD
ENDROOT
BRANCH   1  20
ATOM     15  C   UNL     1       0.143   1.609   0.445  0.00  0.00    +0.047 C 
ATOM     16  C   UNL     1       0.133   0.106   0.337  0.00  0.00    -0.014 A 
ATOM     17  C   UNL     1       0.142  -0.496  -0.908  0.00  0.00    +0.009 A 
ATOM     18  C   UNL     1       0.133  -1.874  -1.019  0.00  0.00    +0.039 A 
ATOM     19  C   UNL     1       0.114  -2.663   0.117  0.00  0.00    +0.138 A 
ATOM     20  C   UNL     1       0.105  -2.062   1.380  0.00  0.00    +0.107 A 
ATOM     21  C   UNL     1       0.120  -0.667   1.483  0.00  0.00    +0.141 A 
ATOM     22  F   UNL     1       0.118  -0.076   2.698  0.00  0.00    -0.204 F 
ATOM     23  F   UNL     1       0.105  -4.009   0.007  0.00  0.00    -0.205 F 
ENDBRANCH   1  20
BRANCH   5  24
ATOM     24  C   UNL     1      -4.668  -3.917   3.324  0.00  0.00    +0.218 C 
ATOM     25  O   UNL     1      -4.882  -2.918   3.976  0.00  0.00    -0.275 OA
ATOM     26  N   UNL     1      -5.685  -4.738   2.993  0.00  0.00    -0.312 N 
ATOM     27  H   UNL     1      -5.513  -5.537   2.472  0.00  0.00    +0.149 HD
BRANCH  26  28
ATOM     28  C   UNL     1      -7.050  -4.421   3.421  0.00  0.00    +0.074 C 
ATOM     29  C   UNL     1      -7.276  -4.952   4.838  0.00  0.00    +0.028 C 
BRANCH  28  30
ATOM     30  C   UNL     1      -8.049  -5.076   2.466  0.00  0.00    +0.060 C 
BRANCH  30  31
ATOM     31  C   UNL     1      -7.909  -4.465   1.095  0.00  0.00    -0.010 A 
ATOM     32  C   UNL     1      -8.729  -3.418   0.719  0.00  0.00    +0.006 A 
ATOM     33  C   UNL     1      -8.601  -2.857  -0.538  0.00  0.00    +0.000 A 
ATOM     34  C   UNL     1      -7.652  -3.341  -1.419  0.00  0.00    +0.003 A 
ATOM     35  C   UNL     1      -6.830  -4.386  -1.044  0.00  0.00    +0.038 A 
ATOM     36  C   UNL     1      -6.954  -4.946   0.216  0.00  0.00    +0.127 A 
ATOM     37  F   UNL     1      -6.148  -5.966   0.585  0.00  0.00    -0.205 F 
ENDBRANCH  30  31
ENDBRANCH  28  30
ENDBRANCH  26  28
ENDBRANCH   5  24
TORSDOF 5
