REMARK  Name = ZINC64164324
REMARK  9 active torsions:
REMARK  status: ('A' for Active; 'I' for Inactive)
REMARK    1  A    between atoms: C_1  and  C_2
REMARK    2  A    between atoms: C_2  and  C_3
REMARK    3  A    between atoms: C_2  and  C_4
REMARK    4  A    between atoms: C_4  and  C_6
REMARK    5  A    between atoms: C_4  and  N_15
REMARK    6  A    between atoms: C_16  and  C_18
REMARK    7  A    between atoms: C_18  and  S_19
REMARK    8  A    between atoms: S_19  and  C_20
REMARK    9  A    between atoms: N_25  and  C_26
REMARK                            x       y       z     vdW  Elec       q    Type
REMARK                         _______ _______ _______ _____ _____    ______ ____
ROOT
ATOM      1  N   UNL     1      -2.190  -0.284  -1.086  0.00  0.00    -0.308 N 
ATOM      2  C   UNL     1      -2.107  -1.145  -2.120  0.00  0.00    +0.223 C 
ATOM      3  O   UNL     1      -1.400  -2.127  -2.036  0.00  0.00    -0.275 OA
ATOM      4  H   UNL     1      -2.756   0.501  -1.154  0.00  0.00    +0.149 HD
ENDROOT
BRANCH   1   5
ATOM      5  C   UNL     1      -1.427  -0.534   0.139  0.00  0.00    +0.118 C 
BRANCH   5   6
ATOM      6  C   UNL     1      -2.115   0.154   1.319  0.00  0.00    +0.195 C 
ATOM      7  N   UNL     1      -2.438   1.544   0.973  0.00  0.00    -0.362 N 
ATOM      8  C   UNL     1      -3.731   1.677   1.053  0.00  0.00    +0.060 A 
ATOM      9  C   UNL     1      -4.635   2.813   0.828  0.00  0.00    +0.027 A 
ATOM     10  C   UNL     1      -5.963   2.649   0.991  0.00  0.00    +0.002 A 
ATOM     11  C   UNL     1      -6.534   1.423   1.374  0.00  0.00    +0.002 A 
ATOM     12  C   UNL     1      -5.796   0.318   1.605  0.00  0.00    +0.027 A 
ATOM     13  C   UNL     1      -4.335   0.378   1.458  0.00  0.00    +0.060 A 
ATOM     14  N   UNL     1      -3.393  -0.507   1.612  0.00  0.00    -0.362 N 
ATOM     15  H   UNL     1      -1.805   2.237   0.729  0.00  0.00    +0.162 HD
ATOM     16  H   UNL     1      -3.514  -1.434   1.872  0.00  0.00    +0.162 HD
ENDBRANCH   5   6
BRANCH   5  18
ATOM     17  C   UNL     1      -0.073   1.545  -0.157  0.00  0.00    +0.009 C 
ATOM     18  C   UNL     1      -0.010   0.022  -0.021  0.00  0.00    +0.007 C 
ATOM     19  C   UNL     1       0.824  -0.346   1.208  0.00  0.00    +0.009 C 
ENDBRANCH   5  18
ENDBRANCH   1   5
BRANCH   2  20
ATOM     20  C   UNL     1      -2.893  -0.888  -3.380  0.00  0.00    +0.168 C 
BRANCH  20  21
ATOM     21  S   UNL     1      -2.571  -2.215  -4.574  0.00  0.00    -0.103 S 
BRANCH  21  22
ATOM     22  C   UNL     1      -3.577  -1.762  -6.015  0.00  0.00    +0.294 C 
ATOM     23  N   UNL     1      -3.214  -0.421  -6.490  0.00  0.00    -0.135 NA
ATOM     24  N   UNL     1      -4.192   0.324  -6.415  0.00  0.00    -0.066 NA
ATOM     25  N   UNL     1      -5.326  -0.315  -5.912  0.00  0.00    -0.164 N 
ATOM     26  N   UNL     1      -4.998  -1.657  -5.636  0.00  0.00    -0.200 N 
ATOM     27  H   UNL     1      -6.194   0.096  -5.776  0.00  0.00    +0.195 HD
BRANCH  26  28
ATOM     28  C   UNL     1      -5.827  -2.658  -5.122  0.00  0.00    +0.071 A 
ATOM     29  C   UNL     1      -5.456  -3.348  -3.975  0.00  0.00    +0.026 A 
ATOM     30  C   UNL     1      -6.277  -4.337  -3.470  0.00  0.00    +0.002 A 
ATOM     31  C   UNL     1      -7.468  -4.642  -4.105  0.00  0.00    +0.002 A 
ATOM     32  C   UNL     1      -7.840  -3.957  -5.247  0.00  0.00    +0.022 A 
ATOM     33  C   UNL     1      -7.027  -2.962  -5.755  0.00  0.00    +0.064 A 
ATOM     34 CL   UNL     1      -7.499  -2.098  -7.184  0.00  0.00    -0.082 Cl
ENDBRANCH  26  28
ENDBRANCH  21  22
ENDBRANCH  20  21
ENDBRANCH   2  20
TORSDOF 7
