REMARK  Name = ZINC00888940
REMARK  6 active torsions:
REMARK  status: ('A' for Active; 'I' for Inactive)
REMARK    1  A    between atoms: C_1  and  C_2
REMARK    2  A    between atoms: C_9  and  C_14
REMARK    3  A    between atoms: C_14  and  C_16
REMARK    4  A    between atoms: C_14  and  N_63
REMARK    5  A    between atoms: N_20  and  C_21
REMARK    6  A    between atoms: C_29  and  C_32
REMARK                            x       y       z     vdW  Elec       q    Type
REMARK                         _______ _______ _______ _____ _____    ______ ____
ROOT
ATOM      1  C   UNL     1      -4.985   1.048   0.031  0.00  0.00    +0.039 C 
ENDROOT
BRANCH   1  10
ATOM      2  C   UNL     1       2.451   1.277  -0.483  0.00  0.00    +0.044 C 
ATOM      3  C   UNL     1       1.123   1.971  -0.326  0.00  0.00    -0.050 A 
ATOM      4  C   UNL     1       1.079   3.353  -0.206  0.00  0.00    +0.005 A 
ATOM      5  C   UNL     1      -0.125   4.009  -0.061  0.00  0.00    +0.026 A 
ATOM      6  C   UNL     1      -1.309   3.279  -0.034  0.00  0.00    +0.049 A 
ATOM      7  C   UNL     1      -1.261   1.878  -0.160  0.00  0.00    -0.001 A 
ATOM      8  C   UNL     1      -0.027   1.234  -0.301  0.00  0.00    +0.013 A 
ATOM      9  C   UNL     1      -2.513   1.120  -0.136  0.00  0.00    +0.017 A 
ATOM     10  C   UNL     1      -3.679   1.799   0.002  0.00  0.00    +0.011 A 
ATOM     11  C   UNL     1      -3.672   3.205   0.120  0.00  0.00    +0.251 A 
ATOM     12  O   UNL     1      -4.731   3.796   0.244  0.00  0.00    -0.268 OA
ATOM     13  N   UNL     1      -2.527   3.909   0.110  0.00  0.00    -0.322 N 
ATOM     14  H   UNL     1      -2.559   4.904   0.207  0.00  0.00    +0.169 HD
ENDBRANCH   1  10
BRANCH   1  21
ATOM     15  C   UNL     1      -7.080   0.826   1.223  0.00  0.00    -0.077 C 
ATOM     16  C   UNL     1      -7.884   1.351   2.415  0.00  0.00    -0.015 C 
ATOM     17  C   UNL     1      -7.157   0.991   3.713  0.00  0.00    -0.018 C 
ATOM     18  C   UNL     1      -5.745   1.583   3.680  0.00  0.00    -0.015 C 
ATOM     19  C   UNL     1      -5.003   1.051   2.452  0.00  0.00    -0.077 C 
ATOM     20  C   UNL     1      -7.924   1.566   4.906  0.00  0.00    +0.007 C 
ATOM     21  N   UNL     1      -5.741   1.452   1.235  0.00  0.00    +0.389 N 
ATOM     22  H   UNL     1      -5.850   2.473   1.233  0.00  0.00    -0.080 HD
ENDBRANCH   1  21
BRANCH   1  23
ATOM     23  C   UNL     1      -5.791   1.397  -1.194  0.00  0.00    +0.143 A 
ATOM     24  N   UNL     1      -6.447   2.512  -1.408  0.00  0.00    -0.115 NA
ATOM     25  N   UNL     1      -7.005   2.429  -2.566  0.00  0.00    -0.023 NA
ATOM     26  N   UNL     1      -6.729   1.287  -3.093  0.00  0.00    -0.044 NA
ATOM     27  N   UNL     1      -5.983   0.622  -2.277  0.00  0.00    -0.227 N 
BRANCH  27  28
ATOM     28  C   UNL     1      -5.444  -0.723  -2.491  0.00  0.00    +0.111 C 
ATOM     29  C   UNL     1      -4.562  -0.727  -3.741  0.00  0.00    +0.027 C 
ATOM     30  C   UNL     1      -4.000  -2.133  -3.964  0.00  0.00    +0.002 C 
ATOM     31  C   UNL     1      -5.154  -3.120  -4.151  0.00  0.00    +0.000 C 
ATOM     32  C   UNL     1      -6.036  -3.116  -2.901  0.00  0.00    +0.002 C 
ATOM     33  C   UNL     1      -6.598  -1.711  -2.678  0.00  0.00    +0.027 C 
ENDBRANCH  27  28
ENDBRANCH   1  23
TORSDOF 4
