REMARK  Name = ZINC01926104
REMARK  10 active torsions:
REMARK  status: ('A' for Active; 'I' for Inactive)
REMARK    1  A    between atoms: C_1  and  C_2
REMARK    2  A    between atoms: C_5  and  N_8
REMARK    3  A    between atoms: C_9  and  C_11
REMARK    4  A    between atoms: C_11  and  C_13
REMARK    5  A    between atoms: C_11  and  O_14
REMARK    6  A    between atoms: O_14  and  C_15
REMARK    7  A    between atoms: C_18  and  C_21
REMARK    8  A    between atoms: N_23  and  C_24
REMARK    9  A    between atoms: C_27  and  C_31
REMARK   10  A    between atoms: C_29  and  C_30
REMARK                            x       y       z     vdW  Elec       q    Type
REMARK                         _______ _______ _______ _____ _____    ______ ____
ROOT
ATOM      1  C   UNL     1       4.668  -0.824   0.111  0.00  0.00    +0.122 A 
ATOM      2  C   UNL     1       4.748   0.560   0.020  0.00  0.00    +0.046 A 
ATOM      3  C   UNL     1       3.599   1.314  -0.064  0.00  0.00    +0.016 A 
ATOM      4  C   UNL     1       2.351   0.685  -0.058  0.00  0.00    +0.037 A 
ATOM      5  C   UNL     1       2.275  -0.707   0.039  0.00  0.00    +0.016 A 
ATOM      6  C   UNL     1       3.429  -1.454   0.117  0.00  0.00    +0.046 A 
ENDROOT
BRANCH   4   7
ATOM      7  C   UNL     1       1.117   1.489  -0.147  0.00  0.00    +0.248 C 
ATOM      8  O   UNL     1       1.185   2.700  -0.227  0.00  0.00    -0.270 OA
ATOM      9  N   UNL     1      -0.086   0.880  -0.141  0.00  0.00    -0.281 N 
ATOM     10  H   UNL     1      -0.139  -0.088  -0.143  0.00  0.00    +0.155 HD
BRANCH   9  11
ATOM     11  C   UNL     1      -1.257   1.645  -0.138  0.00  0.00    +0.037 A 
ATOM     12  C   UNL     1      -1.302   2.852  -0.824  0.00  0.00    +0.024 A 
ATOM     13  C   UNL     1      -2.459   3.605  -0.819  0.00  0.00    +0.005 A 
ATOM     14  C   UNL     1      -3.573   3.158  -0.132  0.00  0.00    -0.050 A 
ATOM     15  C   UNL     1      -3.532   1.957   0.552  0.00  0.00    +0.008 A 
ATOM     16  C   UNL     1      -2.378   1.197   0.547  0.00  0.00    -0.029 A 
ATOM     17  C   UNL     1      -2.336  -0.114   1.288  0.00  0.00    +0.045 C 
ATOM     18  C   UNL     1      -4.835   3.982  -0.129  0.00  0.00    +0.044 C 
ENDBRANCH   9  11
ENDBRANCH   4   7
BRANCH   1  19
ATOM     19  O   UNL     1       5.803  -1.563   0.194  0.00  0.00    -0.480 OA
BRANCH  19  20
ATOM     20  C   UNL     1       7.038  -0.849   0.284  0.00  0.00    +0.256 C 
ATOM     21  C   UNL     1       7.302  -0.469   1.742  0.00  0.00    +0.062 C 
BRANCH  20  23
ATOM     22  N   UNL     1       9.424  -1.252  -0.229  0.00  0.00    -0.282 N 
ATOM     23  C   UNL     1       8.160  -1.720  -0.220  0.00  0.00    +0.258 C 
ATOM     24  O   UNL     1       7.926  -2.841  -0.617  0.00  0.00    -0.271 OA
ATOM     25  H   UNL     1       9.624  -0.387   0.162  0.00  0.00    +0.155 HD
BRANCH  22  30
ATOM     26  C   UNL     1      13.575  -4.340  -2.557  0.00  0.00    +0.044 C 
ATOM     27  C   UNL     1      12.472  -3.519  -1.938  0.00  0.00    -0.050 A 
ATOM     28  C   UNL     1      11.201  -3.550  -2.482  0.00  0.00    +0.005 A 
ATOM     29  C   UNL     1      10.188  -2.800  -1.918  0.00  0.00    +0.023 A 
ATOM     30  C   UNL     1      10.448  -2.013  -0.803  0.00  0.00    +0.034 A 
ATOM     31  C   UNL     1      11.727  -1.980  -0.263  0.00  0.00    +0.023 A 
ATOM     32  C   UNL     1      12.733  -2.737  -0.828  0.00  0.00    +0.005 A 
ENDBRANCH  22  30
ENDBRANCH  20  23
ENDBRANCH  19  20
ENDBRANCH   1  19
TORSDOF 6
