REMARK  Name = ZINC35980689
REMARK  6 active torsions:
REMARK  status: ('A' for Active; 'I' for Inactive)
REMARK    1  A    between atoms: C_3  and  C_8
REMARK    2  A    between atoms: C_11  and  C_13
REMARK    3  A    between atoms: C_15  and  C_27
REMARK    4  A    between atoms: C_17  and  C_22
REMARK    5  A    between atoms: C_17  and  O_26
REMARK    6  A    between atoms: C_27  and  C_29
REMARK                            x       y       z     vdW  Elec       q    Type
REMARK                         _______ _______ _______ _____ _____    ______ ____
ROOT
ATOM      1  C   UNL     1       6.197   5.029   1.018  0.00  0.00    +0.156 C 
ATOM      2  C   UNL     1       5.479   5.872   2.077  0.00  0.00    +0.148 C 
ATOM      3  C   UNL     1       3.995   5.962   1.706  0.00  0.00    +0.243 C 
ATOM      4  N   UNL     1       3.872   6.492   0.347  0.00  0.00    -0.264 N 
ATOM      5  C   UNL     1       4.829   6.289  -0.571  0.00  0.00    +0.302 C 
ATOM      6  O   UNL     1       4.672   6.742  -1.688  0.00  0.00    -0.253 OA
ATOM      7  N   UNL     1       5.955   5.608  -0.304  0.00  0.00    -0.289 N 
ATOM      8  H   UNL     1       3.081   6.999   0.105  0.00  0.00    +0.153 HD
ATOM      9  H   UNL     1       6.621   5.497  -1.001  0.00  0.00    +0.151 HD
ENDROOT
BRANCH   1  13
ATOM     10  C   UNL     1       4.985   1.676   1.817  0.00  0.00    +0.135 A 
ATOM     11  C   UNL     1       4.883   1.631   0.462  0.00  0.00    +0.050 A 
ATOM     12  C   UNL     1       5.322   2.881  -0.019  0.00  0.00    +0.047 A 
ATOM     13  C   UNL     1       5.668   3.618   1.054  0.00  0.00    +0.127 A 
ATOM     14  O   UNL     1       5.457   2.889   2.163  0.00  0.00    -0.458 OA
BRANCH  10  17
ATOM     15  C   UNL     1       4.449  -0.258   4.992  0.00  0.00    +0.002 A 
ATOM     16  C   UNL     1       4.780   0.764   4.126  0.00  0.00    +0.011 A 
ATOM     17  C   UNL     1       4.632   0.585   2.750  0.00  0.00    +0.019 A 
ATOM     18  C   UNL     1       4.149  -0.629   2.258  0.00  0.00    +0.031 A 
ATOM     19  C   UNL     1       3.821  -1.644   3.135  0.00  0.00    +0.042 A 
ATOM     20  C   UNL     1       3.971  -1.459   4.499  0.00  0.00    +0.020 A 
ATOM     21 CL   UNL     1       3.221  -3.155   2.526  0.00  0.00    -0.084 Cl
ENDBRANCH  10  17
ENDBRANCH   1  13
BRANCH   3  22
ATOM     22  C   UNL     1       3.366   4.569   1.771  0.00  0.00    +0.436 C 
ATOM     23  F   UNL     1       3.918   3.858   2.843  0.00  0.00    -0.166 F 
ATOM     24  F   UNL     1       1.985   4.689   1.953  0.00  0.00    -0.166 F 
ATOM     25  F   UNL     1       3.622   3.885   0.578  0.00  0.00    -0.166 F 
ENDBRANCH   3  22
BRANCH   3  26
ATOM     26  O   UNL     1       3.326   6.833   2.620  0.00  0.00    -0.364 OA
ATOM     27  H   UNL     1       2.381   6.937   2.445  0.00  0.00    +0.212 HD
ENDBRANCH   3  26
BRANCH   2  28
ATOM     28  C   UNL     1       6.080   7.254   2.116  0.00  0.00    +0.180 C 
ATOM     29  O   UNL     1       5.574   8.154   1.476  0.00  0.00    -0.291 OA
BRANCH  28  30
ATOM     30  C   UNL     1       7.231   7.502   2.896  0.00  0.00    +0.055 A 
ATOM     31  C   UNL     1       7.932   8.691   3.072  0.00  0.00    +0.019 A 
ATOM     32  C   UNL     1       9.024   8.621   3.900  0.00  0.00    +0.008 A 
ATOM     33  C   UNL     1       9.341   7.433   4.476  0.00  0.00    +0.046 A 
ATOM     34  S   UNL     1       8.161   6.375   3.917  0.00  0.00    -0.094 S 
ENDBRANCH  28  30
ENDBRANCH   2  28
TORSDOF 6
