REMARK  Name = ZINC39690334
REMARK  6 active torsions:
REMARK  status: ('A' for Active; 'I' for Inactive)
REMARK    1  A    between atoms: N_4  and  C_6
REMARK    2  A    between atoms: C_9  and  C_12
REMARK    3  A    between atoms: C_12  and  N_13
REMARK    4  A    between atoms: C_14  and  C_16
REMARK    5  A    between atoms: C_27  and  C_29
REMARK    6  A    between atoms: C_32  and  C_34
REMARK                            x       y       z     vdW  Elec       q    Type
REMARK                         _______ _______ _______ _____ _____    ______ ____
ROOT
ATOM      1  C   UNL     1       3.823  -8.023   2.971  0.00  0.00    +0.100 C 
ATOM      2  C   UNL     1       4.998  -7.291   3.658  0.00  0.00    +0.121 C 
ATOM      3  N   UNL     1       5.641  -8.325   4.502  0.00  0.00    -0.294 N 
ATOM      4  C   UNL     1       5.599  -9.555   3.675  0.00  0.00    +0.115 C 
ATOM      5  C   UNL     1       4.222  -9.508   2.984  0.00  0.00    -0.004 C 
ATOM      6  C   UNL     1       3.205 -10.321   3.779  0.00  0.00    -0.010 C 
ATOM      7  C   UNL     1       3.592 -11.802   3.729  0.00  0.00    -0.082 C 
ATOM      8  N   UNL     1       3.627 -12.254   2.333  0.00  0.00    +0.379 N 
ATOM      9  C   UNL     1       4.672 -11.531   1.599  0.00  0.00    -0.082 C 
ATOM     10  C   UNL     1       4.330 -10.039   1.558  0.00  0.00    -0.010 C 
ATOM     11  C   UNL     1       6.149  -8.180   5.742  0.00  0.00    +0.282 C 
ATOM     12  O   UNL     1       6.650  -9.133   6.310  0.00  0.00    -0.267 OA
ATOM     13  H   UNL     1       3.822 -13.244   2.307  0.00  0.00    -0.086 HD
ATOM     14  H   UNL     1       2.732 -12.079   1.902  0.00  0.00    -0.086 HD
ENDROOT
BRANCH  11  15
ATOM     15  C   UNL     1       6.099  -6.875   6.406  0.00  0.00    +0.190 A 
ATOM     16  C   UNL     1       6.584  -6.588   7.664  0.00  0.00    +0.055 A 
ATOM     17  C   UNL     1       6.328  -5.234   7.896  0.00  0.00    +0.050 A 
ATOM     18  C   UNL     1       5.703  -4.747   6.784  0.00  0.00    +0.136 A 
ATOM     19  O   UNL     1       5.575  -5.743   5.891  0.00  0.00    -0.450 OA
BRANCH  18  20
ATOM     20  C   UNL     1       5.247  -3.356   6.592  0.00  0.00    +0.017 A 
ATOM     21  C   UNL     1       5.449  -2.407   7.596  0.00  0.00    +0.014 A 
ATOM     22  C   UNL     1       5.022  -1.109   7.412  0.00  0.00    +0.039 A 
ATOM     23  C   UNL     1       4.393  -0.745   6.231  0.00  0.00    +0.123 A 
ATOM     24  C   UNL     1       4.189  -1.683   5.231  0.00  0.00    +0.039 A 
ATOM     25  C   UNL     1       4.617  -2.982   5.402  0.00  0.00    +0.014 A 
ATOM     26  F   UNL     1       3.977   0.528   6.056  0.00  0.00    -0.205 F 
ENDBRANCH  18  20
ENDBRANCH  11  15
BRANCH   1  28
ATOM     27  N   UNL     1       2.445  -7.564   0.969  0.00  0.00    -0.311 N 
ATOM     28  C   UNL     1       3.659  -7.536   1.554  0.00  0.00    +0.218 C 
ATOM     29  O   UNL     1       4.618  -7.119   0.941  0.00  0.00    -0.275 OA
ATOM     30  H   UNL     1       1.677  -7.898   1.460  0.00  0.00    +0.149 HD
BRANCH  27  31
ATOM     31  C   UNL     1       2.284  -7.091  -0.408  0.00  0.00    +0.139 C 
BRANCH  31  35
ATOM     32  C   UNL     1      -1.807  -7.479  -1.581  0.00  0.00    +0.046 A 
ATOM     33  C   UNL     1      -1.363  -6.308  -0.984  0.00  0.00    +0.026 A 
ATOM     34  C   UNL     1      -0.040  -6.185  -0.606  0.00  0.00    +0.007 A 
ATOM     35  C   UNL     1       0.842  -7.228  -0.822  0.00  0.00    -0.030 A 
ATOM     36  C   UNL     1       0.402  -8.396  -1.417  0.00  0.00    +0.007 A 
ATOM     37  C   UNL     1      -0.921  -8.527  -1.792  0.00  0.00    +0.026 A 
BRANCH  32  41
ATOM     38  C   UNL     1      -5.014  -8.447  -2.772  0.00  0.00    +0.019 A 
ATOM     39  C   UNL     1      -5.272  -7.144  -2.301  0.00  0.00    +0.019 A 
ATOM     40  C   UNL     1      -4.115  -6.654  -1.812  0.00  0.00    +0.091 A 
ATOM     41  N   UNL     1      -3.149  -7.607  -1.965  0.00  0.00    -0.323 N 
ATOM     42  C   UNL     1      -3.708  -8.705  -2.555  0.00  0.00    +0.091 A 
ENDBRANCH  32  41
ENDBRANCH  31  35
ENDBRANCH  27  31
ENDBRANCH   1  28
TORSDOF 6
