REMARK  Name = ZINC36092921
REMARK  6 active torsions:
REMARK  status: ('A' for Active; 'I' for Inactive)
REMARK    1  A    between atoms: C_1  and  C_2
REMARK    2  A    between atoms: C_5  and  C_21
REMARK    3  A    between atoms: C_7  and  N_8
REMARK    4  A    between atoms: N_23  and  C_24
REMARK    5  A    between atoms: C_24  and  C_26
REMARK    6  A    between atoms: C_24  and  C_27
REMARK                            x       y       z     vdW  Elec       q    Type
REMARK                         _______ _______ _______ _____ _____    ______ ____
ROOT
ATOM      1  C   UNL     1      -0.237   1.188  -0.151  0.00  0.00    +0.046 C 
ATOM      2  C   UNL     1       0.068  -0.279   0.015  0.00  0.00    -0.025 A 
ATOM      3  C   UNL     1       0.235  -1.078  -1.098  0.00  0.00    +0.006 A 
ATOM      4  C   UNL     1       0.515  -2.423  -0.954  0.00  0.00    +0.013 A 
ATOM      5  C   UNL     1       0.631  -2.983   0.320  0.00  0.00    +0.039 A 
ATOM      6  C   UNL     1       0.463  -2.183   1.447  0.00  0.00    +0.041 A 
ATOM      7  C   UNL     1       0.186  -0.825   1.295  0.00  0.00    +0.070 A 
ENDROOT
BRANCH   7   8
ATOM      8  N   UNL     1       0.025  -0.029   2.399  0.00  0.00    -0.226 NA
ATOM      9  C   UNL     1      -0.769  -0.411   3.374  0.00  0.00    +0.155 C 
ATOM     10  N   UNL     1      -1.609  -1.544   3.419  0.00  0.00    -0.318 N 
ATOM     11  C   UNL     1      -1.698  -2.040   4.762  0.00  0.00    +0.108 C 
ATOM     12  C   UNL     1      -2.534  -3.238   5.187  0.00  0.00    +0.189 C 
ATOM     13  S   UNL     1      -2.299  -3.072   7.021  0.00  0.00    -0.028 S 
ATOM     14  O   UNL     1      -3.544  -3.292   7.670  0.00  0.00    -0.174 OA
ATOM     15  O   UNL     1      -1.162  -3.829   7.413  0.00  0.00    -0.174 OA
ATOM     16  C   UNL     1      -1.884  -1.270   7.103  0.00  0.00    +0.182 C 
ATOM     17  C   UNL     1      -2.201  -0.845   5.658  0.00  0.00    +0.097 C 
ATOM     18  S   UNL     1      -1.034   0.383   4.965  0.00  0.00    -0.084 S 
ATOM     19  H   UNL     1      -2.061  -1.931   2.654  0.00  0.00    +0.148 HD
ENDBRANCH   7   8
BRANCH   5  20
ATOM     20  C   UNL     1       0.929  -4.423   0.471  0.00  0.00    +0.244 C 
ATOM     21  O   UNL     1       1.030  -4.910   1.581  0.00  0.00    -0.270 OA
ATOM     22  N   UNL     1       1.091  -5.197  -0.621  0.00  0.00    -0.308 N 
ATOM     23  H   UNL     1       1.010  -4.809  -1.506  0.00  0.00    +0.149 HD
BRANCH  22  24
ATOM     24  C   UNL     1       1.387  -6.624  -0.471  0.00  0.00    +0.076 C 
ATOM     25  C   UNL     1       0.080  -7.400  -0.294  0.00  0.00    +0.028 C 
BRANCH  24  26
ATOM     26  C   UNL     1       2.115  -7.127  -1.719  0.00  0.00    -0.010 C 
ATOM     27  C   UNL     1       3.421  -6.351  -1.895  0.00  0.00    +0.012 C 
ATOM     28  C   UNL     1       4.149  -6.855  -3.143  0.00  0.00    -0.010 C 
ATOM     29  C   UNL     1       4.458  -8.345  -2.987  0.00  0.00    +0.007 C 
ATOM     30  C   UNL     1       3.152  -9.121  -2.810  0.00  0.00    -0.010 C 
ATOM     31  C   UNL     1       2.424  -8.618  -1.562  0.00  0.00    +0.012 C 
ATOM     32  C   UNL     1       2.264  -8.911  -4.038  0.00  0.00    +0.007 C 
ATOM     33  C   UNL     1       1.954  -7.421  -4.195  0.00  0.00    -0.010 C 
ATOM     34  C   UNL     1       3.261  -6.645  -4.371  0.00  0.00    +0.007 C 
ATOM     35  C   UNL     1       1.227  -6.917  -2.947  0.00  0.00    +0.012 C 
ENDBRANCH  24  26
ENDBRANCH  22  24
ENDBRANCH   5  20
TORSDOF 4
