REMARK  Name = ZINC06405154
REMARK  9 active torsions:
REMARK  status: ('A' for Active; 'I' for Inactive)
REMARK    1  A    between atoms: C_1  and  C_2
REMARK    2  A    between atoms: C_2  and  C_3
REMARK    3  A    between atoms: C_12  and  C_13
REMARK    4  A    between atoms: C_13  and  C_15
REMARK    5  A    between atoms: C_15  and  O_16
REMARK    6  A    between atoms: O_16  and  C_17
REMARK    7  A    between atoms: C_20  and  C_23
REMARK    8  A    between atoms: C_23  and  O_25
REMARK    9  A    between atoms: O_25  and  C_26
REMARK                            x       y       z     vdW  Elec       q    Type
REMARK                         _______ _______ _______ _____ _____    ______ ____
ROOT
ATOM      1  C   UNL     1       3.556   0.935  -0.027  0.00  0.00    +0.202 C 
ATOM      2  O   UNL     1       4.239  -0.069  -0.040  0.00  0.00    -0.288 OA
ENDROOT
BRANCH   1  12
ATOM      3  C   UNL     1      -1.002  -0.967   0.006  0.00  0.00    -0.024 A 
ATOM      4  C   UNL     1      -0.671  -2.305  -0.004  0.00  0.00    +0.005 A 
ATOM      5  C   UNL     1       0.657  -2.705  -0.019  0.00  0.00    +0.001 A 
ATOM      6  C   UNL     1       1.665  -1.766  -0.023  0.00  0.00    +0.011 A 
ATOM      7  C   UNL     1       1.345  -0.411  -0.013  0.00  0.00    +0.011 A 
ATOM      8  C   UNL     1       0.002  -0.004   0.002  0.00  0.00    +0.050 A 
ATOM      9  N   UNL     1      -0.017   1.376   0.010  0.00  0.00    -0.360 N 
ATOM     10  H   UNL     1      -0.822   1.917   0.017  0.00  0.00    +0.165 HD
ATOM     11  C   UNL     1       1.236   1.869   0.000  0.00  0.00    +0.095 A 
ATOM     12  C   UNL     1       2.143   0.831  -0.014  0.00  0.00    +0.046 A 
BRANCH   3  14
ATOM     13  C   UNL     1      -2.917  -0.278  -1.409  0.00  0.00    +0.009 C 
ATOM     14  C   UNL     1      -2.449  -0.548   0.022  0.00  0.00    +0.034 C 
ENDBRANCH   3  14
ENDBRANCH   1  12
BRANCH   1  15
ATOM     15  C   UNL     1       4.212   2.292  -0.026  0.00  0.00    +0.308 C 
BRANCH  15  16
ATOM     16  O   UNL     1       5.632   2.135  -0.041  0.00  0.00    -0.484 OA
BRANCH  16  17
ATOM     17  C   UNL     1       6.378   3.268  -0.042  0.00  0.00    +0.121 A 
ATOM     18  C   UNL     1       5.752   4.510  -0.035  0.00  0.00    +0.046 A 
ATOM     19  C   UNL     1       6.504   5.662  -0.031  0.00  0.00    +0.018 A 
ATOM     20  C   UNL     1       7.900   5.584  -0.045  0.00  0.00    +0.059 A 
ATOM     21  C   UNL     1       8.525   4.334  -0.057  0.00  0.00    +0.018 A 
ATOM     22  C   UNL     1       7.765   3.186  -0.056  0.00  0.00    +0.046 A 
BRANCH  20  23
ATOM     23  C   UNL     1       8.710   6.816  -0.045  0.00  0.00    +0.339 C 
ATOM     24  O   UNL     1       9.923   6.746  -0.057  0.00  0.00    -0.245 OA
BRANCH  23  25
ATOM     25  O   UNL     1       8.105   8.020  -0.033  0.00  0.00    -0.464 OA
ATOM     26  C   UNL     1       8.965   9.190  -0.035  0.00  0.00    +0.280 C 
ENDBRANCH  23  25
ENDBRANCH  20  23
ENDBRANCH  16  17
ENDBRANCH  15  16
ENDBRANCH   1  15
TORSDOF 7
