REMARK  Name = ZINC08828687
REMARK  8 active torsions:
REMARK  status: ('A' for Active; 'I' for Inactive)
REMARK    1  A    between atoms: C_4  and  C_7
REMARK    2  A    between atoms: N_9  and  C_10
REMARK    3  A    between atoms: C_10  and  C_21
REMARK    4  A    between atoms: C_11  and  C_12
REMARK    5  A    between atoms: C_15  and  N_18
REMARK    6  A    between atoms: N_23  and  N_24
REMARK    7  A    between atoms: C_25  and  C_26
REMARK    8  A    between atoms: C_29  and  O_32
REMARK                            x       y       z     vdW  Elec       q    Type
REMARK                         _______ _______ _______ _____ _____    ______ ____
ROOT
ATOM      1  C   UNL     1       5.067  -3.052  -0.374  0.00  0.00    +0.098 C 
ATOM      2  C   UNL     1       4.896  -4.325   0.053  0.00  0.00    +0.036 C 
ENDROOT
BRANCH   2   3
ATOM      3  C   UNL     1       3.590  -4.984  -0.103  0.00  0.00    -0.023 A 
ATOM      4  C   UNL     1       2.642  -4.463  -0.990  0.00  0.00    +0.010 A 
ATOM      5  C   UNL     1       1.420  -5.087  -1.131  0.00  0.00    +0.033 A 
ATOM      6  C   UNL     1       1.131  -6.225  -0.398  0.00  0.00    +0.126 A 
ATOM      7  C   UNL     1       2.065  -6.747   0.481  0.00  0.00    +0.033 A 
ATOM      8  C   UNL     1       3.293  -6.138   0.630  0.00  0.00    +0.010 A 
BRANCH   6   9
ATOM      9  N   UNL     1      -0.182  -6.888  -0.555  0.00  0.00    +0.056 N 
ATOM     10  O   UNL     1      -1.000  -6.435  -1.322  0.00  0.00    -0.126 OA
ATOM     11  O   UNL     1      -0.438  -7.883   0.083  0.00  0.00    -0.126 OA
ENDBRANCH   6   9
ENDBRANCH   2   3
BRANCH   1  14
ATOM     12  C   UNL     1       3.981  -1.786  -2.068  0.00  0.00    +0.248 C 
ATOM     13  O   UNL     1       4.978  -1.876  -2.759  0.00  0.00    -0.270 OA
ATOM     14  N   UNL     1       3.971  -2.314  -0.828  0.00  0.00    -0.277 N 
ATOM     15  H   UNL     1       3.203  -2.182  -0.251  0.00  0.00    +0.155 HD
BRANCH  12  19
ATOM     16  C   UNL     1       0.532   0.190  -3.564  0.00  0.00    +0.000 A 
ATOM     17  C   UNL     1       1.665   0.091  -4.352  0.00  0.00    +0.001 A 
ATOM     18  C   UNL     1       2.788  -0.550  -3.872  0.00  0.00    +0.013 A 
ATOM     19  C   UNL     1       2.781  -1.098  -2.588  0.00  0.00    +0.037 A 
ATOM     20  C   UNL     1       1.635  -0.994  -1.798  0.00  0.00    +0.013 A 
ATOM     21  C   UNL     1       0.518  -0.351  -2.290  0.00  0.00    +0.001 A 
ENDBRANCH  12  19
ENDBRANCH   1  14
BRANCH   1  22
ATOM     22  C   UNL     1       6.406  -2.446  -0.360  0.00  0.00    +0.277 C 
ATOM     23  O   UNL     1       7.372  -3.111  -0.032  0.00  0.00    -0.267 OA
ATOM     24  N   UNL     1       6.565  -1.155  -0.711  0.00  0.00    -0.202 N 
ATOM     25  H   UNL     1       5.790  -0.609  -0.917  0.00  0.00    +0.178 HD
BRANCH  24  26
ATOM     26  N   UNL     1       7.849  -0.600  -0.777  0.00  0.00    -0.187 NA
ATOM     27  C   UNL     1       8.002   0.645  -1.115  0.00  0.00    +0.138 C 
BRANCH  27  28
ATOM     28  C   UNL     1       9.354   1.229  -1.185  0.00  0.00    -0.005 A 
ATOM     29  C   UNL     1      10.473   0.443  -0.893  0.00  0.00    +0.013 A 
ATOM     30  C   UNL     1      11.734   0.994  -0.960  0.00  0.00    +0.046 A 
ATOM     31  C   UNL     1      11.895   2.327  -1.315  0.00  0.00    +0.117 A 
ATOM     32  C   UNL     1      10.786   3.111  -1.606  0.00  0.00    +0.046 A 
ATOM     33  C   UNL     1       9.521   2.568  -1.548  0.00  0.00    +0.013 A 
BRANCH  31  34
ATOM     34  O   UNL     1      13.141   2.865  -1.379  0.00  0.00    -0.507 OA
ATOM     35  H   UNL     1      13.559   2.787  -2.247  0.00  0.00    +0.292 HD
ENDBRANCH  31  34
ENDBRANCH  27  28
ENDBRANCH  24  26
ENDBRANCH   1  22
TORSDOF 8
