REMARK  Name = ZINC22689249
REMARK  7 active torsions:
REMARK  status: ('A' for Active; 'I' for Inactive)
REMARK    1  A    between atoms: C_4  and  N_21
REMARK    2  A    between atoms: C_5  and  C_7
REMARK    3  A    between atoms: N_9  and  C_10
REMARK    4  A    between atoms: C_13  and  O_16
REMARK    5  A    between atoms: O_16  and  C_17
REMARK    6  A    between atoms: N_21  and  S_22
REMARK    7  A    between atoms: S_22  and  C_25
REMARK                            x       y       z     vdW  Elec       q    Type
REMARK                         _______ _______ _______ _____ _____    ______ ____
ROOT
ATOM      1  C   UNL     1      -3.644   3.006   0.022  0.00  0.00    +0.001 A 
ATOM      2  C   UNL     1      -2.660   3.372  -0.883  0.00  0.00    +0.002 A 
ATOM      3  C   UNL     1      -1.520   2.607  -1.024  0.00  0.00    +0.025 A 
ATOM      4  C   UNL     1      -1.352   1.462  -0.255  0.00  0.00    +0.060 A 
ATOM      5  C   UNL     1      -2.349   1.085   0.658  0.00  0.00    +0.059 A 
ATOM      6  C   UNL     1      -3.494   1.874   0.792  0.00  0.00    +0.015 A 
ENDROOT
BRANCH   5   7
ATOM      7  C   UNL     1      -2.185  -0.131   1.475  0.00  0.00    +0.250 C 
ATOM      8  O   UNL     1      -1.184  -0.811   1.359  0.00  0.00    -0.270 OA
ATOM      9  N   UNL     1      -3.145  -0.488   2.351  0.00  0.00    -0.281 N 
ATOM     10  H   UNL     1      -4.088   0.077   2.394  0.00  0.00    +0.155 HD
BRANCH   9  11
ATOM     11  C   UNL     1      -2.943  -1.579   3.205  0.00  0.00    +0.034 A 
ATOM     12  C   UNL     1      -4.016  -2.375   3.583  0.00  0.00    +0.027 A 
ATOM     13  C   UNL     1      -3.815  -3.453   4.421  0.00  0.00    +0.048 A 
ATOM     14  C   UNL     1      -2.542  -3.735   4.895  0.00  0.00    +0.130 A 
ATOM     15  C   UNL     1      -1.470  -2.937   4.523  0.00  0.00    +0.048 A 
ATOM     16  C   UNL     1      -1.669  -1.862   3.681  0.00  0.00    +0.027 A 
BRANCH  14  17
ATOM     17  O   UNL     1      -2.345  -4.794   5.725  0.00  0.00    -0.406 OA
BRANCH  17  18
ATOM     18  C   UNL     1      -3.494  -5.573   6.067  0.00  0.00    +0.575 C 
ATOM     19  F   UNL     1      -4.058  -6.106   4.904  0.00  0.00    -0.133 F 
ATOM     20  F   UNL     1      -3.114  -6.614   6.921  0.00  0.00    -0.133 F 
ATOM     21  F   UNL     1      -4.433  -4.760   6.711  0.00  0.00    -0.133 F 
ENDBRANCH  17  18
ENDBRANCH  14  17
ENDBRANCH   9  11
ENDBRANCH   5   7
BRANCH   4  22
ATOM     22  N   UNL     1      -0.205   0.690  -0.395  0.00  0.00    -0.216 N 
ATOM     23  H   UNL     1      -0.265  -0.405  -0.304  0.00  0.00    +0.174 HD
BRANCH  22  24
ATOM     24  S   UNL     1       1.251   1.418  -0.697  0.00  0.00    +0.072 S 
ATOM     25  O   UNL     1       2.234   0.393  -0.653  0.00  0.00    -0.150 OA
ATOM     26  O   UNL     1       1.063   2.245  -1.837  0.00  0.00    -0.150 OA
BRANCH  24  27
ATOM     27  C   UNL     1       1.586   2.495   0.657  0.00  0.00    +0.111 A 
ATOM     28  C   UNL     1       1.157   3.811   0.613  0.00  0.00    +0.031 A 
ATOM     29  C   UNL     1       1.410   4.661   1.671  0.00  0.00    +0.030 A 
ATOM     30  C   UNL     1       2.106   4.198   2.778  0.00  0.00    +0.067 A 
ATOM     31  C   UNL     1       2.543   2.873   2.820  0.00  0.00    +0.069 A 
ATOM     32  C   UNL     1       2.280   2.025   1.755  0.00  0.00    +0.056 A 
ATOM     33  N   UNL     1       3.201   2.704   4.036  0.00  0.00    -0.306 N 
ATOM     34  H   UNL     1       3.637   1.728   4.295  0.00  0.00    +0.170 HD
ATOM     35  C   UNL     1       3.166   3.873   4.703  0.00  0.00    +0.325 A 
ATOM     36  O   UNL     1       3.652   4.068   5.801  0.00  0.00    -0.247 OA
ATOM     37  N   UNL     1       2.512   4.794   3.970  0.00  0.00    -0.306 N 
ATOM     38  H   UNL     1       2.277   5.851   4.164  0.00  0.00    +0.170 HD
ENDBRANCH  24  27
ENDBRANCH  22  24
ENDBRANCH   4  22
TORSDOF 7
