REMARK  Name = ZINC11905525
REMARK  6 active torsions:
REMARK  status: ('A' for Active; 'I' for Inactive)
REMARK    1  A    between atoms: C_4  and  S_7
REMARK    2  A    between atoms: S_7  and  C_8
REMARK    3  A    between atoms: C_13  and  N_14
REMARK    4  A    between atoms: C_15  and  C_17
REMARK    5  A    between atoms: C_17  and  S_18
REMARK    6  A    between atoms: S_18  and  C_19
REMARK                            x       y       z     vdW  Elec       q    Type
REMARK                         _______ _______ _______ _____ _____    ______ ____
ROOT
ATOM      1  N   UNL     1      -3.424   2.237   7.319  0.00  0.00    -0.284 N 
ATOM      2  C   UNL     1      -4.231   2.493   6.271  0.00  0.00    +0.228 C 
ATOM      3  O   UNL     1      -5.410   2.712   6.452  0.00  0.00    -0.275 OA
ATOM      4  H   UNL     1      -2.498   1.990   7.169  0.00  0.00    +0.155 HD
ENDROOT
BRANCH   1  10
ATOM      5  C   UNL     1      -3.064   2.640   9.681  0.00  0.00    +0.034 A 
ATOM      6  C   UNL     1      -3.565   2.734  10.972  0.00  0.00    +0.017 A 
ATOM      7  C   UNL     1      -4.908   2.509  11.210  0.00  0.00    +0.001 A 
ATOM      8  C   UNL     1      -5.757   2.196  10.164  0.00  0.00    +0.002 A 
ATOM      9  C   UNL     1      -5.267   2.106   8.874  0.00  0.00    +0.024 A 
ATOM     10  C   UNL     1      -3.922   2.329   8.626  0.00  0.00    +0.047 A 
BRANCH   5  11
ATOM     11  S   UNL     1      -1.351   2.919   9.376  0.00  0.00    -0.088 S 
BRANCH  11  15
ATOM     12  C   UNL     1       0.334  -1.234   8.719  0.00  0.00    +0.000 A 
ATOM     13  C   UNL     1       1.139  -0.125   8.530  0.00  0.00    +0.001 A 
ATOM     14  C   UNL     1       0.628   1.143   8.729  0.00  0.00    +0.015 A 
ATOM     15  C   UNL     1      -0.696   1.303   9.120  0.00  0.00    +0.013 A 
ATOM     16  C   UNL     1      -1.499   0.186   9.316  0.00  0.00    +0.015 A 
ATOM     17  C   UNL     1      -0.984  -1.078   9.109  0.00  0.00    +0.001 A 
ENDBRANCH  11  15
ENDBRANCH   5  11
ENDBRANCH   1  10
BRANCH   2  18
ATOM     18  C   UNL     1      -3.668   2.507   4.873  0.00  0.00    +0.173 C 
BRANCH  18  19
ATOM     19  S   UNL     1      -4.991   2.877   3.694  0.00  0.00    -0.078 S 
BRANCH  19  20
ATOM     20  C   UNL     1      -4.080   2.831   2.187  0.00  0.00    +0.170 A 
ATOM     21  N   UNL     1      -4.720   3.065   1.008  0.00  0.00    -0.302 N 
ATOM     22  H   UNL     1      -5.670   3.260   0.998  0.00  0.00    +0.171 HD
ATOM     23  C   UNL     1      -4.023   3.023  -0.145  0.00  0.00    +0.255 A 
ATOM     24  O   UNL     1      -4.580   3.227  -1.212  0.00  0.00    -0.267 OA
ATOM     25  C   UNL     1      -2.641   2.741  -0.103  0.00  0.00    +0.038 A 
ATOM     26  C   UNL     1      -2.052   2.523   1.101  0.00  0.00    +0.052 A 
ATOM     27  N   UNL     1      -2.790   2.571   2.216  0.00  0.00    -0.228 NA
ATOM     28  C   UNL     1      -0.580   2.234   1.246  0.00  0.00    +0.056 C 
ATOM     29  C   UNL     1       0.014   1.792  -0.090  0.00  0.00    +0.006 C 
ATOM     30  C   UNL     1      -0.384   2.817  -1.159  0.00  0.00    +0.005 C 
ATOM     31  C   UNL     1      -1.887   2.696  -1.404  0.00  0.00    +0.042 C 
ENDBRANCH  19  20
ENDBRANCH  18  19
ENDBRANCH   2  18
TORSDOF 6
