REMARK  Name = ZINC09713854
REMARK  4 active torsions:
REMARK  status: ('A' for Active; 'I' for Inactive)
REMARK    1  A    between atoms: C_6  and  C_7
REMARK    2  A    between atoms: C_12  and  C_13
REMARK    3  A    between atoms: C_12  and  N_62
REMARK    4  A    between atoms: N_15  and  N_16
REMARK                            x       y       z     vdW  Elec       q    Type
REMARK                         _______ _______ _______ _____ _____    ______ ____
ROOT
ATOM      1  C   UNL     1      -2.285   3.509  -1.538  0.00  0.00    +0.021 C 
ENDROOT
BRANCH   1   6
ATOM      2  C   UNL     1      -1.565   2.817   0.682  0.00  0.00    -0.037 C 
ATOM      3  C   UNL     1      -0.778   1.605   1.246  0.00  0.00    -0.013 C 
ATOM      4  C   UNL     1      -0.013   1.086   0.008  0.00  0.00    -0.020 C 
ATOM      5  C   UNL     1      -0.799   1.616  -1.205  0.00  0.00    -0.077 C 
ATOM      6  N   UNL     1      -1.943   2.349  -0.661  0.00  0.00    +0.390 N 
ATOM      7  H   UNL     1      -2.755   1.725  -0.596  0.00  0.00    -0.080 HD
BRANCH   2  13
ATOM      8  C   UNL     1      -3.882   2.263   1.447  0.00  0.00    +0.006 A 
ATOM      9  C   UNL     1      -5.004   2.515   2.216  0.00  0.00    +0.049 A 
ATOM     10  C   UNL     1      -5.023   3.610   3.064  0.00  0.00    +0.162 A 
ATOM     11  C   UNL     1      -3.920   4.449   3.140  0.00  0.00    +0.162 A 
ATOM     12  C   UNL     1      -2.797   4.190   2.374  0.00  0.00    +0.051 A 
ATOM     13  C   UNL     1      -2.784   3.099   1.523  0.00  0.00    -0.057 A 
ATOM     14  O   UNL     1      -3.949   5.526   3.978  0.00  0.00    -0.488 OA
ATOM     15  C   UNL     1      -3.952   5.229   5.376  0.00  0.00    +0.232 C 
ATOM     16  C   UNL     1      -5.365   4.952   5.865  0.00  0.00    +0.082 C 
ATOM     17  C   UNL     1      -5.960   3.701   5.237  0.00  0.00    +0.232 C 
ATOM     18  O   UNL     1      -6.124   3.871   3.827  0.00  0.00    -0.488 OA
ENDBRANCH   2  13
ENDBRANCH   1   6
BRANCH   1  19
ATOM     19  C   UNL     1      -2.849   3.010  -2.844  0.00  0.00    +0.213 C 
ATOM     20  O   UNL     1      -2.968   1.819  -3.037  0.00  0.00    -0.276 OA
ATOM     21  N   UNL     1      -3.221   3.888  -3.796  0.00  0.00    -0.225 N 
ATOM     22  H   UNL     1      -3.126   4.841  -3.642  0.00  0.00    +0.173 HD
BRANCH  21  23
ATOM     23  N   UNL     1      -3.746   3.424  -5.010  0.00  0.00    -0.137 N 
ATOM     24  C   UNL     1      -5.052   3.477  -5.341  0.00  0.00    +0.263 C 
ATOM     25  O   UNL     1      -5.962   3.917  -4.671  0.00  0.00    -0.271 OA
ATOM     26  C   UNL     1      -5.144   2.872  -6.723  0.00  0.00    +0.114 C 
ATOM     27  C   UNL     1      -5.678   3.897  -7.718  0.00  0.00    +0.035 C 
ATOM     28  C   UNL     1      -5.736   3.274  -9.115  0.00  0.00    +0.003 C 
ATOM     29  C   UNL     1      -6.645   2.044  -9.086  0.00  0.00    +0.000 C 
ATOM     30  C   UNL     1      -6.083   1.016  -8.103  0.00  0.00    +0.003 C 
ATOM     31  C   UNL     1      -6.027   1.629  -6.702  0.00  0.00    +0.035 C 
ATOM     32  N   UNL     1      -3.757   2.513  -7.047  0.00  0.00    -0.284 N 
ATOM     33  C   UNL     1      -3.011   2.879  -5.987  0.00  0.00    +0.326 C 
ATOM     34  O   UNL     1      -1.807   2.729  -5.924  0.00  0.00    -0.251 OA
ATOM     35  H   UNL     1      -3.440   2.099  -7.865  0.00  0.00    +0.151 HD
ENDBRANCH  21  23
ENDBRANCH   1  19
TORSDOF 4
