REMARK  Name = ZINC10244801
REMARK  8 active torsions:
REMARK  status: ('A' for Active; 'I' for Inactive)
REMARK    1  A    between atoms: C_1  and  C_2
REMARK    2  A    between atoms: C_5  and  C_35
REMARK    3  A    between atoms: C_6  and  N_8
REMARK    4  A    between atoms: C_22  and  S_23
REMARK    5  A    between atoms: S_23  and  C_24
REMARK    6  A    between atoms: C_24  and  C_25
REMARK    7  A    between atoms: N_27  and  C_28
REMARK    8  A    between atoms: C_28  and  C_29
REMARK                            x       y       z     vdW  Elec       q    Type
REMARK                         _______ _______ _______ _____ _____    ______ ____
ROOT
ATOM      1  N   UNL     1      -3.450   5.354   9.104  0.00  0.00    -0.254 N 
ATOM      2  C   UNL     1      -2.780   5.710  10.221  0.00  0.00    +0.283 A 
ATOM      3  O   UNL     1      -3.382   6.021  11.236  0.00  0.00    -0.265 OA
ATOM      4  C   UNL     1      -1.370   5.715  10.191  0.00  0.00    +0.132 A 
ATOM      5  C   UNL     1      -0.730   5.352   9.007  0.00  0.00    +0.104 A 
ATOM      6  C   UNL     1       0.714   5.448   9.267  0.00  0.00    +0.026 A 
ATOM      7  C   UNL     1       1.848   5.215   8.488  0.00  0.00    +0.012 A 
ATOM      8  C   UNL     1       3.091   5.395   9.026  0.00  0.00    +0.001 A 
ATOM      9  C   UNL     1       3.235   5.809  10.342  0.00  0.00    +0.002 A 
ATOM     10  C   UNL     1       2.130   6.044  11.129  0.00  0.00    +0.026 A 
ATOM     11  C   UNL     1       0.853   5.867  10.602  0.00  0.00    +0.049 A 
ATOM     12  N   UNL     1      -0.407   6.022  11.139  0.00  0.00    -0.349 N 
ATOM     13  H   UNL     1      -0.593   6.305  12.048  0.00  0.00    +0.166 HD
ATOM     14  N   UNL     1      -1.456   5.002   7.933  0.00  0.00    -0.221 NA
ATOM     15  C   UNL     1      -2.769   5.006   7.972  0.00  0.00    +0.177 A 
ENDROOT
BRANCH   1  21
ATOM     16  C   UNL     1      -7.659   2.924   9.857  0.00  0.00    +0.044 C 
ATOM     17  C   UNL     1      -6.916   4.176   9.467  0.00  0.00    -0.048 A 
ATOM     18  C   UNL     1      -7.618   5.313   9.110  0.00  0.00    +0.004 A 
ATOM     19  C   UNL     1      -6.940   6.463   8.751  0.00  0.00    +0.005 A 
ATOM     20  C   UNL     1      -5.558   6.480   8.748  0.00  0.00    -0.026 A 
ATOM     21  C   UNL     1      -4.851   5.340   9.107  0.00  0.00    +0.055 A 
ATOM     22  C   UNL     1      -5.535   4.185   9.461  0.00  0.00    +0.030 A 
ATOM     23  C   UNL     1      -4.820   7.734   8.357  0.00  0.00    +0.046 C 
ENDBRANCH   1  21
BRANCH  15  24
ATOM     24  S   UNL     1      -3.674   4.546   6.532  0.00  0.00    -0.078 S 
BRANCH  24  25
ATOM     25  C   UNL     1      -2.305   4.204   5.397  0.00  0.00    +0.173 C 
BRANCH  25  26
ATOM     26  C   UNL     1      -2.856   3.780   4.060  0.00  0.00    +0.223 C 
ATOM     27  O   UNL     1      -4.055   3.714   3.891  0.00  0.00    -0.275 OA
ATOM     28  N   UNL     1      -2.015   3.472   3.052  0.00  0.00    -0.312 N 
ATOM     29  H   UNL     1      -1.056   3.525   3.188  0.00  0.00    +0.149 HD
BRANCH  28  30
ATOM     30  C   UNL     1      -2.550   3.059   1.752  0.00  0.00    +0.135 C 
BRANCH  30  31
ATOM     31  C   UNL     1      -1.394   2.771   0.793  0.00  0.00    +0.135 C 
ATOM     32  C   UNL     1      -1.928   2.453  -0.626  0.00  0.00    +0.035 C 
ATOM     33  C   UNL     1      -0.778   1.606  -1.224  0.00  0.00    +0.031 C 
ATOM     34  C   UNL     1      -0.013   1.086   0.008  0.00  0.00    +0.160 C 
ATOM     35  O   UNL     1      -0.705   1.559   1.176  0.00  0.00    -0.375 OA
ENDBRANCH  30  31
ENDBRANCH  28  30
ENDBRANCH  25  26
ENDBRANCH  24  25
ENDBRANCH  15  24
TORSDOF 6
