REMARK  Name = ZINC12343325
REMARK  4 active torsions:
REMARK  status: ('A' for Active; 'I' for Inactive)
REMARK    1  A    between atoms: C_1  and  C_2
REMARK    2  A    between atoms: C_2  and  C_23
REMARK    3  A    between atoms: N_3  and  N_4
REMARK    4  A    between atoms: C_26  and  N_29
REMARK                            x       y       z     vdW  Elec       q    Type
REMARK                         _______ _______ _______ _____ _____    ______ ____
ROOT
ATOM      1  N   UNL     1       2.444  -1.178  -3.289  0.00  0.00    -0.205 N 
ATOM      2  C   UNL     1       1.373  -0.310  -3.368  0.00  0.00    +0.241 A 
ATOM      3  N   UNL     1       0.864   0.012  -4.553  0.00  0.00    -0.180 NA
ATOM      4  C   UNL     1      -0.167   0.848  -4.628  0.00  0.00    +0.224 A 
ATOM      5  N   UNL     1      -0.692   1.357  -3.519  0.00  0.00    -0.181 NA
ATOM      6  C   UNL     1      -0.180   1.039  -2.334  0.00  0.00    +0.224 A 
ATOM      7  N   UNL     1       0.851   0.203  -2.258  0.00  0.00    -0.180 NA
ATOM      8  N   UNL     1      -0.723   1.572  -1.182  0.00  0.00    -0.299 N 
ATOM      9  C   UNL     1      -0.013   1.086   0.008  0.00  0.00    +0.108 C 
ATOM     10  C   UNL     1      -0.729   1.579   1.267  0.00  0.00    +0.019 C 
ATOM     11  C   UNL     1      -0.764   3.110   1.262  0.00  0.00    +0.003 C 
ATOM     12  C   UNL     1      -1.466   3.591  -0.011  0.00  0.00    +0.019 C 
ATOM     13  C   UNL     1      -0.729   3.040  -1.234  0.00  0.00    +0.108 C 
ATOM     14  N   UNL     1      -0.695   1.182  -5.859  0.00  0.00    -0.299 N 
ATOM     15  C   UNL     1      -2.132   0.885  -5.913  0.00  0.00    +0.108 C 
ATOM     16  C   UNL     1      -2.712   1.400  -7.232  0.00  0.00    +0.019 C 
ATOM     17  C   UNL     1      -1.988   0.725  -8.400  0.00  0.00    +0.003 C 
ATOM     18  C   UNL     1      -0.487   1.010  -8.294  0.00  0.00    +0.019 C 
ATOM     19  C   UNL     1       0.028   0.506  -6.944  0.00  0.00    +0.108 C 
ATOM     20  H   UNL     1       2.816  -1.413  -2.424  0.00  0.00    +0.177 HD
ENDROOT
BRANCH   1  23
ATOM     21  C   UNL     1       4.578  -2.900  -3.041  0.00  0.00    +0.068 C 
ATOM     22  C   UNL     1       4.002  -2.535  -4.384  0.00  0.00    +0.063 C 
ATOM     23  N   UNL     1       2.995  -1.719  -4.458  0.00  0.00    -0.184 NA
BRANCH  22  24
ATOM     24  C   UNL     1       4.581  -3.105  -5.614  0.00  0.00    -0.002 A 
ATOM     25  C   UNL     1       5.668  -3.979  -5.537  0.00  0.00    +0.011 A 
ATOM     26  C   UNL     1       6.203  -4.513  -6.689  0.00  0.00    +0.023 A 
ATOM     27  C   UNL     1       5.670  -4.175  -7.928  0.00  0.00    +0.025 A 
ATOM     28  C   UNL     1       4.591  -3.301  -8.009  0.00  0.00    +0.023 A 
ATOM     29  C   UNL     1       4.047  -2.767  -6.861  0.00  0.00    +0.011 A 
BRANCH  27  30
ATOM     30  N   UNL     1       6.218  -4.714  -9.092  0.00  0.00    -0.358 N 
ATOM     31  H   UNL     1       5.847  -4.479  -9.957  0.00  0.00    +0.142 HD
ATOM     32  H   UNL     1       6.971  -5.324  -9.037  0.00  0.00    +0.142 HD
ENDBRANCH  27  30
ENDBRANCH  22  24
ENDBRANCH   1  23
TORSDOF 3
