REMARK  Name = ZINC39711292
REMARK  11 active torsions:
REMARK  status: ('A' for Active; 'I' for Inactive)
REMARK    1  A    between atoms: C_1  and  C_2
REMARK    2  A    between atoms: C_7  and  N_8
REMARK    3  A    between atoms: N_11  and  C_14
REMARK    4  A    between atoms: C_14  and  C_16
REMARK    5  A    between atoms: C_14  and  C_30
REMARK    6  A    between atoms: C_21  and  O_28
REMARK    7  A    between atoms: O_28  and  C_29
REMARK    8  A    between atoms: N_35  and  C_36
REMARK    9  A    between atoms: C_36  and  C_37
REMARK   10  A    between atoms: C_36  and  C_38
REMARK   11  A    between atoms: C_36  and  C_39
REMARK                            x       y       z     vdW  Elec       q    Type
REMARK                         _______ _______ _______ _____ _____    ______ ____
ROOT
ATOM      1  C   UNL     1      -0.002   3.397   4.785  0.00  0.00    -0.009 C 
ENDROOT
BRANCH   1   2
ATOM      2  C   UNL     1       1.175   3.798   5.677  0.00  0.00    +0.088 C 
ATOM      3  C   UNL     1       1.280   2.779   6.795  0.00  0.00    -0.006 C 
ATOM      4  C   UNL     1       1.196   3.244   8.074  0.00  0.00    -0.004 A 
ATOM      5  C   UNL     1       1.287   2.329   9.211  0.00  0.00    +0.055 A 
ATOM      6  C   UNL     1       1.198   2.838  10.472  0.00  0.00    +0.121 A 
ATOM      7  C   UNL     1       1.023   4.210  10.691  0.00  0.00    +0.047 A 
ATOM      8  C   UNL     1       0.932   5.107   9.676  0.00  0.00    +0.027 A 
ATOM      9  C   UNL     1       1.011   4.682   8.336  0.00  0.00    +0.041 A 
ATOM     10  N   UNL     1       0.921   5.574   7.349  0.00  0.00    -0.285 N 
ATOM     11  C   UNL     1       0.986   5.245   6.071  0.00  0.00    +0.223 C 
ATOM     12  O   UNL     1       0.896   6.105   5.215  0.00  0.00    -0.275 OA
ATOM     13  H   UNL     1       0.800   6.508   7.581  0.00  0.00    +0.155 HD
BRANCH   6  14
ATOM     14  O   UNL     1       1.281   1.998  11.537  0.00  0.00    -0.495 OA
ATOM     15  C   UNL     1       1.182   2.586  12.836  0.00  0.00    +0.277 C 
ENDBRANCH   6  14
ENDBRANCH   1   2
BRANCH   1  19
ATOM     16  N   UNL     1       0.603  -0.112   2.586  0.00  0.00    -0.333 N 
ATOM     17  C   UNL     1      -0.775   0.183   3.009  0.00  0.00    +0.086 C 
ATOM     18  C   UNL     1      -0.867   1.671   3.364  0.00  0.00    -0.059 C 
ATOM     19  N   UNL     1       0.157   1.998   4.364  0.00  0.00    +0.387 N 
ATOM     20  C   UNL     1       1.495   1.811   3.790  0.00  0.00    -0.059 C 
ATOM     21  C   UNL     1       1.704   0.325   3.459  0.00  0.00    +0.086 C 
ATOM     22  H   UNL     1       0.049   1.394   5.165  0.00  0.00    -0.081 HD
BRANCH  16  29
ATOM     23  C   UNL     1       0.950   1.422   0.216  0.00  0.00    +0.045 C 
ATOM     24  C   UNL     1       1.035  -0.083   0.212  0.00  0.00    -0.029 A 
ATOM     25  C   UNL     1       1.294  -0.757  -0.965  0.00  0.00    +0.006 A 
ATOM     26  C   UNL     1       1.371  -2.137  -0.970  0.00  0.00    +0.020 A 
ATOM     27  C   UNL     1       1.190  -2.848   0.204  0.00  0.00    +0.043 A 
ATOM     28  C   UNL     1       0.931  -2.179   1.385  0.00  0.00    +0.043 A 
ATOM     29  C   UNL     1       0.858  -0.792   1.393  0.00  0.00    +0.034 A 
ATOM     30 CL   UNL     1       1.289  -4.581   0.192  0.00  0.00    -0.083 Cl
ENDBRANCH  16  29
ENDBRANCH   1  19
BRANCH   1  31
ATOM     31  C   UNL     1      -1.309   3.548   5.567  0.00  0.00    +0.205 C 
ATOM     32  N   UNL     1      -1.429   2.487   6.575  0.00  0.00    -0.152 NA
ATOM     33  N   UNL     1      -2.433   1.815   6.330  0.00  0.00    -0.070 NA
ATOM     34  N   UNL     1      -3.121   2.261   5.202  0.00  0.00    -0.179 N 
ATOM     35  N   UNL     1      -2.470   3.348   4.674  0.00  0.00    -0.183 NA
ATOM     36  H   UNL     1      -3.933   1.866   4.846  0.00  0.00    +0.191 HD
BRANCH  35  37
ATOM     37  C   UNL     1      -3.338   4.533   4.667  0.00  0.00    +0.035 C 
ATOM     38  C   UNL     1      -2.549   5.741   4.158  0.00  0.00    +0.029 C 
ATOM     39  C   UNL     1      -4.536   4.282   3.748  0.00  0.00    +0.029 C 
ATOM     40  C   UNL     1      -3.835   4.810   6.087  0.00  0.00    +0.029 C 
ENDBRANCH  35  37
ENDBRANCH   1  31
TORSDOF 6
