REMARK  Name = ZINC22865946
REMARK  8 active torsions:
REMARK  status: ('A' for Active; 'I' for Inactive)
REMARK    1  A    between atoms: C_1  and  C_2
REMARK    2  A    between atoms: C_2  and  C_3
REMARK    3  A    between atoms: C_2  and  C_4
REMARK    4  A    between atoms: C_7  and  C_10
REMARK    5  A    between atoms: C_16  and  C_18
REMARK    6  A    between atoms: C_18  and  N_19
REMARK    7  A    between atoms: C_22  and  C_26
REMARK    8  A    between atoms: C_22  and  C_27
REMARK                            x       y       z     vdW  Elec       q    Type
REMARK                         _______ _______ _______ _____ _____    ______ ____
ROOT
ATOM      1  C   UNL     1       0.099  -3.826   4.703  0.00  0.00    +0.080 A 
ATOM      2  C   UNL     1       0.093  -2.797   5.603  0.00  0.00    +0.076 A 
ATOM      3  S   UNL     1       0.071  -1.391   4.499  0.00  0.00    -0.060 S 
ATOM      4  C   UNL     1       0.062  -2.310   2.966  0.00  0.00    +0.165 A 
ATOM      5  N   UNL     1       0.083  -3.555   3.406  0.00  0.00    -0.225 NA
ATOM      6  N   UNL     1       0.043  -1.840   1.659  0.00  0.00    -0.263 N 
ATOM      7  C   UNL     1       0.022  -0.514   1.420  0.00  0.00    +0.237 C 
ATOM      8  O   UNL     1       0.021   0.269   2.346  0.00  0.00    -0.274 OA
ATOM      9  H   UNL     1       0.044  -2.550   0.819  0.00  0.00    +0.157 HD
ENDROOT
BRANCH   1  13
ATOM     10  C   UNL     1       0.166  -7.857   6.051  0.00  0.00    -0.045 A 
ATOM     11  C   UNL     1       0.149  -7.585   4.695  0.00  0.00    +0.004 A 
ATOM     12  C   UNL     1       0.127  -6.278   4.252  0.00  0.00    +0.010 A 
ATOM     13  C   UNL     1       0.122  -5.232   5.173  0.00  0.00    +0.001 A 
ATOM     14  C   UNL     1       0.144  -5.513   6.538  0.00  0.00    +0.010 A 
ATOM     15  C   UNL     1       0.161  -6.823   6.970  0.00  0.00    +0.004 A 
BRANCH  10  17
ATOM     16  C   UNL     1       1.450  -9.524   7.363  0.00  0.00    +0.012 C 
ATOM     17  C   UNL     1       0.190  -9.286   6.529  0.00  0.00    +0.013 C 
ATOM     18  C   UNL     1      -1.048  -9.558   7.387  0.00  0.00    +0.012 C 
ENDBRANCH  10  17
ENDBRANCH   1  13
BRANCH   7  19
ATOM     19  C   UNL     1       0.002  -0.004   0.002  0.00  0.00    +0.214 C 
BRANCH  19  20
ATOM     20  N   UNL     1      -0.018   1.461   0.010  0.00  0.00    -0.215 N 
ATOM     21  C   UNL     1       1.087   2.233   0.004  0.00  0.00    +0.247 C 
ATOM     22  O   UNL     1       2.240   1.861  -0.008  0.00  0.00    -0.273 OA
ATOM     23  C   UNL     1       0.587   3.664   0.015  0.00  0.00    +0.113 C 
ATOM     24  N   UNL     1      -0.879   3.518   0.028  0.00  0.00    -0.285 N 
ATOM     25  C   UNL     1      -1.135   2.197   0.019  0.00  0.00    +0.310 C 
ATOM     26  O   UNL     1      -2.255   1.726   0.022  0.00  0.00    -0.252 OA
ATOM     27  C   UNL     1       1.069   4.393   1.271  0.00  0.00    +0.042 C 
ATOM     28  H   UNL     1      -1.521   4.412   0.042  0.00  0.00    +0.151 HD
BRANCH  23  29
ATOM     29  C   UNL     1       1.043   4.404  -1.244  0.00  0.00    +0.021 C 
ATOM     30  C   UNL     1       2.161   5.436  -1.090  0.00  0.00    +0.006 C 
ATOM     31  C   UNL     1       0.724   5.897  -1.340  0.00  0.00    +0.006 C 
ENDBRANCH  23  29
ENDBRANCH  19  20
ENDBRANCH   7  19
TORSDOF 5
