REMARK  Name = ZINC35815412
REMARK  7 active torsions:
REMARK  status: ('A' for Active; 'I' for Inactive)
REMARK    1  A    between atoms: C_6  and  C_7
REMARK    2  A    between atoms: N_9  and  C_10
REMARK    3  A    between atoms: N_9  and  C_30
REMARK    4  A    between atoms: C_10  and  C_11
REMARK    5  A    between atoms: C_16  and  C_19
REMARK    6  A    between atoms: C_19  and  C_20
REMARK    7  A    between atoms: N_22  and  C_23
REMARK                            x       y       z     vdW  Elec       q    Type
REMARK                         _______ _______ _______ _____ _____    ______ ____
ROOT
ATOM      1  C   UNL     1      -2.942  -3.559  -0.910  0.00  0.00    +0.236 C 
ATOM      2  O   UNL     1      -2.292  -3.402  -1.921  0.00  0.00    -0.274 OA
ATOM      3  N   UNL     1      -3.984  -4.415  -0.905  0.00  0.00    -0.263 N 
ATOM      4  C   UNL     1      -4.312  -5.117  -2.059  0.00  0.00    +0.165 A 
ATOM      5  N   UNL     1      -5.287  -5.981  -2.241  0.00  0.00    -0.229 NA
ATOM      6  C   UNL     1      -5.469  -6.569  -3.409  0.00  0.00    +0.059 A 
ATOM      7  C   UNL     1      -4.609  -6.241  -4.404  0.00  0.00    +0.072 A 
ATOM      8  S   UNL     1      -3.563  -5.062  -3.565  0.00  0.00    -0.060 S 
ATOM      9  H   UNL     1      -4.504  -4.541  -0.096  0.00  0.00    +0.157 HD
ENDROOT
BRANCH   1  10
ATOM     10  C   UNL     1      -2.586  -2.799   0.341  0.00  0.00    +0.204 C 
BRANCH  10  13
ATOM     11  C   UNL     1      -1.593  -0.615  -0.084  0.00  0.00    +0.247 C 
ATOM     12  O   UNL     1      -0.662   0.073  -0.455  0.00  0.00    -0.270 OA
ATOM     13  N   UNL     1      -1.427  -1.942   0.079  0.00  0.00    -0.286 N 
BRANCH  11  19
ATOM     14  C   UNL     1      -2.977   1.276   0.762  0.00  0.00    +0.014 A 
ATOM     15  C   UNL     1      -4.206   1.849   1.015  0.00  0.00    +0.021 A 
ATOM     16  C   UNL     1      -5.369   1.165   0.702  0.00  0.00    +0.041 A 
ATOM     17  C   UNL     1      -5.306  -0.097   0.134  0.00  0.00    +0.021 A 
ATOM     18  C   UNL     1      -4.083  -0.680  -0.123  0.00  0.00    +0.014 A 
ATOM     19  C   UNL     1      -2.907   0.005   0.190  0.00  0.00    +0.037 A 
ATOM     20 CL   UNL     1      -6.912   1.893   1.023  0.00  0.00    -0.084 Cl
ENDBRANCH  11  19
BRANCH  13  21
ATOM     21  C   UNL     1      -0.087  -2.529  -0.007  0.00  0.00    +0.077 C 
ATOM     22  C   UNL     1       1.107  -1.579   0.097  0.00  0.00    +0.024 C 
ATOM     23  C   UNL     1       0.746  -2.208  -1.250  0.00  0.00    +0.024 C 
ENDBRANCH  13  21
ENDBRANCH  10  13
ENDBRANCH   1  10
BRANCH   6  24
ATOM     24  C   UNL     1      -6.583  -7.560  -3.626  0.00  0.00    +0.152 C 
BRANCH  24  25
ATOM     25  C   UNL     1      -6.486  -8.658  -2.599  0.00  0.00    +0.223 C 
ATOM     26  O   UNL     1      -5.599  -8.638  -1.772  0.00  0.00    -0.275 OA
ATOM     27  N   UNL     1      -7.384  -9.663  -2.599  0.00  0.00    -0.285 N 
ATOM     28  H   UNL     1      -8.057  -9.711  -3.296  0.00  0.00    +0.155 HD
BRANCH  27  29
ATOM     29  C   UNL     1      -7.346 -10.637  -1.594  0.00  0.00    +0.034 A 
ATOM     30  C   UNL     1      -7.694 -11.950  -1.884  0.00  0.00    +0.026 A 
ATOM     31  C   UNL     1      -7.655 -12.909  -0.890  0.00  0.00    +0.040 A 
ATOM     32  C   UNL     1      -7.271 -12.562   0.394  0.00  0.00    +0.124 A 
ATOM     33  C   UNL     1      -6.923 -11.253   0.685  0.00  0.00    +0.040 A 
ATOM     34  C   UNL     1      -6.954 -10.292  -0.307  0.00  0.00    +0.026 A 
ATOM     35  F   UNL     1      -7.234 -13.501   1.364  0.00  0.00    -0.205 F 
ENDBRANCH  27  29
ENDBRANCH  24  25
ENDBRANCH   6  24
TORSDOF 7
