REMARK  Name = ZINC62220461
REMARK  3 active torsions:
REMARK  status: ('A' for Active; 'I' for Inactive)
REMARK    1  A    between atoms: C_8  and  C_13
REMARK    2  A    between atoms: C_14  and  C_15
REMARK    3  A    between atoms: N_17  and  C_18
REMARK                            x       y       z     vdW  Elec       q    Type
REMARK                         _______ _______ _______ _____ _____    ______ ____
ROOT
ATOM      1  C   UNL     1       3.810  -6.277  -0.105  0.00  0.00    +0.241 C 
ATOM      2  O   UNL     1       2.811  -6.951   0.067  0.00  0.00    -0.270 OA
ATOM      3  N   UNL     1       4.985  -6.872  -0.390  0.00  0.00    -0.282 N 
ATOM      4  H   UNL     1       5.796  -6.343  -0.443  0.00  0.00    +0.155 HD
ENDROOT
BRANCH   3   5
ATOM      5  C   UNL     1       5.035  -8.254  -0.607  0.00  0.00    +0.037 A 
ATOM      6  C   UNL     1       3.962  -8.900  -1.212  0.00  0.00    +0.025 A 
ATOM      7  C   UNL     1       4.008 -10.262  -1.429  0.00  0.00    +0.031 A 
ATOM      8  C   UNL     1       5.124 -10.988  -1.042  0.00  0.00    +0.087 A 
ATOM      9  C   UNL     1       6.202 -10.344  -0.435  0.00  0.00    +0.159 A 
ATOM     10  C   UNL     1       6.156  -8.975  -0.223  0.00  0.00    +0.071 A 
ATOM     11  O   UNL     1       7.137 -11.288  -0.169  0.00  0.00    -0.408 OA
ATOM     12  C   UNL     1       6.688 -12.483  -0.583  0.00  0.00    +0.419 A 
ATOM     13  O   UNL     1       7.295 -13.533  -0.487  0.00  0.00    -0.223 OA
ATOM     14  N   UNL     1       5.462 -12.340  -1.122  0.00  0.00    -0.288 N 
ATOM     15  H   UNL     1       4.914 -13.047  -1.497  0.00  0.00    +0.172 HD
ENDBRANCH   3   5
BRANCH   1  17
ATOM     16  C   UNL     1       2.558  -4.266   0.278  0.00  0.00    +0.018 C 
ATOM     17  C   UNL     1       3.737  -4.864  -0.007  0.00  0.00    +0.068 C 
BRANCH  16  25
ATOM     18  C   UNL     1       0.054   1.237   1.326  0.00  0.00    +0.001 A 
ATOM     19  C   UNL     1       1.246   1.948   1.382  0.00  0.00    +0.002 A 
ATOM     20  C   UNL     1       2.454   1.308   1.211  0.00  0.00    +0.026 A 
ATOM     21  C   UNL     1       2.487  -0.065   0.980  0.00  0.00    +0.049 A 
ATOM     22  C   UNL     1       1.277  -0.784   0.924  0.00  0.00    -0.001 A 
ATOM     23  C   UNL     1       0.059  -0.109   1.101  0.00  0.00    +0.010 A 
ATOM     24  C   UNL     1       1.292  -2.180   0.691  0.00  0.00    +0.023 A 
ATOM     25  C   UNL     1       2.508  -2.821   0.520  0.00  0.00    +0.040 A 
ATOM     26  C   UNL     1       3.747  -2.035   0.586  0.00  0.00    +0.256 A 
ATOM     27  O   UNL     1       4.824  -2.584   0.437  0.00  0.00    -0.267 OA
ATOM     28  N   UNL     1       3.695  -0.708   0.809  0.00  0.00    -0.322 N 
ATOM     29  H   UNL     1       4.519  -0.198   0.851  0.00  0.00    +0.169 HD
ENDBRANCH  16  25
ENDBRANCH   1  17
TORSDOF 3
