REMARK  Name = ZINC13063861
REMARK  11 active torsions:
REMARK  status: ('A' for Active; 'I' for Inactive)
REMARK    1  A    between atoms: C_1  and  C_2
REMARK    2  A    between atoms: C_2  and  C_3
REMARK    3  A    between atoms: C_3  and  C_5
REMARK    4  A    between atoms: C_3  and  N_66
REMARK    5  A    between atoms: N_9  and  C_10
REMARK    6  A    between atoms: C_10  and  C_11
REMARK    7  A    between atoms: C_17  and  C_18
REMARK    8  A    between atoms: C_17  and  N_66
REMARK    9  A    between atoms: C_25  and  C_26
REMARK   10  A    between atoms: C_25  and  N_66
REMARK   11  A    between atoms: C_31  and  C_38
REMARK                            x       y       z     vdW  Elec       q    Type
REMARK                         _______ _______ _______ _____ _____    ______ ____
ROOT
ATOM      1  N   UNL     1       1.484  -2.696  -2.494  0.00  0.00    +0.392 N 
ATOM      2  H   UNL     1       2.270  -2.148  -2.863  0.00  0.00    -0.080 HD
ENDROOT
BRANCH   1   3
ATOM      3  C   UNL     1       1.789  -4.135  -2.643  0.00  0.00    +0.003 C 
BRANCH   3   4
ATOM      4  C   UNL     1       3.280  -4.323  -2.532  0.00  0.00    +0.138 A 
ATOM      5  N   UNL     1       4.108  -3.609  -1.808  0.00  0.00    -0.115 NA
ATOM      6  N   UNL     1       5.294  -4.081  -1.979  0.00  0.00    -0.023 NA
ATOM      7  N   UNL     1       5.246  -5.072  -2.799  0.00  0.00    -0.044 NA
ATOM      8  N   UNL     1       4.022  -5.253  -3.163  0.00  0.00    -0.226 N 
BRANCH   8   9
ATOM      9  C   UNL     1       3.530  -6.277  -4.088  0.00  0.00    +0.182 C 
BRANCH   9  10
ATOM     10  C   UNL     1       3.554  -5.736  -5.495  0.00  0.00    -0.026 A 
ATOM     11  C   UNL     1       2.447  -5.082  -6.003  0.00  0.00    +0.005 A 
ATOM     12  C   UNL     1       2.471  -4.582  -7.291  0.00  0.00    +0.000 A 
ATOM     13  C   UNL     1       3.599  -4.744  -8.075  0.00  0.00    +0.000 A 
ATOM     14  C   UNL     1       4.704  -5.402  -7.568  0.00  0.00    +0.000 A 
ATOM     15  C   UNL     1       4.682  -5.898  -6.278  0.00  0.00    +0.005 A 
ENDBRANCH   9  10
ENDBRANCH   8   9
ENDBRANCH   3   4
BRANCH   3  17
ATOM     16  C   UNL     1      -0.425  -4.829  -1.718  0.00  0.00    +0.002 C 
ATOM     17  C   UNL     1       1.091  -4.944  -1.548  0.00  0.00    -0.011 C 
ENDBRANCH   3  17
ENDBRANCH   1   3
BRANCH   1  18
ATOM     18  C   UNL     1       1.297  -2.364  -1.065  0.00  0.00    -0.042 C 
BRANCH  18  19
ATOM     19  C   UNL     1       2.651  -2.259  -0.413  0.00  0.00    -0.064 A 
ATOM     20  C   UNL     1       3.414  -1.119  -0.585  0.00  0.00    +0.004 A 
ATOM     21  C   UNL     1       4.657  -1.022   0.013  0.00  0.00    +0.038 A 
ATOM     22  C   UNL     1       5.137  -2.067   0.784  0.00  0.00    +0.123 A 
ATOM     23  C   UNL     1       4.372  -3.208   0.955  0.00  0.00    +0.038 A 
ATOM     24  C   UNL     1       3.130  -3.303   0.356  0.00  0.00    +0.004 A 
ATOM     25  F   UNL     1       6.352  -1.973   1.368  0.00  0.00    -0.205 F 
ENDBRANCH  18  19
ENDBRANCH   1  18
BRANCH   1  26
ATOM     26  C   UNL     1       0.263  -2.357  -3.255  0.00  0.00    -0.036 C 
BRANCH  26  27
ATOM     27  C   UNL     1       0.234  -0.868  -3.482  0.00  0.00    +0.001 A 
ATOM     28  C   UNL     1       0.760  -0.347  -4.618  0.00  0.00    +0.017 A 
ATOM     29  C   UNL     1       0.716   1.104  -4.809  0.00  0.00    -0.001 A 
ATOM     30  C   UNL     1       1.241   1.699  -5.960  0.00  0.00    +0.010 A 
ATOM     31  C   UNL     1       1.184   3.056  -6.108  0.00  0.00    +0.004 A 
ATOM     32  C   UNL     1       0.609   3.850  -5.125  0.00  0.00    -0.048 A 
ATOM     33  C   UNL     1       0.084   3.285  -3.982  0.00  0.00    +0.029 A 
ATOM     34  C   UNL     1       0.131   1.906  -3.810  0.00  0.00    +0.049 A 
ATOM     35  N   UNL     1      -0.386   1.314  -2.677  0.00  0.00    -0.322 N 
ATOM     36  H   UNL     1      -0.788   1.868  -1.990  0.00  0.00    +0.169 HD
ATOM     37  C   UNL     1      -0.346  -0.020  -2.514  0.00  0.00    +0.251 A 
ATOM     38  O   UNL     1      -0.817  -0.509  -1.502  0.00  0.00    -0.268 OA
ATOM     39  C   UNL     1       0.557   5.345  -5.309  0.00  0.00    +0.044 C 
ENDBRANCH  26  27
ENDBRANCH   1  26
TORSDOF 9
