REMARK  Name = ZINC34975504
REMARK  13 active torsions:
REMARK  status: ('A' for Active; 'I' for Inactive)
REMARK    1  A    between atoms: C_1  and  C_2
REMARK    2  A    between atoms: C_2  and  C_3
REMARK    3  A    between atoms: C_3  and  C_4
REMARK    4  A    between atoms: C_4  and  C_5
REMARK    5  A    between atoms: C_12  and  C_14
REMARK    6  A    between atoms: C_15  and  C_17
REMARK    7  A    between atoms: C_17  and  C_19
REMARK    8  A    between atoms: C_17  and  N_22
REMARK    9  A    between atoms: C_19  and  C_20
REMARK   10  A    between atoms: C_19  and  C_21
REMARK   11  A    between atoms: N_25  and  C_26
REMARK   12  A    between atoms: C_29  and  C_32
REMARK   13  A    between atoms: C_32  and  C_33
REMARK                            x       y       z     vdW  Elec       q    Type
REMARK                         _______ _______ _______ _____ _____    ______ ____
ROOT
ATOM      1  C   UNL     1       1.864  -8.508  -1.933  0.00  0.00    +0.163 C 
ENDROOT
BRANCH   1  11
ATOM      2  C   UNL     1       0.507  -2.522  -2.132  0.00  0.00    +0.216 C 
ATOM      3  O   UNL     1       0.966  -1.629  -2.813  0.00  0.00    -0.276 OA
ATOM      4  N   UNL     1       0.750  -3.808  -2.454  0.00  0.00    -0.296 N 
ATOM      5  C   UNL     1       0.283  -4.897  -1.585  0.00  0.00    +0.127 C 
ATOM      6  C   UNL     1       1.484  -5.774  -1.211  0.00  0.00    +0.127 C 
ATOM      7  N   UNL     1       2.219  -6.112  -2.438  0.00  0.00    -0.297 N 
ATOM      8  C   UNL     1       2.686  -5.022  -3.306  0.00  0.00    +0.130 C 
ATOM      9  C   UNL     1       1.480  -4.146  -3.684  0.00  0.00    +0.090 C 
ATOM     10  C   UNL     1       1.967  -2.863  -4.361  0.00  0.00    +0.029 C 
ATOM     11  C   UNL     1       2.462  -7.398  -2.760  0.00  0.00    +0.236 C 
ATOM     12  O   UNL     1       3.161  -7.662  -3.715  0.00  0.00    -0.274 OA
BRANCH   2  13
ATOM     13  C   UNL     1      -0.334  -2.193  -0.925  0.00  0.00    +0.096 C 
BRANCH  13  14
ATOM     14  C   UNL     1      -0.453  -0.674  -0.786  0.00  0.00    +0.009 C 
BRANCH  14  16
ATOM     15  C   UNL     1      -1.427   1.179   0.579  0.00  0.00    +0.004 C 
ATOM     16  C   UNL     1      -1.307  -0.340   0.439  0.00  0.00    -0.003 C 
ENDBRANCH  14  16
ENDBRANCH  13  14
ENDBRANCH   2  13
ENDBRANCH   1  11
BRANCH   1  17
ATOM     17  N   UNL     1       1.949  -9.768  -2.675  0.00  0.00    -0.288 N 
ATOM     18  C   UNL     1       1.079 -10.764  -2.412  0.00  0.00    +0.304 C 
ATOM     19  O   UNL     1       0.225 -10.616  -1.560  0.00  0.00    -0.252 OA
ATOM     20  N   UNL     1       1.157 -11.924  -3.094  0.00  0.00    -0.269 N 
ATOM     21  H   UNL     1       2.631  -9.887  -3.354  0.00  0.00    +0.151 HD
ATOM     22  H   UNL     1       1.883 -12.071  -3.720  0.00  0.00    +0.156 HD
BRANCH  20  23
ATOM     23  C   UNL     1       0.190 -12.917  -2.898  0.00  0.00    +0.035 A 
ATOM     24  C   UNL     1       0.546 -14.258  -2.967  0.00  0.00    +0.023 A 
ATOM     25  C   UNL     1      -0.410 -15.235  -2.773  0.00  0.00    +0.005 A 
ATOM     26  C   UNL     1      -1.721 -14.880  -2.511  0.00  0.00    -0.048 A 
ATOM     27  C   UNL     1      -2.078 -13.546  -2.443  0.00  0.00    +0.005 A 
ATOM     28  C   UNL     1      -1.125 -12.563  -2.630  0.00  0.00    +0.023 A 
BRANCH  26  29
ATOM     29  C   UNL     1      -2.762 -15.949  -2.300  0.00  0.00    +0.032 C 
ATOM     30  C   UNL     1      -2.831 -16.307  -0.815  0.00  0.00    +0.009 C 
ENDBRANCH  26  29
ENDBRANCH  20  23
ENDBRANCH   1  17
BRANCH   1  31
ATOM     31  C   UNL     1       2.635  -8.636  -0.618  0.00  0.00    +0.012 C 
ATOM     32  C   UNL     1       2.024  -9.758   0.224  0.00  0.00    +0.009 C 
ATOM     33  C   UNL     1       4.100  -8.962  -0.916  0.00  0.00    +0.009 C 
ENDBRANCH   1  31
TORSDOF 8
