REMARK  Name = ZINC09080913
REMARK  9 active torsions:
REMARK  status: ('A' for Active; 'I' for Inactive)
REMARK    1  A    between atoms: C_1  and  N_2
REMARK    2  A    between atoms: N_2  and  C_3
REMARK    3  A    between atoms: N_2  and  C_4
REMARK    4  A    between atoms: C_7  and  C_10
REMARK    5  A    between atoms: C_10  and  C_12
REMARK    6  A    between atoms: C_10  and  S_24
REMARK    7  A    between atoms: C_12  and  N_13
REMARK    8  A    between atoms: N_16  and  C_17
REMARK    9  A    between atoms: S_24  and  C_27
REMARK                            x       y       z     vdW  Elec       q    Type
REMARK                         _______ _______ _______ _____ _____    ______ ____
ROOT
ATOM      1  C   UNL     1      -2.519   0.986   0.012  0.00  0.00    +0.183 C 
ENDROOT
BRANCH   1   5
ATOM      2  C   UNL     1       1.151   3.176   0.003  0.00  0.00    +0.029 A 
ATOM      3  C   UNL     1       1.169   1.787  -0.014  0.00  0.00    +0.023 A 
ATOM      4  C   UNL     1      -0.019   1.083  -0.007  0.00  0.00    +0.007 A 
ATOM      5  C   UNL     1      -1.225   1.758   0.011  0.00  0.00    -0.021 A 
ATOM      6  C   UNL     1      -1.247   3.141   0.034  0.00  0.00    +0.007 A 
ATOM      7  C   UNL     1      -0.062   3.852   0.027  0.00  0.00    +0.023 A 
BRANCH   2   9
ATOM      8  C   UNL     1       3.629   3.178  -0.029  0.00  0.00    +0.129 C 
ATOM      9  N   UNL     1       2.350   3.892  -0.004  0.00  0.00    -0.336 N 
ATOM     10  C   UNL     1       2.330   5.356   0.014  0.00  0.00    +0.129 C 
ENDBRANCH   2   9
ENDBRANCH   1   5
BRANCH   1  11
ATOM     11  S   UNL     1      -3.488   1.429  -1.457  0.00  0.00    +0.005 S 
ATOM     12  O   UNL     1      -2.696   1.285  -2.627  0.00  0.00    -0.169 OA
ATOM     13  O   UNL     1      -4.783   0.849  -1.382  0.00  0.00    -0.169 OA
BRANCH  11  14
ATOM     14  C   UNL     1      -3.764   3.164  -1.311  0.00  0.00    +0.089 A 
ATOM     15  C   UNL     1      -4.887   3.632  -0.655  0.00  0.00    +0.028 A 
ATOM     16  C   UNL     1      -5.101   4.992  -0.535  0.00  0.00    +0.022 A 
ATOM     17  C   UNL     1      -4.196   5.885  -1.082  0.00  0.00    +0.041 A 
ATOM     18  C   UNL     1      -3.076   5.416  -1.744  0.00  0.00    +0.022 A 
ATOM     19  C   UNL     1      -2.860   4.055  -1.858  0.00  0.00    +0.028 A 
ATOM     20 CL   UNL     1      -4.468   7.594  -0.938  0.00  0.00    -0.084 Cl
ENDBRANCH  11  14
ENDBRANCH   1  11
BRANCH   1  21
ATOM     21  C   UNL     1      -3.317   1.329   1.272  0.00  0.00    +0.137 C 
BRANCH  21  22
ATOM     22  N   UNL     1      -4.575   0.578   1.272  0.00  0.00    -0.297 N 
ATOM     23  C   UNL     1      -5.445   0.722   2.292  0.00  0.00    +0.304 C 
ATOM     24  O   UNL     1      -5.185   1.474   3.211  0.00  0.00    -0.253 OA
ATOM     25  N   UNL     1      -6.602   0.031   2.292  0.00  0.00    -0.269 N 
ATOM     26  H   UNL     1      -4.782  -0.022   0.539  0.00  0.00    +0.150 HD
ATOM     27  H   UNL     1      -6.840  -0.517   1.528  0.00  0.00    +0.156 HD
BRANCH  25  28
ATOM     28  C   UNL     1      -7.461   0.105   3.395  0.00  0.00    +0.036 A 
ATOM     29  C   UNL     1      -8.197  -1.008   3.780  0.00  0.00    +0.023 A 
ATOM     30  C   UNL     1      -9.039  -0.934   4.871  0.00  0.00    +0.003 A 
ATOM     31  C   UNL     1      -9.159   0.250   5.575  0.00  0.00    +0.020 A 
ATOM     32  C   UNL     1      -8.431   1.363   5.192  0.00  0.00    +0.043 A 
ATOM     33  C   UNL     1      -7.583   1.293   4.103  0.00  0.00    +0.043 A 
ATOM     34 CL   UNL     1      -8.585   2.847   6.078  0.00  0.00    -0.083 Cl
ENDBRANCH  25  28
ENDBRANCH  21  22
ENDBRANCH   1  21
TORSDOF 7
