REMARK  Name = ZINC16734218
REMARK  6 active torsions:
REMARK  status: ('A' for Active; 'I' for Inactive)
REMARK    1  A    between atoms: C_3  and  C_8
REMARK    2  A    between atoms: C_11  and  C_13
REMARK    3  A    between atoms: C_15  and  C_27
REMARK    4  A    between atoms: C_17  and  C_22
REMARK    5  A    between atoms: C_17  and  O_26
REMARK    6  A    between atoms: C_27  and  C_29
REMARK                            x       y       z     vdW  Elec       q    Type
REMARK                         _______ _______ _______ _____ _____    ______ ____
ROOT
ATOM      1  C   UNL     1      -4.486  -2.062   0.009  0.00  0.00    +0.156 C 
ATOM      2  C   UNL     1      -4.427  -2.642   1.426  0.00  0.00    +0.148 C 
ATOM      3  C   UNL     1      -4.886  -4.103   1.374  0.00  0.00    +0.243 C 
ATOM      4  N   UNL     1      -4.066  -4.830   0.405  0.00  0.00    -0.264 N 
ATOM      5  C   UNL     1      -3.524  -4.211  -0.655  0.00  0.00    +0.302 C 
ATOM      6  O   UNL     1      -2.859  -4.864  -1.435  0.00  0.00    -0.253 OA
ATOM      7  N   UNL     1      -3.687  -2.900  -0.887  0.00  0.00    -0.289 N 
ATOM      8  H   UNL     1      -3.910  -5.779   0.532  0.00  0.00    +0.153 HD
ATOM      9  H   UNL     1      -3.267  -2.499  -1.664  0.00  0.00    +0.151 HD
ENDROOT
BRANCH   1  13
ATOM     10  C   UNL     1      -2.502   1.007   0.019  0.00  0.00    +0.135 A 
ATOM     11  C   UNL     1      -3.749   1.549   0.028  0.00  0.00    +0.050 A 
ATOM     12  C   UNL     1      -4.659   0.473   0.025  0.00  0.00    +0.047 A 
ATOM     13  C   UNL     1      -3.931  -0.661   0.015  0.00  0.00    +0.127 A 
ATOM     14  O   UNL     1      -2.628  -0.334   0.006  0.00  0.00    -0.458 OA
BRANCH  10  17
ATOM     15  C   UNL     1       1.172   1.783   0.000  0.00  0.00    +0.002 A 
ATOM     16  C   UNL     1      -0.013   1.076   0.008  0.00  0.00    +0.011 A 
ATOM     17  C   UNL     1      -1.230   1.758   0.017  0.00  0.00    +0.019 A 
ATOM     18  C   UNL     1      -1.241   3.154   0.030  0.00  0.00    +0.031 A 
ATOM     19  C   UNL     1      -0.048   3.850   0.023  0.00  0.00    +0.042 A 
ATOM     20  C   UNL     1       1.156   3.166   0.008  0.00  0.00    +0.020 A 
ATOM     21 CL   UNL     1      -0.059   5.586   0.031  0.00  0.00    -0.084 Cl
ENDBRANCH  10  17
ENDBRANCH   1  13
BRANCH   3  22
ATOM     22  C   UNL     1      -4.728  -4.737   2.757  0.00  0.00    +0.436 C 
ATOM     23  F   UNL     1      -3.385  -4.678   3.146  0.00  0.00    -0.166 F 
ATOM     24  F   UNL     1      -5.512  -4.041   3.683  0.00  0.00    -0.166 F 
ATOM     25  F   UNL     1      -5.140  -6.073   2.708  0.00  0.00    -0.166 F 
ENDBRANCH   3  22
BRANCH   3  26
ATOM     26  O   UNL     1      -6.258  -4.160   0.977  0.00  0.00    -0.364 OA
ATOM     27  H   UNL     1      -6.614  -5.058   0.920  0.00  0.00    +0.212 HD
ENDBRANCH   3  26
BRANCH   2  28
ATOM     28  C   UNL     1      -3.013  -2.574   1.943  0.00  0.00    +0.180 C 
ATOM     29  O   UNL     1      -2.252  -3.501   1.752  0.00  0.00    -0.291 OA
BRANCH  28  30
ATOM     30  C   UNL     1      -2.573  -1.433   2.648  0.00  0.00    +0.055 A 
ATOM     31  C   UNL     1      -1.326  -1.174   3.207  0.00  0.00    +0.019 A 
ATOM     32  C   UNL     1      -1.165   0.030   3.841  0.00  0.00    +0.008 A 
ATOM     33  C   UNL     1      -2.214   0.894   3.903  0.00  0.00    +0.046 A 
ATOM     34  S   UNL     1      -3.474   0.051   3.062  0.00  0.00    -0.094 S 
ENDBRANCH  28  30
ENDBRANCH   2  28
TORSDOF 6
