REMARK  Name = ZINC33654951
REMARK  9 active torsions:
REMARK  status: ('A' for Active; 'I' for Inactive)
REMARK    1  A    between atoms: C_1  and  C_2
REMARK    2  A    between atoms: C_2  and  C_3
REMARK    3  A    between atoms: C_3  and  N_4
REMARK    4  A    between atoms: C_5  and  C_7
REMARK    5  A    between atoms: C_9  and  N_16
REMARK    6  A    between atoms: C_12  and  N_13
REMARK    7  A    between atoms: N_13  and  C_14
REMARK    8  A    between atoms: N_13  and  C_15
REMARK    9  A    between atoms: N_19  and  C_20
REMARK                            x       y       z     vdW  Elec       q    Type
REMARK                         _______ _______ _______ _____ _____    ______ ____
ROOT
ATOM      1  C   UNL     1      -4.783   0.993   0.517  0.00  0.00    +0.059 A 
ATOM      2  C   UNL     1      -3.605   1.728   0.365  0.00  0.00    +0.038 A 
ATOM      3  C   UNL     1      -2.397   1.071   0.220  0.00  0.00    +0.036 A 
ATOM      4  C   UNL     1      -2.352  -0.319   0.219  0.00  0.00    +0.025 A 
ATOM      5  C   UNL     1      -3.508  -1.054   0.374  0.00  0.00    +0.025 A 
ATOM      6  C   UNL     1      -4.730  -0.409   0.521  0.00  0.00    +0.042 A 
ENDROOT
BRANCH   3   7
ATOM      7  N   UNL     1      -1.214   1.809   0.068  0.00  0.00    -0.269 N 
ATOM      8  C   UNL     1      -0.063   1.356   0.604  0.00  0.00    +0.308 C 
ATOM      9  O   UNL     1      -0.032   0.268   1.145  0.00  0.00    -0.252 OA
ATOM     10  N   UNL     1       1.054   2.107   0.535  0.00  0.00    -0.268 N 
ATOM     11  H   UNL     1      -1.225   2.757  -0.490  0.00  0.00    +0.156 HD
ATOM     12  H   UNL     1       1.050   3.048  -0.034  0.00  0.00    +0.156 HD
BRANCH  10  13
ATOM     13  C   UNL     1       2.220   1.689   1.189  0.00  0.00    +0.053 A 
ATOM     14  C   UNL     1       2.137   0.841   2.285  0.00  0.00    +0.026 A 
ATOM     15  C   UNL     1       3.288   0.430   2.928  0.00  0.00    +0.022 A 
ATOM     16  C   UNL     1       4.524   0.863   2.481  0.00  0.00    +0.042 A 
ATOM     17  C   UNL     1       4.611   1.708   1.388  0.00  0.00    +0.041 A 
ATOM     18  C   UNL     1       3.462   2.117   0.738  0.00  0.00    +0.064 A 
ATOM     19 CL   UNL     1       3.571   3.171  -0.637  0.00  0.00    -0.082 Cl
ATOM     20 CL   UNL     1       5.969   0.345   3.292  0.00  0.00    -0.083 Cl
ENDBRANCH  10  13
ENDBRANCH   3   7
BRANCH   1  22
ATOM     21  N   UNL     1      -6.122   3.033   0.669  0.00  0.00    -0.311 N 
ATOM     22  C   UNL     1      -6.075   1.686   0.673  0.00  0.00    +0.246 C 
ATOM     23  O   UNL     1      -7.098   1.042   0.804  0.00  0.00    -0.270 OA
ATOM     24  H   UNL     1      -5.196   3.615   0.550  0.00  0.00    +0.149 HD
BRANCH  21  25
ATOM     25  C   UNL     1      -7.406   3.721   0.824  0.00  0.00    +0.104 C 
BRANCH  25  27
ATOM     26  C   UNL     1      -8.521   5.953   0.947  0.00  0.00    +0.005 C 
ATOM     27  C   UNL     1      -7.181   5.234   0.785  0.00  0.00    +0.015 C 
ENDBRANCH  25  27
ENDBRANCH  21  25
ENDBRANCH   1  22
BRANCH   6  28
ATOM     28  N   UNL     1      -5.897  -1.151   0.671  0.00  0.00    -0.335 N 
ATOM     29  C   UNL     1      -6.122  -2.021  -0.491  0.00  0.00    +0.129 C 
ATOM     30  C   UNL     1      -5.867  -1.933   1.915  0.00  0.00    +0.129 C 
ENDBRANCH   6  28
TORSDOF 6
