REMARK  Name = ZINC13632481
REMARK  12 active torsions:
REMARK  status: ('A' for Active; 'I' for Inactive)
REMARK    1  A    between atoms: C_1  and  C_2
REMARK    2  A    between atoms: C_2  and  C_3
REMARK    3  A    between atoms: C_2  and  O_4
REMARK    4  A    between atoms: O_4  and  C_5
REMARK    5  A    between atoms: C_8  and  C_12
REMARK    6  A    between atoms: N_14  and  C_15
REMARK    7  A    between atoms: C_18  and  N_21
REMARK    8  A    between atoms: C_22  and  C_24
REMARK    9  A    between atoms: C_27  and  C_30
REMARK   10  A    between atoms: C_30  and  C_31
REMARK   11  A    between atoms: C_30  and  C_32
REMARK   12  A    between atoms: C_30  and  C_33
REMARK                            x       y       z     vdW  Elec       q    Type
REMARK                         _______ _______ _______ _____ _____    ______ ____
ROOT
ATOM      1  C   UNL     1      -3.720  -6.885   1.756  0.00  0.00    +0.034 A 
ATOM      2  C   UNL     1      -2.735  -7.853   1.910  0.00  0.00    +0.025 A 
ATOM      3  C   UNL     1      -3.081  -9.137   2.280  0.00  0.00    +0.025 A 
ATOM      4  C   UNL     1      -4.415  -9.464   2.489  0.00  0.00    +0.034 A 
ATOM      5  C   UNL     1      -5.400  -8.498   2.330  0.00  0.00    +0.025 A 
ATOM      6  C   UNL     1      -5.053  -7.213   1.965  0.00  0.00    +0.025 A 
ENDROOT
BRANCH   1   9
ATOM      7  C   UNL     1      -4.069  -4.534   1.864  0.00  0.00    +0.248 C 
ATOM      8  O   UNL     1      -4.945  -4.713   2.687  0.00  0.00    -0.270 OA
ATOM      9  N   UNL     1      -3.369  -5.582   1.386  0.00  0.00    -0.282 N 
ATOM     10  H   UNL     1      -2.622  -5.433   0.785  0.00  0.00    +0.155 HD
BRANCH   7  14
ATOM     11  C   UNL     1      -3.212  -0.606   0.494  0.00  0.00    +0.135 A 
ATOM     12  C   UNL     1      -4.215  -0.809   1.436  0.00  0.00    +0.047 A 
ATOM     13  C   UNL     1      -4.495  -2.081   1.883  0.00  0.00    +0.017 A 
ATOM     14  C   UNL     1      -3.771  -3.169   1.388  0.00  0.00    +0.038 A 
ATOM     15  C   UNL     1      -2.764  -2.961   0.442  0.00  0.00    +0.032 A 
ATOM     16  C   UNL     1      -2.493  -1.686  -0.004  0.00  0.00    +0.060 A 
ATOM     17 BR   UNL     1      -1.136  -1.404  -1.291  0.00  0.00    -0.046 Br
BRANCH  11  18
ATOM     18  O   UNL     1      -2.939   0.650   0.057  0.00  0.00    -0.488 OA
BRANCH  18  20
ATOM     19  C   UNL     1      -3.275   2.253   1.834  0.00  0.00    +0.051 C 
ATOM     20  C   UNL     1      -3.801   1.696   0.509  0.00  0.00    +0.167 C 
ATOM     21  C   UNL     1      -3.837   2.814  -0.535  0.00  0.00    +0.051 C 
ENDBRANCH  18  20
ENDBRANCH  11  18
ENDBRANCH   7  14
ENDBRANCH   1   9
BRANCH   4  22
ATOM     22  N   UNL     1      -4.766 -10.768   2.858  0.00  0.00    -0.282 N 
ATOM     23  C   UNL     1      -3.933 -11.498   3.626  0.00  0.00    +0.248 C 
ATOM     24  O   UNL     1      -2.924 -10.993   4.079  0.00  0.00    -0.270 OA
ATOM     25  H   UNL     1      -5.609 -11.146   2.562  0.00  0.00    +0.155 HD
BRANCH  23  26
ATOM     26  C   UNL     1      -4.247 -12.913   3.919  0.00  0.00    +0.037 A 
ATOM     27  C   UNL     1      -5.408 -13.494   3.406  0.00  0.00    +0.013 A 
ATOM     28  C   UNL     1      -5.691 -14.816   3.677  0.00  0.00    +0.005 A 
ATOM     29  C   UNL     1      -4.835 -15.563   4.466  0.00  0.00    -0.042 A 
ATOM     30  C   UNL     1      -3.685 -14.991   4.983  0.00  0.00    +0.005 A 
ATOM     31  C   UNL     1      -3.386 -13.672   4.714  0.00  0.00    +0.013 A 
BRANCH  29  32
ATOM     32  C   UNL     1      -5.154 -17.005   4.764  0.00  0.00    -0.013 C 
ATOM     33  C   UNL     1      -5.292 -17.195   6.276  0.00  0.00    +0.015 C 
ATOM     34  C   UNL     1      -6.468 -17.388   4.080  0.00  0.00    +0.015 C 
ATOM     35  C   UNL     1      -4.027 -17.896   4.239  0.00  0.00    +0.015 C 
ENDBRANCH  29  32
ENDBRANCH  23  26
ENDBRANCH   4  22
TORSDOF 7
