REMARK  Name = ZINC09690681
REMARK  12 active torsions:
REMARK  status: ('A' for Active; 'I' for Inactive)
REMARK    1  A    between atoms: C_2  and  C_3
REMARK    2  A    between atoms: C_3  and  N_4
REMARK    3  A    between atoms: N_4  and  S_5
REMARK    4  A    between atoms: S_5  and  C_8
REMARK    5  A    between atoms: C_11  and  C_14
REMARK    6  A    between atoms: C_14  and  O_16
REMARK    7  A    between atoms: O_16  and  C_17
REMARK    8  A    between atoms: C_17  and  C_18
REMARK    9  A    between atoms: N_20  and  C_21
REMARK   10  A    between atoms: C_21  and  C_22
REMARK   11  A    between atoms: C_28  and  C_29
REMARK   12  A    between atoms: C_28  and  N_63
REMARK                            x       y       z     vdW  Elec       q    Type
REMARK                         _______ _______ _______ _____ _____    ______ ____
ROOT
ATOM      1  C   UNL     1       7.261   0.175  -0.069  0.00  0.00    +0.251 C 
ATOM      2  O   UNL     1       7.082   1.375  -0.060  0.00  0.00    -0.272 OA
ATOM      3  N   UNL     1       8.514  -0.320  -0.084  0.00  0.00    -0.310 N 
ATOM      4  H   UNL     1       8.657  -1.279  -0.092  0.00  0.00    +0.149 HD
ENDROOT
BRANCH   1   5
ATOM      5  C   UNL     1       6.081  -0.762  -0.063  0.00  0.00    +0.328 C 
BRANCH   5   6
ATOM      6  O   UNL     1       4.850   0.009  -0.046  0.00  0.00    -0.452 OA
BRANCH   6   7
ATOM      7  C   UNL     1       3.695  -0.684  -0.038  0.00  0.00    +0.340 C 
ATOM      8  O   UNL     1       3.714  -1.898  -0.046  0.00  0.00    -0.245 OA
BRANCH   7  12
ATOM      9  C   UNL     1      -0.017   1.379   0.010  0.00  0.00    +0.105 A 
ATOM     10  C   UNL     1       1.168   2.094   0.002  0.00  0.00    +0.029 A 
ATOM     11  C   UNL     1       2.377   1.430  -0.013  0.00  0.00    +0.017 A 
ATOM     12  C   UNL     1       2.404   0.034  -0.021  0.00  0.00    +0.059 A 
ATOM     13  C   UNL     1       1.204  -0.681  -0.014  0.00  0.00    +0.017 A 
ATOM     14  C   UNL     1       0.002  -0.004   0.002  0.00  0.00    +0.029 A 
BRANCH   9  15
ATOM     15  S   UNL     1      -1.557   2.236   0.022  0.00  0.00    +0.059 S 
ATOM     16  O   UNL     1      -1.309   3.524  -0.523  0.00  0.00    -0.153 OA
ATOM     17  O   UNL     1      -2.519   1.347  -0.529  0.00  0.00    -0.153 OA
BRANCH  15  18
ATOM     18  N   UNL     1      -1.977   2.465   1.607  0.00  0.00    -0.186 NA
ATOM     19  H   UNL     1      -2.767   2.032   1.967  0.00  0.00    +0.148 HD
BRANCH  18  20
ATOM     20  C   UNL     1      -1.156   3.321   2.466  0.00  0.00    +0.132 C 
BRANCH  20  22
ATOM     21  C   UNL     1      -1.406   3.409   4.893  0.00  0.00    +0.005 C 
ATOM     22  C   UNL     1      -1.924   3.662   3.717  0.00  0.00    -0.018 C 
ENDBRANCH  20  22
ENDBRANCH  18  20
ENDBRANCH  15  18
ENDBRANCH   9  15
ENDBRANCH   7  12
ENDBRANCH   6   7
ENDBRANCH   5   6
ENDBRANCH   1   5
BRANCH   3  23
ATOM     23  C   UNL     1       9.661   0.591  -0.090  0.00  0.00    +0.134 C 
BRANCH  23  24
ATOM     24  C   UNL     1      10.958  -0.221  -0.108  0.00  0.00    +0.119 C 
ATOM     25  C   UNL     1      12.157   0.731  -0.112  0.00  0.00    -0.045 C 
ATOM     26  C   UNL     1      13.425  -0.895   1.155  0.00  0.00    -0.050 C 
ATOM     27  C   UNL     1      12.213  -1.830   1.146  0.00  0.00    +0.142 C 
ATOM     28  O   UNL     1      11.017  -1.051   1.055  0.00  0.00    -0.379 OA
ATOM     29  N   UNL     1      13.399  -0.071  -0.072  0.00  0.00    +0.386 N 
ATOM     30  H   UNL     1      13.423  -0.691  -0.890  0.00  0.00    -0.081 HD
BRANCH  29  31
ATOM     31  C   UNL     1      14.578   0.820  -0.108  0.00  0.00    -0.043 C 
BRANCH  31  32
ATOM     32  C   UNL     1      14.522   1.814   1.023  0.00  0.00    -0.064 A 
ATOM     33  C   UNL     1      13.901   3.035   0.840  0.00  0.00    +0.002 A 
ATOM     34  C   UNL     1      13.846   3.946   1.879  0.00  0.00    +0.000 A 
ATOM     35  C   UNL     1      14.421   3.638   3.098  0.00  0.00    +0.000 A 
ATOM     36  C   UNL     1      15.046   2.419   3.280  0.00  0.00    +0.000 A 
ATOM     37  C   UNL     1      15.097   1.507   2.242  0.00  0.00    +0.002 A 
ENDBRANCH  31  32
ENDBRANCH  29  31
ENDBRANCH  23  24
ENDBRANCH   3  23
TORSDOF 12
