REMARK  Name = ZINC13436409
REMARK  8 active torsions:
REMARK  status: ('A' for Active; 'I' for Inactive)
REMARK    1  A    between atoms: C_1  and  C_2
REMARK    2  A    between atoms: C_2  and  N_3
REMARK    3  A    between atoms: N_3  and  C_4
REMARK    4  A    between atoms: N_3  and  S_10
REMARK    5  A    between atoms: S_10  and  C_13
REMARK    6  A    between atoms: C_15  and  C_20
REMARK    7  A    between atoms: C_18  and  C_19
REMARK    8  A    between atoms: C_24  and  C_33
REMARK                            x       y       z     vdW  Elec       q    Type
REMARK                         _______ _______ _______ _____ _____    ______ ____
ROOT
ATOM      1  C   UNL     1       1.236   1.574   0.018  0.00  0.00    +0.112 A 
ATOM      2  C   UNL     1       0.017   0.928   0.020  0.00  0.00    +0.042 A 
ATOM      3  C   UNL     1      -0.968   1.299  -0.897  0.00  0.00    +0.039 A 
ATOM      4  C   UNL     1      -0.716   2.331  -1.803  0.00  0.00    +0.013 A 
ATOM      5  C   UNL     1       0.507   2.969  -1.794  0.00  0.00    +0.006 A 
ATOM      6  C   UNL     1       1.481   2.592  -0.886  0.00  0.00    -0.024 A 
ATOM      7  C   UNL     1       2.815   3.293  -0.883  0.00  0.00    +0.046 C 
ENDROOT
BRANCH   3   8
ATOM      8  C   UNL     1      -2.274   0.607  -0.905  0.00  0.00    +0.251 C 
ATOM      9  O   UNL     1      -2.363  -0.528  -0.477  0.00  0.00    -0.270 OA
ATOM     10  N   UNL     1      -3.366   1.233  -1.385  0.00  0.00    -0.260 N 
ATOM     11  C   UNL     1      -3.320   2.653  -1.775  0.00  0.00    +0.170 C 
ATOM     12  C   UNL     1      -4.605   3.318  -1.271  0.00  0.00    +0.303 C 
ATOM     13  O   UNL     1      -5.730   2.638  -1.832  0.00  0.00    -0.474 OA
ATOM     14  C   UNL     1      -5.758   1.282  -1.744  0.00  0.00    +0.143 A 
ATOM     15  C   UNL     1      -4.589   0.557  -1.526  0.00  0.00    +0.079 A 
ATOM     16  C   UNL     1      -4.631  -0.826  -1.448  0.00  0.00    +0.027 A 
ATOM     17  C   UNL     1      -5.838  -1.487  -1.584  0.00  0.00    +0.002 A 
ATOM     18  C   UNL     1      -7.000  -0.769  -1.798  0.00  0.00    +0.004 A 
ATOM     19  C   UNL     1      -6.963   0.610  -1.878  0.00  0.00    +0.047 A 
BRANCH  12  20
ATOM     20  C   UNL     1      -4.626   4.764  -1.695  0.00  0.00    +0.397 C 
ATOM     21  O   UNL     1      -5.461   5.152  -2.477  0.00  0.00    -0.242 OA
ATOM     22  O   UNL     1      -3.717   5.621  -1.203  0.00  0.00    -0.242 OA
ENDBRANCH  12  20
ENDBRANCH   3   8
BRANCH   1  23
ATOM     23  S   UNL     1       2.483   1.103   1.171  0.00  0.00    +0.075 S 
ATOM     24  O   UNL     1       3.519   0.487   0.418  0.00  0.00    -0.150 OA
ATOM     25  O   UNL     1       2.713   2.231   2.004  0.00  0.00    -0.150 OA
BRANCH  23  26
ATOM     26  N   UNL     1       1.836  -0.076   2.137  0.00  0.00    -0.203 N 
BRANCH  26  27
ATOM     27  C   UNL     1       1.833  -1.406   1.710  0.00  0.00    +0.051 A 
ATOM     28  C   UNL     1       1.841  -1.701   0.353  0.00  0.00    +0.025 A 
ATOM     29  C   UNL     1       1.843  -3.017  -0.066  0.00  0.00    +0.002 A 
ATOM     30  C   UNL     1       1.827  -4.040   0.865  0.00  0.00    +0.000 A 
ATOM     31  C   UNL     1       1.814  -3.750   2.216  0.00  0.00    +0.002 A 
ATOM     32  C   UNL     1       1.817  -2.436   2.642  0.00  0.00    +0.025 A 
ENDBRANCH  26  27
BRANCH  26  34
ATOM     33  C   UNL     1      -0.253   0.410   3.313  0.00  0.00    +0.026 C 
ATOM     34  C   UNL     1       1.266   0.277   3.440  0.00  0.00    +0.128 C 
ENDBRANCH  26  34
ENDBRANCH  23  26
ENDBRANCH   1  23
TORSDOF 6
