REMARK  Name = ZINC30977988
REMARK  12 active torsions:
REMARK  status: ('A' for Active; 'I' for Inactive)
REMARK    1  A    between atoms: C_1  and  C_2
REMARK    2  A    between atoms: N_7  and  C_9
REMARK    3  A    between atoms: C_12  and  C_15
REMARK    4  A    between atoms: C_15  and  N_16
REMARK    5  A    between atoms: C_17  and  C_19
REMARK    6  A    between atoms: N_22  and  C_25
REMARK    7  A    between atoms: C_25  and  C_26
REMARK    8  A    between atoms: C_28  and  C_31
REMARK    9  A    between atoms: C_34  and  C_37
REMARK   10  A    between atoms: C_37  and  C_38
REMARK   11  A    between atoms: C_37  and  C_39
REMARK   12  A    between atoms: C_37  and  C_40
REMARK                            x       y       z     vdW  Elec       q    Type
REMARK                         _______ _______ _______ _____ _____    ______ ____
ROOT
ATOM      1  C   UNL     1       0.632  -0.618  -9.332  0.00  0.00    +0.071 C 
ATOM      2  C   UNL     1      -0.261  -1.798  -8.940  0.00  0.00    -0.006 C 
ATOM      3  C   UNL     1      -1.212  -2.118 -10.096  0.00  0.00    -0.077 C 
ATOM      4  N   UNL     1      -0.433  -2.449 -11.296  0.00  0.00    +0.386 N 
ATOM      5  C   UNL     1       0.398  -1.314 -11.719  0.00  0.00    -0.077 C 
ATOM      6  C   UNL     1       1.397  -0.971 -10.612  0.00  0.00    -0.006 C 
ATOM      7  H   UNL     1       0.240  -3.280 -11.039  0.00  0.00    -0.081 HD
ENDROOT
BRANCH   1   9
ATOM      8  N   UNL     1       1.162  -0.004  -6.996  0.00  0.00    -0.311 N 
ATOM      9  C   UNL     1       1.611  -0.337  -8.222  0.00  0.00    +0.216 C 
ATOM     10  O   UNL     1       2.804  -0.411  -8.432  0.00  0.00    -0.276 OA
ATOM     11  H   UNL     1       0.081   0.063  -6.806  0.00  0.00    +0.149 HD
BRANCH   8  12
ATOM     12  C   UNL     1       2.114   0.269  -5.916  0.00  0.00    +0.139 C 
BRANCH  12  16
ATOM     13  C   UNL     1      -0.023   1.251  -2.348  0.00  0.00    +0.030 A 
ATOM     14  C   UNL     1       0.337   2.252  -3.241  0.00  0.00    +0.023 A 
ATOM     15  C   UNL     1       1.033   1.932  -4.390  0.00  0.00    +0.007 A 
ATOM     16  C   UNL     1       1.361   0.615  -4.658  0.00  0.00    -0.030 A 
ATOM     17  C   UNL     1       0.999  -0.384  -3.773  0.00  0.00    +0.007 A 
ATOM     18  C   UNL     1       0.308  -0.070  -2.620  0.00  0.00    +0.023 A 
BRANCH  13  24
ATOM     19  C   UNL     1      -4.296   0.984  -0.049  0.00  0.00    +0.009 C 
ATOM     20  C   UNL     1      -2.873   1.544  -0.009  0.00  0.00    +0.003 C 
ATOM     21  C   UNL     1      -2.170   1.064   1.264  0.00  0.00    +0.006 C 
ATOM     22  C   UNL     1      -0.729   1.579   1.267  0.00  0.00    +0.019 C 
ATOM     23  C   UNL     1      -0.013   1.086   0.008  0.00  0.00    +0.105 C 
ATOM     24  N   UNL     1      -0.723   1.572  -1.182  0.00  0.00    -0.330 N 
ATOM     25  C   UNL     1      -2.095   1.052  -1.231  0.00  0.00    +0.108 C 
ENDBRANCH  13  24
ENDBRANCH  12  16
ENDBRANCH   8  12
ENDBRANCH   1   9
BRANCH   4  26
ATOM     26  C   UNL     1      -1.310  -2.895 -12.386  0.00  0.00    +0.022 C 
BRANCH  26  27
ATOM     27  C   UNL     1      -1.962  -4.199 -12.005  0.00  0.00    +0.211 A 
ATOM     28  N   UNL     1      -3.103  -4.344 -11.378  0.00  0.00    -0.193 NA
ATOM     29  C   UNL     1      -3.283  -5.678 -11.256  0.00  0.00    +0.202 A 
ATOM     30  N   UNL     1      -2.251  -6.260 -11.810  0.00  0.00    -0.056 NA
ATOM     31  O   UNL     1      -1.488  -5.425 -12.248  0.00  0.00    -0.340 OA
BRANCH  29  32
ATOM     32  C   UNL     1      -4.435  -6.357 -10.612  0.00  0.00    +0.022 A 
ATOM     33  C   UNL     1      -5.467  -5.604 -10.054  0.00  0.00    +0.012 A 
ATOM     34  C   UNL     1      -6.539  -6.240  -9.461  0.00  0.00    +0.005 A 
ATOM     35  C   UNL     1      -6.585  -7.622  -9.411  0.00  0.00    -0.042 A 
ATOM     36  C   UNL     1      -5.561  -8.374  -9.959  0.00  0.00    +0.005 A 
ATOM     37  C   UNL     1      -4.487  -7.748 -10.559  0.00  0.00    +0.012 A 
BRANCH  35  38
ATOM     38  C   UNL     1      -7.755  -8.311  -8.757  0.00  0.00    -0.013 C 
ATOM     39  C   UNL     1      -7.256  -9.165  -7.590  0.00  0.00    +0.015 C 
ATOM     40  C   UNL     1      -8.739  -7.261  -8.236  0.00  0.00    +0.015 C 
ATOM     41  C   UNL     1      -8.458  -9.205  -9.780  0.00  0.00    +0.015 C 
ENDBRANCH  35  38
ENDBRANCH  29  32
ENDBRANCH  26  27
ENDBRANCH   4  26
TORSDOF 8
