REMARK  Name = ZINC22839207
REMARK  5 active torsions:
REMARK  status: ('A' for Active; 'I' for Inactive)
REMARK    1  A    between atoms: C_4  and  C_7
REMARK    2  A    between atoms: C_7  and  C_12
REMARK    3  A    between atoms: C_12  and  N_13
REMARK    4  A    between atoms: C_14  and  C_16
REMARK    5  A    between atoms: C_16  and  N_17
REMARK                            x       y       z     vdW  Elec       q    Type
REMARK                         _______ _______ _______ _____ _____    ______ ____
ROOT
ATOM      1  C   UNL     1       6.488   0.474  -2.308  0.00  0.00    +0.213 C 
ENDROOT
BRANCH   1   2
ATOM      2  N   UNL     1       5.570   0.125  -1.221  0.00  0.00    -0.215 N 
ATOM      3  C   UNL     1       4.434  -0.583  -1.386  0.00  0.00    +0.251 C 
ATOM      4  O   UNL     1       3.994  -1.034  -2.422  0.00  0.00    -0.272 OA
ATOM      5  C   UNL     1       3.823  -0.697  -0.007  0.00  0.00    +0.138 C 
ATOM      6  C   UNL     1       3.731  -2.159   0.411  0.00  0.00    +0.040 C 
ATOM      7  C   UNL     1       2.614  -2.825  -0.402  0.00  0.00    +0.008 C 
ATOM      8  C   UNL     1       1.274  -2.256   0.059  0.00  0.00    +0.035 C 
ATOM      9  C   UNL     1       1.300  -0.750   0.042  0.00  0.00    -0.042 A 
ATOM     10  C   UNL     1       2.476  -0.032   0.020  0.00  0.00    -0.012 A 
ATOM     11  C   UNL     1       2.433   1.356   0.021  0.00  0.00    +0.006 A 
ATOM     12  C   UNL     1       1.224   2.021   0.037  0.00  0.00    +0.000 A 
ATOM     13  C   UNL     1       0.045   1.300   0.054  0.00  0.00    +0.000 A 
ATOM     14  C   UNL     1       0.085  -0.080   0.056  0.00  0.00    +0.004 A 
ATOM     15  N   UNL     1       4.766   0.025   0.858  0.00  0.00    -0.281 N 
ATOM     16  C   UNL     1       5.754   0.469   0.059  0.00  0.00    +0.310 C 
ATOM     17  O   UNL     1       6.707   1.112   0.456  0.00  0.00    -0.252 OA
ATOM     18  H   UNL     1       4.571   0.105   1.938  0.00  0.00    +0.152 HD
ENDBRANCH   1   2
BRANCH   1  20
ATOM     19  N   UNL     1       6.788   2.323  -3.923  0.00  0.00    -0.313 N 
ATOM     20  C   UNL     1       6.083   1.799  -2.902  0.00  0.00    +0.231 C 
ATOM     21  O   UNL     1       5.122   2.393  -2.460  0.00  0.00    -0.274 OA
ATOM     22  H   UNL     1       7.660   1.784  -4.324  0.00  0.00    +0.149 HD
BRANCH  19  23
ATOM     23  C   UNL     1       6.395   3.611  -4.500  0.00  0.00    +0.115 C 
BRANCH  23  24
ATOM     24  C   UNL     1       7.423   4.035  -5.551  0.00  0.00    +0.011 C 
ATOM     25  C   UNL     1       8.824   4.107  -4.918  0.00  0.00    +0.013 C 
ATOM     26  C   UNL     1       9.302   5.566  -5.071  0.00  0.00    +0.001 C 
ATOM     27  C   UNL     1       7.993   6.382  -5.208  0.00  0.00    +0.001 C 
ATOM     28  C   UNL     1       7.099   5.452  -6.066  0.00  0.00    +0.013 C 
BRANCH  24  32
ATOM     29  C   UNL     1       7.422   1.262  -8.800  0.00  0.00    +0.000 A 
ATOM     30  C   UNL     1       6.489   1.141  -7.788  0.00  0.00    +0.000 A 
ATOM     31  C   UNL     1       6.489   2.038  -6.736  0.00  0.00    +0.004 A 
ATOM     32  C   UNL     1       7.423   3.057  -6.697  0.00  0.00    -0.040 A 
ATOM     33  C   UNL     1       8.354   3.181  -7.712  0.00  0.00    +0.004 A 
ATOM     34  C   UNL     1       8.357   2.280  -8.761  0.00  0.00    +0.000 A 
ENDBRANCH  24  32
ENDBRANCH  23  24
ENDBRANCH  19  23
ENDBRANCH   1  20
TORSDOF 5
