REMARK  Name = ZINC00781335
REMARK  11 active torsions:
REMARK  status: ('A' for Active; 'I' for Inactive)
REMARK    1  A    between atoms: C_1  and  C_2
REMARK    2  A    between atoms: C_2  and  O_3
REMARK    3  A    between atoms: O_3  and  C_4
REMARK    4  A    between atoms: C_4  and  C_6
REMARK    5  A    between atoms: C_7  and  C_37
REMARK    6  A    between atoms: C_11  and  C_13
REMARK    7  A    between atoms: C_24  and  C_27
REMARK    8  A    between atoms: C_30  and  O_35
REMARK    9  A    between atoms: C_31  and  O_33
REMARK   10  A    between atoms: O_33  and  C_34
REMARK   11  A    between atoms: O_35  and  C_36
REMARK                            x       y       z     vdW  Elec       q    Type
REMARK                         _______ _______ _______ _____ _____    ______ ____
ROOT
ATOM      1  C   UNL     1       1.599  -2.369   2.355  0.00  0.00    +0.065 C 
ATOM      2  C   UNL     1       1.490  -3.684   2.609  0.00  0.00    +0.016 C 
ATOM      3  N   UNL     1       1.998  -4.210   3.764  0.00  0.00    -0.321 N 
ATOM      4  C   UNL     1       2.258  -3.406   4.842  0.00  0.00    +0.016 C 
ATOM      5  C   UNL     1       2.403  -2.074   4.682  0.00  0.00    +0.024 C 
ATOM      6  C   UNL     1       2.288  -1.444   3.315  0.00  0.00    +0.092 C 
ATOM      7  C   UNL     1       2.674  -1.237   5.780  0.00  0.00    +0.162 C 
ATOM      8  O   UNL     1       2.783  -0.040   5.604  0.00  0.00    -0.292 OA
ATOM      9  C   UNL     1       2.831  -1.798   7.167  0.00  0.00    +0.088 C 
ATOM     10  C   UNL     1       3.347  -3.237   7.067  0.00  0.00    +0.032 C 
ATOM     11  C   UNL     1       2.374  -4.043   6.204  0.00  0.00    +0.059 C 
ATOM     12  C   UNL     1       0.805  -4.585   1.615  0.00  0.00    +0.061 C 
ATOM     13  H   UNL     1       2.175  -5.162   3.822  0.00  0.00    +0.152 HD
ENDROOT
BRANCH   6  14
ATOM     14  C   UNL     1       3.665  -1.126   2.794  0.00  0.00    -0.034 A 
ATOM     15  C   UNL     1       4.577  -2.145   2.584  0.00  0.00    +0.007 A 
ATOM     16  C   UNL     1       5.840  -1.855   2.106  0.00  0.00    +0.040 A 
ATOM     17  C   UNL     1       6.194  -0.544   1.836  0.00  0.00    +0.137 A 
ATOM     18  C   UNL     1       5.281   0.476   2.046  0.00  0.00    +0.053 A 
ATOM     19  C   UNL     1       4.015   0.183   2.520  0.00  0.00    +0.022 A 
ATOM     20 BR   UNL     1       5.762   2.267   1.679  0.00  0.00    -0.047 Br
ATOM     21  F   UNL     1       7.429  -0.260   1.369  0.00  0.00    -0.204 F 
ENDBRANCH   6  14
BRANCH  10  22
ATOM     22  C   UNL     1       3.429  -3.842   8.445  0.00  0.00    -0.040 A 
ATOM     23  C   UNL     1       2.288  -3.955   9.218  0.00  0.00    +0.008 A 
ATOM     24  C   UNL     1       2.359  -4.510  10.482  0.00  0.00    +0.049 A 
ATOM     25  C   UNL     1       3.574  -4.953  10.978  0.00  0.00    +0.161 A 
ATOM     26  C   UNL     1       4.723  -4.839  10.200  0.00  0.00    +0.162 A 
ATOM     27  C   UNL     1       4.644  -4.287   8.931  0.00  0.00    +0.053 A 
BRANCH  26  28
ATOM     28  O   UNL     1       5.918  -5.273  10.682  0.00  0.00    -0.491 OA
ATOM     29  C   UNL     1       7.054  -5.124   9.828  0.00  0.00    +0.277 C 
ENDBRANCH  26  28
BRANCH  25  30
ATOM     30  O   UNL     1       3.645  -5.498  12.222  0.00  0.00    -0.491 OA
ATOM     31  C   UNL     1       2.426  -5.583  12.963  0.00  0.00    +0.277 C 
ENDBRANCH  25  30
ENDBRANCH  10  22
BRANCH   1  32
ATOM     32  C   UNL     1       1.058  -1.847   1.157  0.00  0.00    +0.338 C 
ATOM     33  O   UNL     1       0.029  -1.198   1.185  0.00  0.00    -0.245 OA
BRANCH  32  34
ATOM     34  O   UNL     1       1.683  -2.069  -0.018  0.00  0.00    -0.462 OA
BRANCH  34  36
ATOM     35  C   UNL     1       1.927  -1.867  -2.414  0.00  0.00    +0.048 C 
ATOM     36  C   UNL     1       1.082  -1.513  -1.189  0.00  0.00    +0.229 C 
ENDBRANCH  34  36
ENDBRANCH  32  34
ENDBRANCH   1  32
TORSDOF 7
