REMARK  Name = ZINC59827599
REMARK  7 active torsions:
REMARK  status: ('A' for Active; 'I' for Inactive)
REMARK    1  A    between atoms: C_1  and  C_2
REMARK    2  A    between atoms: N_4  and  C_5
REMARK    3  A    between atoms: C_8  and  C_11
REMARK    4  A    between atoms: C_12  and  C_13
REMARK    5  A    between atoms: N_15  and  C_16
REMARK    6  A    between atoms: C_20  and  C_22
REMARK    7  A    between atoms: N_24  and  C_25
REMARK                            x       y       z     vdW  Elec       q    Type
REMARK                         _______ _______ _______ _____ _____    ______ ____
ROOT
ATOM      1  C   UNL     1      -3.005  -8.418  -1.083  0.00  0.00    +0.241 C 
ATOM      2  O   UNL     1      -2.195  -9.055  -1.730  0.00  0.00    -0.270 OA
ATOM      3  N   UNL     1      -3.987  -9.056  -0.417  0.00  0.00    -0.282 N 
ATOM      4  H   UNL     1      -4.676  -8.546   0.038  0.00  0.00    +0.155 HD
ENDROOT
BRANCH   3   5
ATOM      5  C   UNL     1      -4.014 -10.454  -0.381  0.00  0.00    +0.034 A 
ATOM      6  C   UNL     1      -2.823 -11.172  -0.365  0.00  0.00    +0.025 A 
ATOM      7  C   UNL     1      -2.843 -12.553  -0.329  0.00  0.00    +0.022 A 
ATOM      8  C   UNL     1      -4.048 -13.230  -0.309  0.00  0.00    +0.053 A 
ATOM      9  C   UNL     1      -5.249 -12.518  -0.325  0.00  0.00    +0.057 A 
ATOM     10  C   UNL     1      -5.227 -11.123  -0.355  0.00  0.00    +0.037 A 
ATOM     11 CL   UNL     1      -4.067 -14.965  -0.265  0.00  0.00    -0.083 Cl
BRANCH   9  12
ATOM     12  C   UNL     1      -6.539 -13.239  -0.304  0.00  0.00    +0.246 C 
ATOM     13  O   UNL     1      -6.556 -14.454  -0.273  0.00  0.00    -0.270 OA
ATOM     14  N   UNL     1      -7.697 -12.549  -0.319  0.00  0.00    -0.308 N 
ATOM     15  H   UNL     1      -7.684 -11.580  -0.344  0.00  0.00    +0.149 HD
BRANCH  14  16
ATOM     16  C   UNL     1      -8.976 -13.264  -0.299  0.00  0.00    +0.073 C 
ATOM     17  C   UNL     1      -9.362 -13.659  -1.725  0.00  0.00    +0.022 C 
ATOM     18  C   UNL     1     -10.697 -14.405  -1.704  0.00  0.00    +0.002 C 
ATOM     19  C   UNL     1     -11.780 -13.498  -1.115  0.00  0.00    +0.000 C 
ATOM     20  C   UNL     1     -11.393 -13.103   0.312  0.00  0.00    +0.002 C 
ATOM     21  C   UNL     1     -10.058 -12.357   0.290  0.00  0.00    +0.022 C 
ENDBRANCH  14  16
ENDBRANCH   9  12
ENDBRANCH   3   5
BRANCH   1  23
ATOM     22  C   UNL     1      -1.928  -6.320  -1.696  0.00  0.00    +0.013 C 
ATOM     23  C   UNL     1      -2.912  -6.959  -1.029  0.00  0.00    +0.068 C 
BRANCH  22  27
ATOM     24  C   UNL     1      -1.661  -2.090  -1.540  0.00  0.00    +0.033 A 
ATOM     25  C   UNL     1      -0.733  -2.816  -2.280  0.00  0.00    +0.024 A 
ATOM     26  C   UNL     1      -0.816  -4.189  -2.333  0.00  0.00    +0.010 A 
ATOM     27  C   UNL     1      -1.835  -4.854  -1.642  0.00  0.00    -0.025 A 
ATOM     28  C   UNL     1      -2.766  -4.119  -0.898  0.00  0.00    +0.010 A 
ATOM     29  C   UNL     1      -2.673  -2.747  -0.846  0.00  0.00    +0.024 A 
BRANCH  24  33
ATOM     30  C   UNL     1      -1.178   1.499  -2.554  0.00  0.00    +0.109 C 
ATOM     31  C   UNL     1      -1.173  -0.008  -2.575  0.00  0.00    +0.214 C 
ATOM     32  O   UNL     1      -0.810  -0.599  -3.570  0.00  0.00    -0.276 OA
ATOM     33  N   UNL     1      -1.573  -0.698  -1.489  0.00  0.00    -0.286 N 
ATOM     34  H   UNL     1      -1.800  -0.228  -0.671  0.00  0.00    +0.155 HD
ENDBRANCH  24  33
ENDBRANCH  22  27
ENDBRANCH   1  23
TORSDOF 6
