REMARK  Name = ZINC39362712
REMARK  6 active torsions:
REMARK  status: ('A' for Active; 'I' for Inactive)
REMARK    1  A    between atoms: C_6  and  N_7
REMARK    2  A    between atoms: C_8  and  C_23
REMARK    3  A    between atoms: C_12  and  S_13
REMARK    4  A    between atoms: S_13  and  C_14
REMARK    5  A    between atoms: C_14  and  C_15
REMARK    6  A    between atoms: C_23  and  C_24
REMARK                            x       y       z     vdW  Elec       q    Type
REMARK                         _______ _______ _______ _____ _____    ______ ____
ROOT
ATOM      1  N   UNL     1      -1.199  -0.721   0.010  0.00  0.00    -0.258 N 
ATOM      2  C   UNL     1      -1.353  -2.182  -0.093  0.00  0.00    +0.187 C 
ATOM      3  N   UNL     1      -2.810  -2.389  -0.032  0.00  0.00    -0.246 N 
ATOM      4  N   UNL     1      -3.380  -1.117   0.095  0.00  0.00    -0.162 NA
ATOM      5  C   UNL     1      -2.478  -0.195   0.123  0.00  0.00    +0.180 C 
ATOM      6  H   UNL     1      -3.280  -3.237  -0.072  0.00  0.00    +0.170 HD
ENDROOT
BRANCH   1  12
ATOM      7  C   UNL     1       0.417   0.671   1.143  0.00  0.00    +0.026 A 
ATOM      8  C   UNL     1       1.603   1.377   1.133  0.00  0.00    +0.040 A 
ATOM      9  C   UNL     1       2.379   1.414  -0.014  0.00  0.00    +0.124 A 
ATOM     10  C   UNL     1       1.967   0.743  -1.153  0.00  0.00    +0.040 A 
ATOM     11  C   UNL     1       0.781   0.034  -1.147  0.00  0.00    +0.026 A 
ATOM     12  C   UNL     1       0.002  -0.004   0.002  0.00  0.00    +0.038 A 
ATOM     13  F   UNL     1       3.539   2.107  -0.022  0.00  0.00    -0.205 F 
ENDBRANCH   1  12
BRANCH   5  14
ATOM     14  S   UNL     1      -2.828   1.524   0.281  0.00  0.00    -0.079 S 
BRANCH  14  15
ATOM     15  C   UNL     1      -4.638   1.596   0.387  0.00  0.00    +0.173 C 
BRANCH  15  16
ATOM     16  C   UNL     1      -5.076   3.031   0.527  0.00  0.00    +0.226 C 
ATOM     17  O   UNL     1      -4.249   3.918   0.553  0.00  0.00    -0.275 OA
ATOM     18  N   UNL     1      -6.387   3.329   0.623  0.00  0.00    -0.301 N 
ATOM     19  C   UNL     1      -7.400   2.265   0.599  0.00  0.00    +0.108 C 
ATOM     20  C   UNL     1      -8.296   2.409   1.833  0.00  0.00    +0.019 C 
ATOM     21  C   UNL     1      -8.873   3.826   1.876  0.00  0.00    +0.003 C 
ATOM     22  C   UNL     1      -7.733   4.840   1.986  0.00  0.00    +0.019 C 
ATOM     23  C   UNL     1      -6.830   4.723   0.760  0.00  0.00    +0.108 C 
ENDBRANCH  15  16
ENDBRANCH  14  15
ENDBRANCH   5  14
BRANCH   2  24
ATOM     24  C   UNL     1      -0.659  -2.879   1.079  0.00  0.00    +0.097 C 
BRANCH  24  25
ATOM     25  C   UNL     1      -0.725  -4.372   0.885  0.00  0.00    +0.029 A 
ATOM     26  N   UNL     1      -1.830  -5.069   1.291  0.00  0.00    -0.311 N 
ATOM     27  C   UNL     1      -1.899  -6.402   1.122  0.00  0.00    +0.327 A 
ATOM     28  O   UNL     1      -2.891  -7.002   1.490  0.00  0.00    -0.247 OA
ATOM     29  N   UNL     1      -0.886  -7.081   0.552  0.00  0.00    -0.275 N 
ATOM     30  C   UNL     1       0.220  -6.431   0.139  0.00  0.00    +0.254 A 
ATOM     31  O   UNL     1       1.137  -7.044  -0.377  0.00  0.00    -0.268 OA
ATOM     32  C   UNL     1       0.304  -5.027   0.306  0.00  0.00    +0.091 A 
ATOM     33  H   UNL     1      -0.953  -8.042   0.438  0.00  0.00    +0.173 HD
ATOM     34  H   UNL     1      -2.571  -4.598   1.704  0.00  0.00    +0.170 HD
ENDBRANCH  24  25
ENDBRANCH   2  24
TORSDOF 6
