REMARK  Name = ZINC36648560
REMARK  9 active torsions:
REMARK  status: ('A' for Active; 'I' for Inactive)
REMARK    1  A    between atoms: C_1  and  C_2
REMARK    2  A    between atoms: C_3  and  C_36
REMARK    3  A    between atoms: C_11  and  C_13
REMARK    4  A    between atoms: C_13  and  S_14
REMARK    5  A    between atoms: S_14  and  C_15
REMARK    6  A    between atoms: C_15  and  C_17
REMARK    7  A    between atoms: C_15  and  C_18
REMARK    8  A    between atoms: N_20  and  C_21
REMARK    9  A    between atoms: C_24  and  C_27
REMARK                            x       y       z     vdW  Elec       q    Type
REMARK                         _______ _______ _______ _____ _____    ______ ____
ROOT
ATOM      1  C   UNL     1       0.273  -7.601   5.074  0.00  0.00    +0.230 C 
ATOM      2  O   UNL     1      -0.020  -7.974   3.958  0.00  0.00    -0.274 OA
ATOM      3  N   UNL     1       0.716  -8.489   5.987  0.00  0.00    -0.285 N 
ATOM      4  H   UNL     1       1.014  -8.181   6.857  0.00  0.00    +0.155 HD
ENDROOT
BRANCH   3   5
ATOM      5  C   UNL     1       0.748  -9.850   5.678  0.00  0.00    +0.033 A 
ATOM      6  C   UNL     1       1.052 -10.262   4.385  0.00  0.00    +0.024 A 
ATOM      7  C   UNL     1       1.083 -11.604   4.078  0.00  0.00    +0.015 A 
ATOM      8  C   UNL     1       0.810 -12.552   5.067  0.00  0.00    +0.037 A 
ATOM      9  C   UNL     1       0.505 -12.135   6.365  0.00  0.00    +0.015 A 
ATOM     10  C   UNL     1       0.480 -10.791   6.667  0.00  0.00    +0.024 A 
BRANCH   8  11
ATOM     11  C   UNL     1       0.842 -13.992   4.741  0.00  0.00    +0.228 A 
ATOM     12  N   UNL     1       1.121 -14.489   3.562  0.00  0.00    -0.209 NA
ATOM     13  C   UNL     1       1.057 -15.844   3.632  0.00  0.00    +0.110 A 
ATOM     14  C   UNL     1       1.255 -16.868   2.704  0.00  0.00    +0.031 A 
ATOM     15  C   UNL     1       1.113 -18.181   3.095  0.00  0.00    +0.002 A 
ATOM     16  C   UNL     1       0.775 -18.491   4.404  0.00  0.00    +0.004 A 
ATOM     17  C   UNL     1       0.576 -17.490   5.332  0.00  0.00    +0.048 A 
ATOM     18  C   UNL     1       0.715 -16.163   4.957  0.00  0.00    +0.156 A 
ATOM     19  O   UNL     1       0.596 -14.988   5.614  0.00  0.00    -0.435 OA
ENDBRANCH   8  11
ENDBRANCH   3   5
BRANCH   1  20
ATOM     20  C   UNL     1       0.141  -6.145   5.441  0.00  0.00    +0.130 C 
ATOM     21  C   UNL     1      -1.157  -5.932   6.223  0.00  0.00    +0.029 C 
BRANCH  20  22
ATOM     22  S   UNL     1       0.109  -5.141   3.931  0.00  0.00    -0.141 S 
BRANCH  22  23
ATOM     23  C   UNL     1       0.102  -3.433   4.540  0.00  0.00    +0.144 C 
BRANCH  23  34
ATOM     24  C   UNL     1      -0.014   1.492  -0.008  0.00  0.00    +0.045 C 
ATOM     25  C   UNL     1      -0.000  -0.015  -0.013  0.00  0.00    -0.026 A 
ATOM     26  C   UNL     1      -0.006  -0.690  -1.173  0.00  0.00    -0.008 A 
ATOM     27  S   UNL     1       0.016  -2.397  -0.657  0.00  0.00    -0.073 S 
ATOM     28  C   UNL     1       0.033  -2.153   1.100  0.00  0.00    +0.116 A 
ATOM     29  C   UNL     1       0.026  -0.753   1.236  0.00  0.00    +0.075 A 
ATOM     30  C   UNL     1       0.042  -0.261   2.582  0.00  0.00    +0.260 A 
ATOM     31  O   UNL     1       0.034   0.937   2.804  0.00  0.00    -0.267 OA
ATOM     32  N   UNL     1       0.066  -1.144   3.598  0.00  0.00    -0.310 N 
ATOM     33  H   UNL     1       0.077  -0.818   4.511  0.00  0.00    +0.170 HD
ATOM     34  C   UNL     1       0.075  -2.483   3.370  0.00  0.00    +0.121 A 
ATOM     35  N   UNL     1       0.052  -2.962   2.155  0.00  0.00    -0.226 NA
ATOM     36  C   UNL     1      -0.028  -0.138  -2.575  0.00  0.00    +0.052 C 
ENDBRANCH  23  34
ENDBRANCH  22  23
ENDBRANCH  20  22
ENDBRANCH   1  20
TORSDOF 6
