REMARK  Name = ZINC20290873
REMARK  6 active torsions:
REMARK  status: ('A' for Active; 'I' for Inactive)
REMARK    1  A    between atoms: C_6  and  C_7
REMARK    2  A    between atoms: C_7  and  N_8
REMARK    3  A    between atoms: N_8  and  C_9
REMARK    4  A    between atoms: N_16  and  C_19
REMARK    5  A    between atoms: C_19  and  C_20
REMARK    6  A    between atoms: C_20  and  C_21
REMARK                            x       y       z     vdW  Elec       q    Type
REMARK                         _______ _______ _______ _____ _____    ______ ____
ROOT
ATOM      1  C   UNL     1      -2.869  -1.691  -1.607  0.00  0.00    +0.086 C 
ATOM      2  C   UNL     1      -3.331  -1.830  -2.902  0.00  0.00    +0.113 C 
ATOM      3  C   UNL     1      -2.546  -1.354  -4.055  0.00  0.00    +0.256 C 
ATOM      4  O   UNL     1      -1.462  -0.823  -3.897  0.00  0.00    -0.270 OA
ATOM      5  N   UNL     1      -3.060  -1.524  -5.291  0.00  0.00    -0.263 N 
ATOM      6  C   UNL     1      -4.251  -2.107  -5.480  0.00  0.00    +0.146 C 
ATOM      7  S   UNL     1      -4.824  -2.280  -7.084  0.00  0.00    -0.018 S 
ATOM      8  N   UNL     1      -5.019  -2.563  -4.480  0.00  0.00    -0.249 N 
ATOM      9  C   UNL     1      -4.629  -2.467  -3.192  0.00  0.00    +0.258 C 
ATOM     10  O   UNL     1      -5.332  -2.889  -2.293  0.00  0.00    -0.269 OA
ATOM     11  H   UNL     1      -2.555  -1.216  -6.060  0.00  0.00    +0.157 HD
ENDROOT
BRANCH   1  12
ATOM     12  N   UNL     1      -1.759  -0.966  -1.362  0.00  0.00    -0.345 N 
ATOM     13  H   UNL     1      -1.331  -0.476  -2.081  0.00  0.00    +0.146 HD
BRANCH  12  14
ATOM     14  C   UNL     1      -1.199  -0.919  -0.009  0.00  0.00    +0.136 C 
BRANCH  14  20
ATOM     15  C   UNL     1      -0.086   1.307   0.245  0.00  0.00    +0.009 A 
ATOM     16  C   UNL     1       1.039   2.111   0.251  0.00  0.00    +0.050 A 
ATOM     17  C   UNL     1       2.286   1.561   0.005  0.00  0.00    +0.166 A 
ATOM     18  C   UNL     1       2.403   0.196  -0.247  0.00  0.00    +0.167 A 
ATOM     19  C   UNL     1       1.272  -0.604  -0.251  0.00  0.00    +0.054 A 
ATOM     20  C   UNL     1       0.031  -0.047  -0.004  0.00  0.00    -0.027 A 
ATOM     21  O   UNL     1       3.720  -0.098  -0.456  0.00  0.00    -0.453 OA
ATOM     22  C   UNL     1       4.356   1.164  -0.734  0.00  0.00    +0.466 C 
ATOM     23  O   UNL     1       3.529   2.122  -0.046  0.00  0.00    -0.453 OA
ENDBRANCH  14  20
ENDBRANCH  12  14
ENDBRANCH   1  12
BRANCH   8  24
ATOM     24  C   UNL     1      -6.307  -3.186  -4.793  0.00  0.00    +0.120 C 
BRANCH  24  25
ATOM     25  C   UNL     1      -6.111  -4.690  -4.994  0.00  0.00    +0.050 C 
BRANCH  25  26
ATOM     26  C   UNL     1      -7.436  -5.331  -5.316  0.00  0.00    -0.072 C 
ATOM     27  C   UNL     1      -7.737  -5.510  -6.562  0.00  0.00    -0.028 C 
ATOM     28  C   UNL     1      -9.021  -6.124  -7.037  0.00  0.00    +0.027 C 
ATOM     29  C   UNL     1      -9.702  -6.874  -5.891  0.00  0.00    +0.004 C 
ATOM     30  C   UNL     1      -9.754  -5.949  -4.669  0.00  0.00    +0.005 C 
ATOM     31  C   UNL     1      -8.322  -5.728  -4.172  0.00  0.00    +0.030 C 
ENDBRANCH  25  26
ENDBRANCH  24  25
ENDBRANCH   8  24
TORSDOF 6
