REMARK  Name = ZINC34830612
REMARK  7 active torsions:
REMARK  status: ('A' for Active; 'I' for Inactive)
REMARK    1  A    between atoms: C_1  and  C_2
REMARK    2  A    between atoms: C_7  and  C_8
REMARK    3  A    between atoms: N_17  and  C_18
REMARK    4  A    between atoms: C_18  and  C_19
REMARK    5  A    between atoms: C_19  and  C_20
REMARK    6  A    between atoms: N_26  and  S_29
REMARK    7  A    between atoms: S_29  and  C_32
REMARK                            x       y       z     vdW  Elec       q    Type
REMARK                         _______ _______ _______ _____ _____    ______ ____
ROOT
ATOM      1  C   UNL     1       2.197  -2.317   4.369  0.00  0.00    +0.077 C 
ENDROOT
BRANCH   1   2
ATOM      2  C   UNL     1       3.660  -2.583   4.123  0.00  0.00    +0.214 C 
ATOM      3  O   UNL     1       4.235  -2.017   3.217  0.00  0.00    -0.276 OA
ATOM      4  N   UNL     1       4.329  -3.449   4.910  0.00  0.00    -0.300 N 
ATOM      5  C   UNL     1       5.790  -3.627   4.738  0.00  0.00    +0.109 C 
ATOM      6  C   UNL     1       6.521  -2.905   5.792  0.00  0.00    +0.036 C 
ATOM      7  C   UNL     1       6.115  -3.380   7.198  0.00  0.00    +0.111 C 
ATOM      8  N   UNL     1       4.858  -2.772   7.525  0.00  0.00    -0.175 NA
ATOM      9  C   UNL     1       3.559  -3.454   7.270  0.00  0.00    +0.128 C 
ATOM     10  C   UNL     1       3.627  -4.194   5.917  0.00  0.00    +0.125 C 
BRANCH   8  11
ATOM     11  S   UNL     1       4.850  -1.264   8.208  0.00  0.00    +0.061 S 
ATOM     12  O   UNL     1       3.658  -1.171   8.975  0.00  0.00    -0.153 OA
ATOM     13  O   UNL     1       6.138  -1.069   8.775  0.00  0.00    -0.153 OA
BRANCH  11  14
ATOM     14  C   UNL     1       4.697  -0.098   6.895  0.00  0.00    +0.105 A 
ATOM     15  C   UNL     1       5.823   0.338   6.223  0.00  0.00    +0.028 A 
ATOM     16  C   UNL     1       5.703   1.252   5.193  0.00  0.00    +0.002 A 
ATOM     17  C   UNL     1       4.456   1.730   4.835  0.00  0.00    +0.000 A 
ATOM     18  C   UNL     1       3.329   1.293   5.507  0.00  0.00    +0.002 A 
ATOM     19  C   UNL     1       3.449   0.375   6.534  0.00  0.00    +0.028 A 
ENDBRANCH  11  14
ENDBRANCH   8  11
ENDBRANCH   1   2
BRANCH   1  20
ATOM     20  C   UNL     1       1.707  -1.232   3.409  0.00  0.00    -0.068 C 
BRANCH  20  29
ATOM     21  C   UNL     1      -0.219  -0.036   2.639  0.00  0.00    -0.006 C 
ATOM     22  C   UNL     1      -1.663   0.327   2.971  0.00  0.00    -0.047 A 
ATOM     23  C   UNL     1      -2.569   0.844   2.048  0.00  0.00    +0.010 A 
ATOM     24  C   UNL     1      -3.834   1.136   2.432  0.00  0.00    +0.045 A 
ATOM     25  S   UNL     1      -3.809   0.684   4.161  0.00  0.00    -0.101 S 
ATOM     26  C   UNL     1      -2.125   0.145   4.240  0.00  0.00    -0.010 A 
ATOM     27  C   UNL     1      -1.347  -0.387   5.399  0.00  0.00    +0.024 C 
ATOM     28  C   UNL     1       0.140  -0.370   5.006  0.00  0.00    -0.072 C 
ATOM     29  N   UNL     1       0.287  -0.955   3.666  0.00  0.00    +0.388 N 
ATOM     30  H   UNL     1      -0.232  -1.819   3.623  0.00  0.00    -0.080 HD
BRANCH  21  37
ATOM     31  C   UNL     1       0.138   1.550   0.251  0.00  0.00    +0.044 C 
ATOM     32  C   UNL     1       0.007   0.052   0.148  0.00  0.00    -0.049 A 
ATOM     33  C   UNL     1       0.063  -0.563  -1.089  0.00  0.00    +0.003 A 
ATOM     34  C   UNL     1      -0.058  -1.937  -1.183  0.00  0.00    +0.000 A 
ATOM     35  C   UNL     1      -0.234  -2.696  -0.041  0.00  0.00    +0.000 A 
ATOM     36  C   UNL     1      -0.289  -2.080   1.195  0.00  0.00    +0.002 A 
ATOM     37  C   UNL     1      -0.164  -0.707   1.290  0.00  0.00    -0.054 A 
ENDBRANCH  21  37
ENDBRANCH  20  29
ENDBRANCH   1  20
TORSDOF 6
