REMARK  Name = ZINC65238093
REMARK  6 active torsions:
REMARK  status: ('A' for Active; 'I' for Inactive)
REMARK    1  A    between atoms: C_1  and  C_2
REMARK    2  A    between atoms: C_2  and  C_3
REMARK    3  A    between atoms: C_2  and  C_4
REMARK    4  A    between atoms: C_7  and  C_10
REMARK    5  A    between atoms: C_10  and  N_11
REMARK    6  A    between atoms: C_12  and  C_14
REMARK                            x       y       z     vdW  Elec       q    Type
REMARK                         _______ _______ _______ _____ _____    ______ ____
ROOT
ATOM      1  C   UNL     1       5.494  -0.139  -6.643  0.00  0.00    +0.153 C 
ATOM      2  N   UNL     1       5.766   0.979  -6.034  0.00  0.00    -0.166 NA
ATOM      3  N   UNL     1       6.778   1.696  -6.687  0.00  0.00    -0.184 N 
ATOM      4  N   UNL     1       7.024   1.102  -7.917  0.00  0.00    -0.218 N 
ATOM      5  C   UNL     1       6.417  -0.250  -7.832  0.00  0.00    +0.236 C 
ATOM      6  C   UNL     1       5.647  -0.461  -9.111  0.00  0.00    +0.246 C 
ATOM      7  O   UNL     1       4.694  -1.211  -9.124  0.00  0.00    -0.273 OA
ATOM      8  N   UNL     1       6.012   0.180 -10.240  0.00  0.00    -0.282 N 
ATOM      9  C   UNL     1       7.098   1.060 -10.285  0.00  0.00    +0.059 A 
ATOM     10  C   UNL     1       7.622   1.565  -9.086  0.00  0.00    +0.072 A 
ATOM     11  C   UNL     1       8.676   2.451  -9.101  0.00  0.00    +0.029 A 
ATOM     12  C   UNL     1       9.223   2.847 -10.311  0.00  0.00    +0.040 A 
ATOM     13  C   UNL     1       8.711   2.352 -11.498  0.00  0.00    +0.125 A 
ATOM     14  C   UNL     1       7.659   1.452 -11.487  0.00  0.00    +0.063 A 
ATOM     15  F   UNL     1       9.253   2.735 -12.674  0.00  0.00    -0.205 F 
ATOM     16  H   UNL     1       7.231   2.479  -6.337  0.00  0.00    +0.193 HD
ATOM     17  H   UNL     1       5.502   0.024 -11.051  0.00  0.00    +0.155 HD
ENDROOT
BRANCH   1  19
ATOM     18  N   UNL     1       3.721  -0.890  -5.153  0.00  0.00    -0.306 N 
ATOM     19  C   UNL     1       4.481  -1.116  -6.243  0.00  0.00    +0.263 C 
ATOM     20  O   UNL     1       4.324  -2.132  -6.895  0.00  0.00    -0.269 OA
ATOM     21  H   UNL     1       3.846  -0.080  -4.634  0.00  0.00    +0.149 HD
BRANCH  18  22
ATOM     22  C   UNL     1       2.707  -1.868  -4.752  0.00  0.00    +0.140 C 
BRANCH  22  26
ATOM     23  C   UNL     1       0.707  -0.490  -1.238  0.00  0.00    -0.045 A 
ATOM     24  C   UNL     1       0.222  -0.151  -2.487  0.00  0.00    +0.004 A 
ATOM     25  C   UNL     1       0.869  -0.597  -3.624  0.00  0.00    +0.005 A 
ATOM     26  C   UNL     1       2.002  -1.381  -3.513  0.00  0.00    -0.030 A 
ATOM     27  C   UNL     1       2.488  -1.720  -2.263  0.00  0.00    +0.005 A 
ATOM     28  C   UNL     1       1.843  -1.270  -1.126  0.00  0.00    +0.004 A 
BRANCH  23  30
ATOM     29  C   UNL     1      -0.019   1.526   0.010  0.00  0.00    +0.012 C 
ATOM     30  C   UNL     1       0.002  -0.004   0.002  0.00  0.00    +0.013 C 
ATOM     31  C   UNL     1      -1.433  -0.534   0.013  0.00  0.00    +0.012 C 
ENDBRANCH  23  30
ENDBRANCH  22  26
ENDBRANCH  18  22
ENDBRANCH   1  19
TORSDOF 4
