REMARK  Name = ZINC33069224
REMARK  8 active torsions:
REMARK  status: ('A' for Active; 'I' for Inactive)
REMARK    1  A    between atoms: C_6  and  C_7
REMARK    2  A    between atoms: C_7  and  N_8
REMARK    3  A    between atoms: C_11  and  C_14
REMARK    4  A    between atoms: C_16  and  C_19
REMARK    5  A    between atoms: C_19  and  C_20
REMARK    6  A    between atoms: C_20  and  C_21
REMARK    7  A    between atoms: N_23  and  C_24
REMARK    8  A    between atoms: C_24  and  C_25
REMARK                            x       y       z     vdW  Elec       q    Type
REMARK                         _______ _______ _______ _____ _____    ______ ____
ROOT
ATOM      1  C   UNL     1      -0.040   1.549  -2.514  0.00  0.00    +0.198 A 
ATOM      2  N   UNL     1      -0.542   1.949  -3.706  0.00  0.00    -0.192 NA
ATOM      3  C   UNL     1       0.414   1.744  -4.577  0.00  0.00    +0.228 A 
ATOM      4  O   UNL     1       1.450   1.227  -3.910  0.00  0.00    -0.338 OA
ATOM      5  N   UNL     1       1.177   1.121  -2.733  0.00  0.00    -0.056 NA
ENDROOT
BRANCH   1   9
ATOM      6  N   UNL     1      -2.163   1.284   1.140  0.00  0.00    +0.385 N 
ATOM      7  C   UNL     1      -0.727   1.579   1.269  0.00  0.00    -0.073 C 
ATOM      8  C   UNL     1      -0.013   1.086   0.008  0.00  0.00    +0.020 C 
ATOM      9  C   UNL     1      -0.738   1.583  -1.211  0.00  0.00    -0.007 C 
ATOM     10  C   UNL     1      -1.967   2.047  -1.166  0.00  0.00    -0.038 C 
ATOM     11  C   UNL     1      -2.764   2.133   0.103  0.00  0.00    -0.050 C 
ATOM     12  H   UNL     1      -2.278   0.233   0.836  0.00  0.00    -0.081 HD
BRANCH   6  13
ATOM     13  C   UNL     1      -2.853   1.453   2.425  0.00  0.00    -0.043 C 
BRANCH  13  19
ATOM     14  C   UNL     1      -1.547   3.128   3.749  0.00  0.00    +0.003 A 
ATOM     15  C   UNL     1      -1.338   4.413   4.213  0.00  0.00    +0.020 A 
ATOM     16  C   UNL     1      -2.219   5.423   3.870  0.00  0.00    +0.041 A 
ATOM     17  C   UNL     1      -3.305   5.147   3.059  0.00  0.00    +0.020 A 
ATOM     18  C   UNL     1      -3.510   3.863   2.592  0.00  0.00    +0.003 A 
ATOM     19  C   UNL     1      -2.630   2.854   2.935  0.00  0.00    -0.064 A 
ATOM     20 CL   UNL     1      -1.961   7.037   4.457  0.00  0.00    -0.084 Cl
ENDBRANCH  13  19
ENDBRANCH   6  13
ENDBRANCH   1   9
BRANCH   3  21
ATOM     21  C   UNL     1       0.354   2.032  -6.055  0.00  0.00    +0.108 C 
BRANCH  21  22
ATOM     22  C   UNL     1       0.844   3.458  -6.317  0.00  0.00    +0.105 C 
BRANCH  22  23
ATOM     23  C   UNL     1       0.785   3.745  -7.795  0.00  0.00    +0.214 C 
ATOM     24  O   UNL     1       0.389   2.894  -8.563  0.00  0.00    -0.276 OA
ATOM     25  N   UNL     1       1.171   4.949  -8.264  0.00  0.00    -0.311 N 
ATOM     26  H   UNL     1       1.530   5.721  -7.567  0.00  0.00    +0.149 HD
BRANCH  25  27
ATOM     27  C   UNL     1       1.113   5.228  -9.700  0.00  0.00    +0.139 C 
BRANCH  27  28
ATOM     28  C   UNL     1       1.596   6.632  -9.959  0.00  0.00    -0.027 A 
ATOM     29  C   UNL     1       0.697   7.682  -9.958  0.00  0.00    +0.009 A 
ATOM     30  C   UNL     1       1.136   8.973 -10.189  0.00  0.00    +0.050 A 
ATOM     31  C   UNL     1       2.478   9.215 -10.434  0.00  0.00    +0.166 A 
ATOM     32  C   UNL     1       3.383   8.156 -10.440  0.00  0.00    +0.167 A 
ATOM     33  C   UNL     1       2.937   6.867 -10.202  0.00  0.00    +0.054 A 
ATOM     34  O   UNL     1       4.629   8.649 -10.702  0.00  0.00    -0.453 OA
ATOM     35  C   UNL     1       4.415   9.960 -11.259  0.00  0.00    +0.466 C 
ATOM     36  O   UNL     1       3.157  10.371 -10.692  0.00  0.00    -0.453 OA
ENDBRANCH  27  28
ENDBRANCH  25  27
ENDBRANCH  22  23
ENDBRANCH  21  22
ENDBRANCH   3  21
TORSDOF 8
