REMARK  Name = ZINC39162275
REMARK  5 active torsions:
REMARK  status: ('A' for Active; 'I' for Inactive)
REMARK    1  A    between atoms: C_7  and  N_29
REMARK    2  A    between atoms: C_9  and  N_14
REMARK    3  A    between atoms: N_14  and  S_15
REMARK    4  A    between atoms: S_15  and  C_18
REMARK    5  A    between atoms: N_29  and  C_30
REMARK                            x       y       z     vdW  Elec       q    Type
REMARK                         _______ _______ _______ _____ _____    ______ ____
ROOT
ATOM      1  C   UNL     1       0.344   1.360  -0.225  0.00  0.00    +0.001 A 
ATOM      2  C   UNL     1       1.569   1.997  -0.164  0.00  0.00    +0.004 A 
ATOM      3  C   UNL     1       2.727   1.253  -0.058  0.00  0.00    +0.047 A 
ATOM      4  C   UNL     1       2.664  -0.136  -0.010  0.00  0.00    +0.136 A 
ATOM      5  C   UNL     1       1.437  -0.771  -0.064  0.00  0.00    +0.014 A 
ATOM      6  C   UNL     1       0.278  -0.018  -0.176  0.00  0.00    +0.009 A 
ATOM      7  C   UNL     1       1.314  -2.272   0.007  0.00  0.00    +0.117 C 
ATOM      8  C   UNL     1       2.650  -2.922  -0.365  0.00  0.00    +0.206 C 
ATOM      9  C   UNL     1       3.747  -2.152   0.344  0.00  0.00    +0.333 C 
ATOM     10  O   UNL     1       4.511  -2.696   1.106  0.00  0.00    -0.249 OA
ATOM     11  O   UNL     1       3.829  -0.832   0.084  0.00  0.00    -0.424 OA
ENDROOT
BRANCH   8  12
ATOM     12  N   UNL     1       2.850  -2.853  -1.814  0.00  0.00    -0.174 NA
ATOM     13  H   UNL     1       2.533  -2.083  -2.312  0.00  0.00    +0.149 HD
BRANCH  12  14
ATOM     14  S   UNL     1       3.618  -4.090  -2.604  0.00  0.00    +0.059 S 
ATOM     15  O   UNL     1       3.632  -3.744  -3.982  0.00  0.00    -0.153 OA
ATOM     16  O   UNL     1       4.806  -4.362  -1.874  0.00  0.00    -0.153 OA
BRANCH  14  17
ATOM     17  C   UNL     1       2.597  -5.518  -2.454  0.00  0.00    +0.109 A 
ATOM     18  C   UNL     1       2.759  -6.370  -1.376  0.00  0.00    +0.031 A 
ATOM     19  C   UNL     1       1.963  -7.492  -1.250  0.00  0.00    +0.031 A 
ATOM     20  C   UNL     1       0.998  -7.762  -2.208  0.00  0.00    +0.087 A 
ATOM     21  C   UNL     1       0.833  -6.903  -3.294  0.00  0.00    +0.159 A 
ATOM     22  C   UNL     1       1.633  -5.778  -3.409  0.00  0.00    +0.077 A 
ATOM     23  O   UNL     1      -0.167  -7.408  -4.058  0.00  0.00    -0.408 OA
ATOM     24  C   UNL     1      -0.626  -8.536  -3.495  0.00  0.00    +0.419 A 
ATOM     25  O   UNL     1      -1.523  -9.228  -3.937  0.00  0.00    -0.223 OA
ATOM     26  N   UNL     1       0.062  -8.784  -2.362  0.00  0.00    -0.288 N 
ATOM     27  H   UNL     1      -0.070  -9.537  -1.764  0.00  0.00    +0.172 HD
ENDBRANCH  14  17
ENDBRANCH  12  14
ENDBRANCH   8  12
BRANCH   7  28
ATOM     28  N   UNL     1       0.944  -2.668   1.373  0.00  0.00    -0.305 NA
ATOM     29  H   UNL     1       1.756  -2.709   1.970  0.00  0.00    +0.123 HD
BRANCH  28  30
ATOM     30  C   UNL     1       0.225  -3.949   1.373  0.00  0.00    +0.054 C 
ATOM     31  C   UNL     1      -1.268  -3.697   1.151  0.00  0.00    +0.019 C 
ATOM     32  C   UNL     1      -2.016  -5.032   1.151  0.00  0.00    +0.002 C 
ATOM     33  C   UNL     1      -1.812  -5.730   2.497  0.00  0.00    +0.000 C 
ATOM     34  C   UNL     1      -0.319  -5.982   2.719  0.00  0.00    +0.002 C 
ATOM     35  C   UNL     1       0.429  -4.648   2.719  0.00  0.00    +0.019 C 
ENDBRANCH  28  30
ENDBRANCH   7  28
TORSDOF 5
