REMARK  Name = ZINC39635284
REMARK  5 active torsions:
REMARK  status: ('A' for Active; 'I' for Inactive)
REMARK    1  A    between atoms: C_1  and  C_2
REMARK    2  A    between atoms: C_3  and  C_15
REMARK    3  A    between atoms: C_4  and  C_7
REMARK    4  A    between atoms: C_19  and  C_28
REMARK    5  A    between atoms: N_30  and  C_31
REMARK                            x       y       z     vdW  Elec       q    Type
REMARK                         _______ _______ _______ _____ _____    ______ ____
ROOT
ATOM      1  C   UNL     1      -2.481  -0.399   0.235  0.00  0.00    +0.252 C 
ATOM      2  O   UNL     1      -3.186  -0.309  -0.752  0.00  0.00    -0.270 OA
ATOM      3  N   UNL     1      -2.985  -0.111   1.451  0.00  0.00    -0.296 N 
ATOM      4  C   UNL     1      -2.319  -0.254   2.767  0.00  0.00    +0.121 C 
ATOM      5  C   UNL     1      -2.762   0.992   3.567  0.00  0.00    +0.100 C 
ATOM      6  C   UNL     1      -4.083   1.429   2.912  0.00  0.00    -0.004 C 
ATOM      7  C   UNL     1      -4.328   0.427   1.774  0.00  0.00    +0.115 C 
ATOM      8  C   UNL     1      -3.951   2.839   2.345  0.00  0.00    -0.010 C 
ATOM      9  C   UNL     1      -5.294   3.273   1.750  0.00  0.00    -0.082 C 
ATOM     10  N   UNL     1      -6.327   3.238   2.793  0.00  0.00    +0.379 N 
ATOM     11  C   UNL     1      -6.513   1.861   3.267  0.00  0.00    -0.082 C 
ATOM     12  C   UNL     1      -5.221   1.368   3.926  0.00  0.00    -0.010 C 
ATOM     13  H   UNL     1      -6.044   3.823   3.564  0.00  0.00    -0.086 HD
ATOM     14  H   UNL     1      -7.197   3.582   2.414  0.00  0.00    -0.086 HD
ENDROOT
BRANCH   1  17
ATOM     15  C   UNL     1      -0.077   1.445  -0.533  0.00  0.00    +0.090 C 
ATOM     16  C   UNL     1      -0.017  -0.031  -0.233  0.00  0.00    +0.147 A 
ATOM     17  C   UNL     1      -1.077  -0.822   0.101  0.00  0.00    +0.106 A 
ATOM     18  C   UNL     1      -0.547  -2.179   0.301  0.00  0.00    +0.130 A 
ATOM     19  N   UNL     1       0.743  -2.119   0.085  0.00  0.00    -0.077 NA
ATOM     20  O   UNL     1       1.082  -0.789  -0.254  0.00  0.00    -0.359 OA
BRANCH  18  21
ATOM     21  C   UNL     1      -1.324  -3.384   0.678  0.00  0.00    +0.058 A 
ATOM     22  C   UNL     1      -2.478  -3.723  -0.031  0.00  0.00    +0.134 A 
ATOM     23  C   UNL     1      -3.198  -4.848   0.326  0.00  0.00    +0.039 A 
ATOM     24  C   UNL     1      -2.777  -5.636   1.381  0.00  0.00    +0.004 A 
ATOM     25  C   UNL     1      -1.635  -5.305   2.087  0.00  0.00    +0.021 A 
ATOM     26  C   UNL     1      -0.903  -4.187   1.737  0.00  0.00    +0.053 A 
ATOM     27 CL   UNL     1       0.535  -3.777   2.620  0.00  0.00    -0.083 Cl
ATOM     28  F   UNL     1      -2.891  -2.954  -1.062  0.00  0.00    -0.205 F 
ENDBRANCH  18  21
ENDBRANCH   1  17
BRANCH   5  29
ATOM     29  C   UNL     1      -1.730   2.084   3.451  0.00  0.00    +0.218 C 
ATOM     30  O   UNL     1      -1.115   2.230   2.416  0.00  0.00    -0.275 OA
ATOM     31  N   UNL     1      -1.490   2.899   4.497  0.00  0.00    -0.312 N 
ATOM     32  H   UNL     1      -1.982   2.783   5.325  0.00  0.00    +0.149 HD
BRANCH  31  33
ATOM     33  C   UNL     1      -0.487   3.961   4.385  0.00  0.00    +0.073 C 
ATOM     34  C   UNL     1      -1.091   5.372   4.293  0.00  0.00    +0.022 C 
ATOM     35  C   UNL     1      -1.036   5.410   5.830  0.00  0.00    +0.004 C 
ATOM     36  C   UNL     1       0.111   4.389   5.735  0.00  0.00    +0.022 C 
ENDBRANCH  31  33
ENDBRANCH   5  29
TORSDOF 4
