REMARK  Name = ZINC06812231
REMARK  9 active torsions:
REMARK  status: ('A' for Active; 'I' for Inactive)
REMARK    1  A    between atoms: C_1  and  C_2
REMARK    2  A    between atoms: C_2  and  C_3
REMARK    3  A    between atoms: C_3  and  C_4
REMARK    4  A    between atoms: C_10  and  C_26
REMARK    5  A    between atoms: C_12  and  C_15
REMARK    6  A    between atoms: N_17  and  C_18
REMARK    7  A    between atoms: C_22  and  C_25
REMARK    8  A    between atoms: C_23  and  C_24
REMARK    9  A    between atoms: C_29  and  C_32
REMARK                            x       y       z     vdW  Elec       q    Type
REMARK                         _______ _______ _______ _____ _____    ______ ____
ROOT
ATOM      1  C   UNL     1      -0.231  -5.979  -1.916  0.00  0.00    +0.151 A 
ATOM      2  N   UNL     1      -0.452  -5.840  -3.195  0.00  0.00    -0.132 NA
ATOM      3  N   UNL     1      -1.321  -4.911  -3.397  0.00  0.00    -0.121 NA
ATOM      4  C   UNL     1      -1.699  -4.413  -2.252  0.00  0.00    +0.209 A 
ATOM      5  N   UNL     1      -1.015  -5.069  -1.267  0.00  0.00    -0.225 N 
ATOM      6  N   UNL     1      -1.095  -4.848   0.070  0.00  0.00    -0.272 N 
ATOM      7  C   UNL     1      -2.335  -4.191   0.485  0.00  0.00    +0.140 C 
ATOM      8  C   UNL     1      -2.477  -2.828  -0.206  0.00  0.00    +0.166 C 
ATOM      9  S   UNL     1      -2.873  -3.130  -1.955  0.00  0.00    -0.069 S 
ATOM     10  H   UNL     1      -0.948  -5.702   0.587  0.00  0.00    +0.167 HD
ENDROOT
BRANCH   7  11
ATOM     11  C   UNL     1      -2.318  -3.992   1.979  0.00  0.00    -0.024 A 
ATOM     12  C   UNL     1      -1.154  -3.593   2.610  0.00  0.00    +0.006 A 
ATOM     13  C   UNL     1      -1.140  -3.405   3.980  0.00  0.00    +0.004 A 
ATOM     14  C   UNL     1      -2.286  -3.628   4.720  0.00  0.00    -0.050 A 
ATOM     15  C   UNL     1      -3.448  -4.033   4.090  0.00  0.00    +0.004 A 
ATOM     16  C   UNL     1      -3.464  -4.215   2.719  0.00  0.00    +0.006 A 
ATOM     17  C   UNL     1      -2.269  -3.429   6.213  0.00  0.00    +0.044 C 
ENDBRANCH   7  11
BRANCH   8  18
ATOM     18  C   UNL     1      -1.183  -2.065  -0.100  0.00  0.00    +0.233 C 
ATOM     19  O   UNL     1      -0.125  -2.659  -0.113  0.00  0.00    -0.274 OA
ATOM     20  N   UNL     1      -1.199  -0.722   0.009  0.00  0.00    -0.284 N 
ATOM     21  H   UNL     1      -2.044  -0.252   0.085  0.00  0.00    +0.155 HD
BRANCH  20  22
ATOM     22  C   UNL     1       0.003  -0.005   0.013  0.00  0.00    +0.037 A 
ATOM     23  C   UNL     1       1.135  -0.548   0.605  0.00  0.00    +0.023 A 
ATOM     24  C   UNL     1       2.320   0.161   0.606  0.00  0.00    +0.002 A 
ATOM     25  C   UNL     1       2.379   1.412   0.019  0.00  0.00    +0.004 A 
ATOM     26  C   UNL     1       1.253   1.956  -0.572  0.00  0.00    -0.046 A 
ATOM     27  C   UNL     1       0.065   1.251  -0.576  0.00  0.00    -0.026 A 
ATOM     28  C   UNL     1      -1.160   1.842  -1.225  0.00  0.00    +0.046 C 
ATOM     29  C   UNL     1       1.323   3.319  -1.211  0.00  0.00    +0.044 C 
ENDBRANCH  20  22
ENDBRANCH   8  18
BRANCH   1  30
ATOM     30  C   UNL     1       0.714  -6.962  -1.275  0.00  0.00    +0.078 C 
BRANCH  30  32
ATOM     31  C   UNL     1       3.057  -7.322  -0.485  0.00  0.00    +0.004 C 
ATOM     32  C   UNL     1       2.097  -6.324  -1.136  0.00  0.00    +0.004 C 
ENDBRANCH  30  32
ENDBRANCH   1  30
TORSDOF 5
