REMARK  Name = ZINC07674281
REMARK  4 active torsions:
REMARK  status: ('A' for Active; 'I' for Inactive)
REMARK    1  A    between atoms: C_1  and  C_2
REMARK    2  A    between atoms: N_11  and  C_12
REMARK    3  A    between atoms: C_12  and  C_13
REMARK    4  A    between atoms: C_19  and  C_24
REMARK                            x       y       z     vdW  Elec       q    Type
REMARK                         _______ _______ _______ _____ _____    ______ ____
ROOT
ATOM      1  C   UNL     1      -2.320   1.499  -0.193  0.00  0.00    +0.128 A 
ATOM      2  N   UNL     1      -2.381   0.143  -0.228  0.00  0.00    -0.309 N 
ATOM      3  H   UNL     1      -3.260  -0.312  -0.091  0.00  0.00    +0.170 HD
ATOM      4  C   UNL     1      -1.280  -0.601  -0.442  0.00  0.00    +0.260 A 
ATOM      5  O   UNL     1      -1.351  -1.817  -0.470  0.00  0.00    -0.267 OA
ATOM      6  C   UNL     1      -0.024   0.058  -0.636  0.00  0.00    +0.083 A 
ATOM      7  C   UNL     1       1.293  -0.520  -0.882  0.00  0.00    +0.039 A 
ATOM      8  C   UNL     1       2.352   0.316  -1.036  0.00  0.00    +0.059 A 
ATOM      9  S   UNL     1       1.629   1.935  -0.858  0.00  0.00    -0.076 S 
ATOM     10  C   UNL     1      -0.059   1.461  -0.584  0.00  0.00    +0.116 A 
ATOM     11  N   UNL     1      -1.188   2.129  -0.363  0.00  0.00    -0.225 NA
ENDROOT
BRANCH   7  12
ATOM     12  C   UNL     1       1.471  -1.984  -0.960  0.00  0.00    +0.136 A 
ATOM     13  C   UNL     1       2.116  -2.658  -1.950  0.00  0.00    +0.050 A 
ATOM     14  C   UNL     1       2.045  -4.027  -1.622  0.00  0.00    +0.042 A 
ATOM     15  C   UNL     1       1.368  -4.120  -0.462  0.00  0.00    +0.196 A 
ATOM     16  O   UNL     1       1.027  -2.883  -0.061  0.00  0.00    -0.463 OA
ENDBRANCH   7  12
BRANCH   1  17
ATOM     17  C   UNL     1      -3.579   2.291   0.050  0.00  0.00    +0.179 C 
BRANCH  17  27
ATOM     18  C   UNL     1      -3.859   4.857  -1.935  0.00  0.00    +0.028 C 
ATOM     19  C   UNL     1      -2.727   4.253  -1.102  0.00  0.00    +0.075 C 
ATOM     20  C   UNL     1      -1.744   5.351  -0.634  0.00  0.00    +0.059 C 
ATOM     21  C   UNL     1      -1.345   4.877   0.750  0.00  0.00    -0.025 A 
ATOM     22  C   UNL     1      -0.298   5.235   1.573  0.00  0.00    +0.005 A 
ATOM     23  C   UNL     1      -0.153   4.635   2.811  0.00  0.00    +0.000 A 
ATOM     24  C   UNL     1      -1.060   3.675   3.222  0.00  0.00    +0.002 A 
ATOM     25  C   UNL     1      -2.111   3.316   2.404  0.00  0.00    +0.023 A 
ATOM     26  C   UNL     1      -2.265   3.917   1.155  0.00  0.00    +0.034 A 
ATOM     27  N   UNL     1      -3.244   3.716   0.175  0.00  0.00    -0.319 N 
ENDBRANCH  17  27
ENDBRANCH   1  17
TORSDOF 3
