REMARK  Name = ZINC08182864
REMARK  7 active torsions:
REMARK  status: ('A' for Active; 'I' for Inactive)
REMARK    1  A    between atoms: C_1  and  C_2
REMARK    2  A    between atoms: C_3  and  N_9
REMARK    3  A    between atoms: N_9  and  C_10
REMARK    4  A    between atoms: C_10  and  N_12
REMARK    5  A    between atoms: N_12  and  N_13
REMARK    6  A    between atoms: C_14  and  C_15
REMARK    7  A    between atoms: C_19  and  N_21
REMARK                            x       y       z     vdW  Elec       q    Type
REMARK                         _______ _______ _______ _____ _____    ______ ____
ROOT
ATOM      1  N   UNL     1      -1.258   7.360  -0.336  0.00  0.00    -0.218 N 
ATOM      2  H   UNL     1      -0.463   7.837  -0.622  0.00  0.00    +0.176 HD
ENDROOT
BRANCH   1   3
ATOM      3  C   UNL     1      -2.451   7.985  -0.326  0.00  0.00    +0.154 C 
ATOM      4  S   UNL     1      -2.565   9.621  -0.817  0.00  0.00    -0.017 S 
BRANCH   3   5
ATOM      5  N   UNL     1      -3.556   7.322   0.071  0.00  0.00    -0.295 N 
ATOM      6  H   UNL     1      -3.506   6.375   0.273  0.00  0.00    +0.154 HD
BRANCH   5   9
ATOM      7  C   UNL     1      -5.894   6.083  -0.976  0.00  0.00    +0.047 C 
ATOM      8  C   UNL     1      -5.939   7.432  -0.306  0.00  0.00    -0.011 A 
ATOM      9  C   UNL     1      -4.773   8.001   0.192  0.00  0.00    +0.037 A 
ATOM     10  C   UNL     1      -4.818   9.246   0.803  0.00  0.00    +0.023 A 
ATOM     11  C   UNL     1      -6.021   9.914   0.921  0.00  0.00    +0.003 A 
ATOM     12  C   UNL     1      -7.181   9.344   0.431  0.00  0.00    +0.020 A 
ATOM     13  C   UNL     1      -7.140   8.102  -0.180  0.00  0.00    +0.046 A 
ATOM     14 CL   UNL     1      -8.599   7.390  -0.795  0.00  0.00    -0.083 Cl
ENDBRANCH   5   9
ENDBRANCH   3   5
ENDBRANCH   1   3
BRANCH   1  15
ATOM     15  N   UNL     1      -1.164   6.021   0.066  0.00  0.00    -0.188 NA
ATOM     16  C   UNL     1      -0.015   5.419   0.056  0.00  0.00    +0.138 C 
BRANCH  16  17
ATOM     17  C   UNL     1       0.083   4.009   0.479  0.00  0.00    -0.003 A 
ATOM     18  C   UNL     1      -1.060   3.319   0.891  0.00  0.00    +0.009 A 
ATOM     19  C   UNL     1      -0.962   2.000   1.279  0.00  0.00    +0.003 A 
ATOM     20  C   UNL     1       0.267   1.362   1.272  0.00  0.00    +0.033 A 
ATOM     21  C   UNL     1       1.403   2.040   0.866  0.00  0.00    +0.127 A 
ATOM     22  C   UNL     1       1.319   3.358   0.470  0.00  0.00    +0.042 A 
BRANCH  21  23
ATOM     23  N   UNL     1       2.711   1.348   0.857  0.00  0.00    +0.056 N 
ATOM     24  O   UNL     1       2.787   0.183   1.207  0.00  0.00    -0.126 OA
ATOM     25  O   UNL     1       3.712   1.943   0.500  0.00  0.00    -0.126 OA
ENDBRANCH  21  23
ENDBRANCH  16  17
ENDBRANCH   1  15
TORSDOF 6
