REMARK  Name = ZINC08995134
REMARK  4 active torsions:
REMARK  status: ('A' for Active; 'I' for Inactive)
REMARK    1  A    between atoms: C_1  and  C_2
REMARK    2  A    between atoms: C_5  and  S_8
REMARK    3  A    between atoms: S_8  and  C_9
REMARK    4  A    between atoms: C_9  and  C_10
REMARK                            x       y       z     vdW  Elec       q    Type
REMARK                         _______ _______ _______ _____ _____    ______ ____
ROOT
ATOM      1  C   UNL     1       0.097  -6.482   1.870  0.00  0.00    +0.060 A 
ATOM      2  C   UNL     1       1.247  -7.117   2.236  0.00  0.00    +0.094 A 
ATOM      3  C   UNL     1       1.241  -8.519   2.356  0.00  0.00    +0.253 A 
ATOM      4  N   UNL     1       0.094  -9.186   2.105  0.00  0.00    -0.295 N 
ATOM      5  C   UNL     1      -1.022  -8.498   1.744  0.00  0.00    +0.204 A 
ATOM      6  N   UNL     1      -1.010  -7.185   1.638  0.00  0.00    -0.220 NA
ATOM      7  N   UNL     1      -2.185  -9.184   1.490  0.00  0.00    -0.239 N 
ATOM      8  C   UNL     1      -3.325  -8.498   1.123  0.00  0.00    +0.295 A 
ATOM      9  N   UNL     1      -3.406  -7.200   0.982  0.00  0.00    -0.195 NA
ATOM     10  C   UNL     1      -4.676  -6.879   0.614  0.00  0.00    +0.111 A 
ATOM     11  C   UNL     1      -5.323  -5.675   0.331  0.00  0.00    +0.031 A 
ATOM     12  C   UNL     1      -6.654  -5.681  -0.024  0.00  0.00    +0.002 A 
ATOM     13  C   UNL     1      -7.354  -6.875  -0.101  0.00  0.00    +0.004 A 
ATOM     14  C   UNL     1      -6.727  -8.073   0.176  0.00  0.00    +0.048 A 
ATOM     15  C   UNL     1      -5.388  -8.085   0.534  0.00  0.00    +0.157 A 
ATOM     16  O   UNL     1      -4.513  -9.066   0.852  0.00  0.00    -0.424 OA
ATOM     17  O   UNL     1       2.252  -9.120   2.680  0.00  0.00    -0.268 OA
ATOM     18  H   UNL     1      -2.204 -10.150   1.569  0.00  0.00    +0.159 HD
ATOM     19  H   UNL     1       0.067 -10.153   2.181  0.00  0.00    +0.172 HD
ENDROOT
BRANCH   1  20
ATOM     20  C   UNL     1       0.077  -4.981   1.735  0.00  0.00    +0.130 C 
BRANCH  20  21
ATOM     21  S   UNL     1       0.062  -4.533  -0.023  0.00  0.00    -0.119 S 
BRANCH  21  26
ATOM     22  C   UNL     1      -0.018   1.503   0.010  0.00  0.00    +0.044 C 
ATOM     23  C   UNL     1       0.002  -0.004   0.002  0.00  0.00    -0.050 A 
ATOM     24  C   UNL     1       0.006  -0.687  -1.200  0.00  0.00    +0.004 A 
ATOM     25  C   UNL     1       0.024  -2.068  -1.212  0.00  0.00    +0.015 A 
ATOM     26  C   UNL     1       0.039  -2.771  -0.013  0.00  0.00    +0.008 A 
ATOM     27  C   UNL     1       0.036  -2.081   1.193  0.00  0.00    +0.015 A 
ATOM     28  C   UNL     1       0.023  -0.700   1.197  0.00  0.00    +0.004 A 
ENDBRANCH  21  26
ENDBRANCH  20  21
ENDBRANCH   1  20
TORSDOF 3
