REMARK  Name = ZINC39469702
REMARK  6 active torsions:
REMARK  status: ('A' for Active; 'I' for Inactive)
REMARK    1  A    between atoms: C_1  and  S_2
REMARK    2  A    between atoms: S_2  and  C_3
REMARK    3  A    between atoms: C_15  and  O_16
REMARK    4  A    between atoms: P_19  and  S_22
REMARK    5  A    between atoms: S_22  and  O_25
REMARK    6  A    between atoms: O_25  and  C_26
REMARK                            x       y       z     vdW  Elec       q    Type
REMARK                         _______ _______ _______ _____ _____    ______ ____
ROOT
ATOM      1  C   UNL     1       0.877  -0.427   1.472  0.00  0.00    +0.045 C 
ATOM      2  C   UNL     1       1.335   0.533   2.286  0.00  0.00    -0.006 C 
ATOM      3  C   UNL     1       2.089   0.150   3.531  0.00  0.00    +0.006 C 
ATOM      4  C   UNL     1       2.979   1.295   3.992  0.00  0.00    -0.046 C 
ATOM      5  N   UNL     1       3.992   1.623   2.975  0.00  0.00    +0.398 N 
ATOM      6  C   UNL     1       4.854   0.466   2.723  0.00  0.00    -0.020 C 
ATOM      7  C   UNL     1       4.017  -0.717   2.223  0.00  0.00    -0.002 C 
ATOM      8  C   UNL     1       2.964  -1.074   3.245  0.00  0.00    +0.019 C 
ATOM      9  C   UNL     1       2.102  -2.165   2.655  0.00  0.00    +0.023 C 
ATOM     10  C   UNL     1       1.108  -1.846   1.823  0.00  0.00    +0.126 C 
ATOM     11  C   UNL     1       5.896   0.765   1.638  0.00  0.00    +0.158 C 
ATOM     12  O   UNL     1       6.748   1.840   2.072  0.00  0.00    -0.301 OA
ATOM     13  P   UNL     1       6.033   3.193   2.625  0.00  0.00    +0.431 P 
ATOM     14  O   UNL     1       5.594   4.041   1.494  0.00  0.00    -0.246 OA
ATOM     15  N   UNL     1       4.726   2.669   3.495  0.00  0.00    -0.271 NA
ATOM     16  H   UNL     1       4.481   3.083   4.337  0.00  0.00    +0.113 HD
ATOM     17  H   UNL     1       3.537   1.917   2.124  0.00  0.00    -0.055 HD
ENDROOT
BRANCH  13  18
ATOM     18  S   UNL     1       7.364   4.270   3.876  0.00  0.00    +0.209 S 
ATOM     19  O   UNL     1       6.719   5.496   4.194  0.00  0.00    -0.126 OA
ATOM     20  O   UNL     1       7.809   3.361   4.873  0.00  0.00    -0.126 OA
BRANCH  18  21
ATOM     21  O   UNL     1       8.582   4.625   3.036  0.00  0.00    -0.339 OA
BRANCH  21  22
ATOM     22  C   UNL     1       8.369   5.634   2.151  0.00  0.00    +0.157 A 
ATOM     23  C   UNL     1       7.915   5.351   0.870  0.00  0.00    +0.048 A 
ATOM     24  C   UNL     1       7.699   6.379  -0.027  0.00  0.00    +0.004 A 
ATOM     25  C   UNL     1       7.934   7.688   0.349  0.00  0.00    +0.000 A 
ATOM     26  C   UNL     1       8.386   7.973   1.624  0.00  0.00    +0.004 A 
ATOM     27  C   UNL     1       8.599   6.949   2.527  0.00  0.00    +0.048 A 
ENDBRANCH  21  22
ENDBRANCH  18  21
ENDBRANCH  13  18
BRANCH   1  29
ATOM     28  C   UNL     1      -0.022   1.810   0.012  0.00  0.00    +0.090 C 
ATOM     29  S   UNL     1       0.002  -0.004   0.002  0.00  0.00    -0.125 S 
ENDBRANCH   1  29
BRANCH  10  30
ATOM     30  O   UNL     1       0.315  -2.817   1.297  0.00  0.00    -0.506 OA
ATOM     31  H   UNL     1      -0.373  -2.485   0.704  0.00  0.00    +0.292 HD
ENDBRANCH  10  30
TORSDOF 5
