REMARK  Name = ZINC18209178
REMARK  7 active torsions:
REMARK  status: ('A' for Active; 'I' for Inactive)
REMARK    1  A    between atoms: C_1  and  C_2
REMARK    2  A    between atoms: C_3  and  C_19
REMARK    3  A    between atoms: C_9  and  C_12
REMARK    4  A    between atoms: C_19  and  C_21
REMARK    5  A    between atoms: C_19  and  C_27
REMARK    6  A    between atoms: C_27  and  C_29
REMARK    7  A    between atoms: C_27  and  C_31
REMARK                            x       y       z     vdW  Elec       q    Type
REMARK                         _______ _______ _______ _____ _____    ______ ____
ROOT
ATOM      1  C   UNL     1       0.014   1.443   0.856  0.00  0.00    +0.065 C 
ATOM      2  C   UNL     1      -0.758   1.560  -0.433  0.00  0.00    +0.039 A 
ATOM      3  C   UNL     1      -0.975   2.699  -1.123  0.00  0.00    +0.048 A 
ATOM      4  C   UNL     1      -1.738   2.380  -2.269  0.00  0.00    +0.277 A 
ATOM      5  N   UNL     1      -1.968   1.051  -2.250  0.00  0.00    -0.194 N 
ATOM      6  N   UNL     1      -1.351   0.529  -1.105  0.00  0.00    -0.292 N 
ATOM      7  C   UNL     1      -2.682   0.329  -3.197  0.00  0.00    +0.196 A 
ATOM      8  N   UNL     1      -2.947  -0.963  -3.237  0.00  0.00    -0.221 NA
ATOM      9  C   UNL     1      -3.652  -1.491  -4.227  0.00  0.00    +0.080 A 
ATOM     10  C   UNL     1      -4.113  -0.681  -5.227  0.00  0.00    +0.077 A 
ATOM     11  S   UNL     1      -3.493   0.905  -4.682  0.00  0.00    -0.056 S 
ATOM     12  O   UNL     1      -2.119   3.163  -3.120  0.00  0.00    -0.265 OA
ATOM     13  H   UNL     1      -1.348  -0.403  -0.835  0.00  0.00    +0.187 HD
ENDROOT
BRANCH   9  14
ATOM     14  C   UNL     1      -3.937  -2.946  -4.250  0.00  0.00    +0.001 A 
ATOM     15  C   UNL     1      -4.673  -3.498  -5.297  0.00  0.00    +0.010 A 
ATOM     16  C   UNL     1      -4.936  -4.853  -5.314  0.00  0.00    +0.001 A 
ATOM     17  C   UNL     1      -4.470  -5.662  -4.293  0.00  0.00    +0.000 A 
ATOM     18  C   UNL     1      -3.739  -5.120  -3.251  0.00  0.00    +0.001 A 
ATOM     19  C   UNL     1      -3.465  -3.768  -3.228  0.00  0.00    +0.010 A 
ENDBRANCH   9  14
BRANCH   3  20
ATOM     20  C   UNL     1      -0.488   4.072  -0.737  0.00  0.00    +0.082 C 
BRANCH  20  21
ATOM     21  C   UNL     1      -1.670   4.956  -0.431  0.00  0.00    -0.038 A 
ATOM     22  C   UNL     1      -2.472   5.418  -1.458  0.00  0.00    +0.004 A 
ATOM     23  C   UNL     1      -3.556   6.229  -1.178  0.00  0.00    +0.000 A 
ATOM     24  C   UNL     1      -3.838   6.577   0.130  0.00  0.00    +0.000 A 
ATOM     25  C   UNL     1      -3.037   6.114   1.157  0.00  0.00    +0.000 A 
ATOM     26  C   UNL     1      -1.955   5.300   0.877  0.00  0.00    +0.004 A 
ENDBRANCH  20  21
BRANCH  20  27
ATOM     27  C   UNL     1       0.312   4.673  -1.895  0.00  0.00    +0.189 C 
BRANCH  27  28
ATOM     28  C   UNL     1       1.494   3.789  -2.201  0.00  0.00    +0.228 C 
ATOM     29  O   UNL     1       2.620   4.231  -2.115  0.00  0.00    -0.275 OA
ATOM     30  N   UNL     1       1.299   2.508  -2.570  0.00  0.00    -0.328 N 
ATOM     31  H   UNL     1       0.398   2.154  -2.639  0.00  0.00    +0.145 HD
ATOM     32  H   UNL     1       2.059   1.939  -2.767  0.00  0.00    +0.145 HD
ENDBRANCH  27  28
BRANCH  27  33
ATOM     33  C   UNL     1       0.787   6.015  -1.518  0.00  0.00    +0.076 C 
ATOM     34  N   UNL     1       1.153   7.050  -1.228  0.00  0.00    -0.196 NA
ENDBRANCH  27  33
ENDBRANCH  20  27
ENDBRANCH   3  20
TORSDOF 6
