REMARK  Name = ZINC13099541
REMARK  6 active torsions:
REMARK  status: ('A' for Active; 'I' for Inactive)
REMARK    1  A    between atoms: C_1  and  C_2
REMARK    2  A    between atoms: C_7  and  C_8
REMARK    3  A    between atoms: C_10  and  C_15
REMARK    4  A    between atoms: C_15  and  C_17
REMARK    5  A    between atoms: C_15  and  C_18
REMARK    6  A    between atoms: C_18  and  C_20
REMARK                            x       y       z     vdW  Elec       q    Type
REMARK                         _______ _______ _______ _____ _____    ______ ____
ROOT
ATOM      1  C   UNL     1      -1.296  -0.769   0.010  0.00  0.00    +0.044 C 
ATOM      2  C   UNL     1       0.002  -0.004   0.002  0.00  0.00    -0.045 A 
ATOM      3  C   UNL     1      -0.017   1.374   0.010  0.00  0.00    +0.031 A 
ATOM      4  C   UNL     1       1.181   2.082   0.002  0.00  0.00    +0.068 A 
ATOM      5  C   UNL     1       2.403   1.384  -0.013  0.00  0.00    +0.088 A 
ATOM      6  C   UNL     1       2.394  -0.019  -0.020  0.00  0.00    +0.033 A 
ATOM      7  C   UNL     1       1.208  -0.693  -0.013  0.00  0.00    -0.045 A 
ATOM      8  C   UNL     1       1.206  -2.200  -0.020  0.00  0.00    +0.044 C 
ATOM      9  N   UNL     1       3.573   2.052  -0.021  0.00  0.00    -0.244 NA
ATOM     10  C   UNL     1       3.603   3.354  -0.015  0.00  0.00    +0.116 A 
ATOM     11  C   UNL     1       2.354   4.122   0.001  0.00  0.00    +0.271 A 
ATOM     12  O   UNL     1       2.379   5.340   0.006  0.00  0.00    -0.266 OA
ATOM     13  N   UNL     1       1.175   3.463   0.009  0.00  0.00    -0.319 N 
ATOM     14  H   UNL     1       0.220   4.008   0.021  0.00  0.00    +0.169 HD
ENDROOT
BRANCH  10  15
ATOM     15  C   UNL     1       4.927   4.074  -0.024  0.00  0.00    +0.111 C 
ATOM     16  C   UNL     1       5.097   4.846   1.286  0.00  0.00    +0.022 C 
BRANCH  15  17
ATOM     17  C   UNL     1       6.044   3.071  -0.164  0.00  0.00    +0.172 C 
ATOM     18  O   UNL     1       5.878   1.925   0.196  0.00  0.00    -0.291 OA
BRANCH  17  19
ATOM     19  C   UNL     1       7.334   3.482  -0.737  0.00  0.00    +0.018 A 
ATOM     20  C   UNL     1       7.527   4.802  -1.159  0.00  0.00    +0.013 A 
ATOM     21  C   UNL     1       8.741   5.181  -1.690  0.00  0.00    +0.020 A 
ATOM     22  C   UNL     1       9.765   4.257  -1.817  0.00  0.00    +0.041 A 
ATOM     23  C   UNL     1       9.579   2.946  -1.407  0.00  0.00    +0.020 A 
ATOM     24  C   UNL     1       8.373   2.554  -0.868  0.00  0.00    +0.013 A 
ATOM     25 CL   UNL     1      11.288   4.742  -2.494  0.00  0.00    -0.084 Cl
ENDBRANCH  17  19
ENDBRANCH  15  17
ENDBRANCH  10  15
TORSDOF 3
