REMARK  Name = ZINC06868136
REMARK  4 active torsions:
REMARK  status: ('A' for Active; 'I' for Inactive)
REMARK    1  A    between atoms: C_4  and  N_7
REMARK    2  A    between atoms: C_8  and  N_24
REMARK    3  A    between atoms: C_9  and  C_12
REMARK    4  A    between atoms: C_14  and  C_17
REMARK                            x       y       z     vdW  Elec       q    Type
REMARK                         _______ _______ _______ _____ _____    ______ ____
ROOT
ATOM      1  N   UNL     1      -1.399   2.992   0.030  0.00  0.00    -0.198 N 
ATOM      2  C   UNL     1      -1.218   1.641   0.017  0.00  0.00    +0.153 A 
ATOM      3  C   UNL     1      -2.486   1.078   0.020  0.00  0.00    +0.191 A 
ATOM      4  N   UNL     1      -3.387   2.077   0.030  0.00  0.00    -0.122 NA
ATOM      5  N   UNL     1      -2.783   3.213   0.032  0.00  0.00    -0.058 NA
ENDROOT
BRANCH   1   9
ATOM      6  C   UNL     1       1.586   5.902   0.054  0.00  0.00    +0.000 A 
ATOM      7  C   UNL     1       0.405   6.130  -0.629  0.00  0.00    +0.002 A 
ATOM      8  C   UNL     1      -0.586   5.168  -0.639  0.00  0.00    +0.028 A 
ATOM      9  C   UNL     1      -0.395   3.971   0.038  0.00  0.00    +0.069 A 
ATOM     10  C   UNL     1       0.789   3.747   0.728  0.00  0.00    +0.028 A 
ATOM     11  C   UNL     1       1.778   4.711   0.729  0.00  0.00    +0.002 A 
ENDBRANCH   1   9
BRANCH   3  12
ATOM     12  C   UNL     1      -2.792  -0.361   0.014  0.00  0.00    +0.282 A 
ATOM     13  N   UNL     1      -3.995  -0.911   0.017  0.00  0.00    -0.186 NA
ATOM     14  C   UNL     1      -3.782  -2.243   0.009  0.00  0.00    +0.204 A 
ATOM     15  N   UNL     1      -2.487  -2.432   0.001  0.00  0.00    -0.056 NA
ATOM     16  O   UNL     1      -1.904  -1.369  -0.002  0.00  0.00    -0.331 OA
BRANCH  14  17
ATOM     17  C   UNL     1      -4.824  -3.300   0.009  0.00  0.00    +0.041 A 
ATOM     18  C   UNL     1      -6.173  -2.952   0.023  0.00  0.00    +0.013 A 
ATOM     19  C   UNL     1      -7.138  -3.939   0.018  0.00  0.00    +0.001 A 
ATOM     20  C   UNL     1      -6.768  -5.272   0.009  0.00  0.00    +0.001 A 
ATOM     21  C   UNL     1      -5.431  -5.624  -0.000  0.00  0.00    +0.021 A 
ATOM     22  C   UNL     1      -4.457  -4.645  -0.001  0.00  0.00    +0.052 A 
ATOM     23 CL   UNL     1      -2.778  -5.088  -0.011  0.00  0.00    -0.083 Cl
ENDBRANCH  14  17
ENDBRANCH   3  12
BRANCH   2  24
ATOM     24  N   UNL     1      -0.011   0.966   0.007  0.00  0.00    -0.341 N 
ATOM     25  H   UNL     1       0.002  -0.004   0.002  0.00  0.00    +0.144 HD
ATOM     26  H   UNL     1       0.822   1.462   0.002  0.00  0.00    +0.144 HD
ENDBRANCH   2  24
TORSDOF 4
