REMARK  Name = ZINC63696022
REMARK  6 active torsions:
REMARK  status: ('A' for Active; 'I' for Inactive)
REMARK    1  A    between atoms: C_5  and  N_7
REMARK    2  A    between atoms: N_10  and  C_13
REMARK    3  A    between atoms: C_13  and  C_14
REMARK    4  A    between atoms: C_14  and  N_15
REMARK    5  A    between atoms: C_16  and  C_18
REMARK    6  A    between atoms: N_23  and  C_25
REMARK                            x       y       z     vdW  Elec       q    Type
REMARK                         _______ _______ _______ _____ _____    ______ ____
ROOT
ATOM      1  N   UNL     1       3.901  -7.817  -1.206  0.00  0.00    -0.314 N 
ATOM      2  C   UNL     1       3.812  -8.791  -2.133  0.00  0.00    +0.217 C 
ATOM      3  O   UNL     1       2.924  -8.764  -2.958  0.00  0.00    -0.275 OA
ATOM      4  H   UNL     1       4.612  -7.838  -0.546  0.00  0.00    +0.149 HD
ENDROOT
BRANCH   2   5
ATOM      5  C   UNL     1       4.817  -9.914  -2.144  0.00  0.00    +0.089 C 
ATOM      6  C   UNL     1       4.757 -10.667  -0.812  0.00  0.00    +0.015 C 
ATOM      7  C   UNL     1       5.738 -11.842  -0.855  0.00  0.00    +0.016 C 
ATOM      8  C   UNL     1       5.385 -12.752  -2.033  0.00  0.00    +0.088 C 
ATOM      9  N   UNL     1       5.457 -11.986  -3.284  0.00  0.00    -0.265 NA
ATOM     10  C   UNL     1       4.491 -10.880  -3.286  0.00  0.00    +0.100 C 
BRANCH   9  11
ATOM     11  C   UNL     1       5.260 -12.859  -4.449  0.00  0.00    +0.252 C 
ATOM     12  N   UNL     1       3.927 -13.473  -4.398  0.00  0.00    -0.351 N 
ATOM     13  C   UNL     1       4.092 -14.763  -4.347  0.00  0.00    +0.061 A 
ATOM     14  C   UNL     1       3.150 -15.889  -4.281  0.00  0.00    +0.029 A 
ATOM     15  C   UNL     1       3.622 -17.150  -4.236  0.00  0.00    +0.022 A 
ATOM     16  C   UNL     1       4.999 -17.445  -4.248  0.00  0.00    +0.043 A 
ATOM     17  C   UNL     1       5.947 -16.487  -4.306  0.00  0.00    +0.047 A 
ATOM     18  C   UNL     1       5.548 -15.075  -4.360  0.00  0.00    +0.063 A 
ATOM     19  N   UNL     1       6.227 -13.964  -4.420  0.00  0.00    -0.351 N 
ATOM     20 CL   UNL     1       5.496 -19.107  -4.185  0.00  0.00    -0.083 Cl
ATOM     21  H   UNL     1       3.078 -13.003  -4.402  0.00  0.00    +0.163 HD
ATOM     22  H   UNL     1       7.193 -13.881  -4.442  0.00  0.00    +0.163 HD
ENDBRANCH   9  11
ENDBRANCH   2   5
BRANCH   1  23
ATOM     23  C   UNL     1       2.925  -6.725  -1.195  0.00  0.00    +0.119 C 
BRANCH  23  24
ATOM     24  C   UNL     1       3.250  -5.761  -0.052  0.00  0.00    +0.103 C 
BRANCH  24  28
ATOM     25  N   UNL     1       1.236  -2.079  -0.021  0.00  0.00    -0.325 N 
ATOM     26  C   UNL     1       1.254  -2.841   1.237  0.00  0.00    +0.120 C 
ATOM     27  C   UNL     1       2.403  -3.854   1.175  0.00  0.00    +0.103 C 
ATOM     28  N   UNL     1       2.270  -4.667  -0.041  0.00  0.00    -0.298 NA
ATOM     29  C   UNL     1       2.391  -3.840  -1.250  0.00  0.00    +0.103 C 
ATOM     30  C   UNL     1       1.236  -2.827  -1.288  0.00  0.00    +0.120 C 
BRANCH  25  35
ATOM     31  C   UNL     1      -0.017   1.377   0.010  0.00  0.00    +0.002 A 
ATOM     32  C   UNL     1       1.170   2.087   0.002  0.00  0.00    +0.003 A 
ATOM     33  C   UNL     1       2.380   1.418  -0.013  0.00  0.00    +0.040 A 
ATOM     34  C   UNL     1       2.406   0.035  -0.021  0.00  0.00    +0.144 A 
ATOM     35  C   UNL     1       1.214  -0.681  -0.013  0.00  0.00    +0.065 A 
ATOM     36  C   UNL     1       0.002  -0.004   0.002  0.00  0.00    +0.026 A 
ATOM     37  F   UNL     1       3.588  -0.619  -0.036  0.00  0.00    -0.204 F 
ENDBRANCH  25  35
ENDBRANCH  24  28
ENDBRANCH  23  24
ENDBRANCH   1  23
TORSDOF 6
