REMARK  Name = ZINC20463832
REMARK  10 active torsions:
REMARK  status: ('A' for Active; 'I' for Inactive)
REMARK    1  A    between atoms: C_1  and  O_2
REMARK    2  A    between atoms: O_2  and  C_3
REMARK    3  A    between atoms: C_8  and  C_9
REMARK    4  A    between atoms: C_9  and  N_10
REMARK    5  A    between atoms: N_10  and  C_11
REMARK    6  A    between atoms: C_20  and  N_25
REMARK    7  A    between atoms: C_22  and  O_24
REMARK    8  A    between atoms: N_28  and  C_31
REMARK    9  A    between atoms: C_36  and  O_37
REMARK   10  A    between atoms: O_37  and  C_38
REMARK                            x       y       z     vdW  Elec       q    Type
REMARK                         _______ _______ _______ _____ _____    ______ ____
ROOT
ATOM      1  C   UNL     1       1.722  -3.824   1.282  0.00  0.00    -0.009 C 
ATOM      2  C   UNL     1       1.411  -5.305   1.011  0.00  0.00    +0.136 C 
ATOM      3  C   UNL     1       2.675  -6.123   1.367  0.00  0.00    +0.193 C 
ATOM      4  O   UNL     1       2.518  -6.463   2.756  0.00  0.00    -0.347 OA
ATOM      5  C   UNL     1       1.287  -5.862   3.199  0.00  0.00    +0.270 C 
ATOM      6  O   UNL     1       0.448  -5.729   2.008  0.00  0.00    -0.346 OA
ATOM      7  C   UNL     1       1.602  -4.452   3.722  0.00  0.00    +0.140 C 
ATOM      8  C   UNL     1       2.412  -3.707   2.646  0.00  0.00    +0.125 C 
ENDROOT
BRANCH   7   9
ATOM      9  N   UNL     1       0.349  -3.722   3.957  0.00  0.00    -0.290 NA
ATOM     10  C   UNL     1       0.610  -2.410   4.564  0.00  0.00    +0.104 C 
ATOM     11  C   UNL     1      -0.696  -1.611   4.626  0.00  0.00    +0.120 C 
ATOM     12  N   UNL     1      -1.709  -2.425   5.315  0.00  0.00    -0.325 N 
ATOM     13  C   UNL     1      -1.930  -3.802   4.849  0.00  0.00    +0.120 C 
ATOM     14  C   UNL     1      -0.575  -4.515   4.779  0.00  0.00    +0.104 C 
BRANCH  12  15
ATOM     15  C   UNL     1      -2.444  -1.902   6.385  0.00  0.00    +0.072 A 
ATOM     16  C   UNL     1      -3.649  -1.254   6.152  0.00  0.00    +0.027 A 
ATOM     17  C   UNL     1      -4.373  -0.739   7.210  0.00  0.00    +0.002 A 
ATOM     18  C   UNL     1      -3.900  -0.868   8.503  0.00  0.00    +0.004 A 
ATOM     19  C   UNL     1      -2.700  -1.512   8.744  0.00  0.00    +0.047 A 
ATOM     20  C   UNL     1      -1.971  -2.035   7.689  0.00  0.00    +0.141 A 
BRANCH  20  21
ATOM     21  O   UNL     1      -0.793  -2.673   7.925  0.00  0.00    -0.493 OA
ATOM     22  C   UNL     1      -0.371  -2.772   9.286  0.00  0.00    +0.277 C 
ENDBRANCH  20  21
ENDBRANCH  12  15
ENDBRANCH   7   9
BRANCH   1  23
ATOM     23  N   UNL     1       0.472  -3.052   1.294  0.00  0.00    +0.387 N 
ATOM     24  H   UNL     1       0.668  -2.098   1.559  0.00  0.00    -0.085 HD
ATOM     25  H   UNL     1      -0.169  -3.460   1.958  0.00  0.00    -0.085 HD
BRANCH  23  26
ATOM     26  C   UNL     1      -0.131  -3.074  -0.045  0.00  0.00    -0.042 C 
BRANCH  26  32
ATOM     27  C   UNL     1      -1.375  -0.898  -0.111  0.00  0.00    +0.121 A 
ATOM     28  C   UNL     1      -2.557  -0.172  -0.104  0.00  0.00    +0.046 A 
ATOM     29  C   UNL     1      -3.769  -0.829  -0.014  0.00  0.00    +0.004 A 
ATOM     30  C   UNL     1      -3.804  -2.209   0.069  0.00  0.00    +0.000 A 
ATOM     31  C   UNL     1      -2.627  -2.934   0.063  0.00  0.00    +0.005 A 
ATOM     32  C   UNL     1      -1.413  -2.282  -0.032  0.00  0.00    -0.023 A 
BRANCH  27  34
ATOM     33  C   UNL     1      -0.218   1.173  -0.277  0.00  0.00    +0.277 C 
ATOM     34  O   UNL     1      -0.181  -0.254  -0.200  0.00  0.00    -0.495 OA
ENDBRANCH  27  34
ENDBRANCH  26  32
ENDBRANCH  23  26
ENDBRANCH   1  23
BRANCH   8  35
ATOM     35  O   UNL     1       3.708  -4.307   2.577  0.00  0.00    -0.392 OA
ATOM     36  H   UNL     1       4.202  -4.270   3.407  0.00  0.00    +0.210 HD
ENDBRANCH   8  35
TORSDOF 8
