REMARK  Name = ZINC19221556
REMARK  9 active torsions:
REMARK  status: ('A' for Active; 'I' for Inactive)
REMARK    1  A    between atoms: C_1  and  C_2
REMARK    2  A    between atoms: C_9  and  C_12
REMARK    3  A    between atoms: C_12  and  C_13
REMARK    4  A    between atoms: C_13  and  C_14
REMARK    5  A    between atoms: C_17  and  N_20
REMARK    6  A    between atoms: N_20  and  S_21
REMARK    7  A    between atoms: S_21  and  C_24
REMARK    8  A    between atoms: N_27  and  C_30
REMARK    9  A    between atoms: C_28  and  C_29
REMARK                            x       y       z     vdW  Elec       q    Type
REMARK                         _______ _______ _______ _____ _____    ______ ____
ROOT
ATOM      1  C   UNL     1       2.656   0.352   0.024  0.00  0.00    -0.047 A 
ATOM      2  C   UNL     1       1.529  -0.445  -0.062  0.00  0.00    +0.005 A 
ATOM      3  C   UNL     1       0.273   0.129  -0.061  0.00  0.00    +0.025 A 
ATOM      4  C   UNL     1       0.142   1.509   0.026  0.00  0.00    +0.048 A 
ATOM      5  C   UNL     1       1.276   2.308   0.112  0.00  0.00    +0.025 A 
ATOM      6  C   UNL     1       2.529   1.727   0.110  0.00  0.00    +0.005 A 
ENDROOT
BRANCH   4   7
ATOM      7  N   UNL     1      -1.126   2.094   0.022  0.00  0.00    -0.216 N 
ATOM      8  H   UNL     1      -1.877   1.772  -0.715  0.00  0.00    +0.174 HD
BRANCH   7   9
ATOM      9  S   UNL     1      -1.500   3.271   1.125  0.00  0.00    +0.076 S 
ATOM     10  O   UNL     1      -0.479   4.255   1.031  0.00  0.00    -0.150 OA
ATOM     11  O   UNL     1      -2.875   3.579   0.941  0.00  0.00    -0.150 OA
BRANCH   9  12
ATOM     12  C   UNL     1      -1.356   2.548   2.726  0.00  0.00    +0.149 A 
ATOM     13  C   UNL     1      -0.437   2.914   3.714  0.00  0.00    +0.163 A 
ATOM     14  N   UNL     1      -0.640   2.157   4.762  0.00  0.00    -0.178 NA
ATOM     15  N   UNL     1      -1.690   1.277   4.469  0.00  0.00    -0.270 N 
ATOM     16  C   UNL     1      -2.112   1.538   3.214  0.00  0.00    +0.062 A 
ATOM     17  C   UNL     1      -3.226   0.830   2.486  0.00  0.00    +0.067 C 
ATOM     18  C   UNL     1      -2.234   0.255   5.366  0.00  0.00    +0.172 C 
ENDBRANCH   9  12
ENDBRANCH   7   9
ENDBRANCH   4   7
BRANCH   1  19
ATOM     19  C   UNL     1       4.025  -0.278   0.022  0.00  0.00    +0.043 C 
BRANCH  19  20
ATOM     20  C   UNL     1       4.530  -0.396  -1.418  0.00  0.00    +0.079 C 
BRANCH  20  29
ATOM     21  C   UNL     1      11.612  -2.329  -0.452  0.00  0.00    +0.044 C 
ATOM     22  C   UNL     1      10.188  -2.343  -0.943  0.00  0.00    -0.048 A 
ATOM     23  C   UNL     1       9.773  -3.337  -1.818  0.00  0.00    +0.005 A 
ATOM     24  C   UNL     1       8.474  -3.366  -2.278  0.00  0.00    +0.028 A 
ATOM     25  C   UNL     1       7.576  -2.392  -1.862  0.00  0.00    +0.066 A 
ATOM     26  C   UNL     1       7.996  -1.386  -0.976  0.00  0.00    +0.089 A 
ATOM     27  C   UNL     1       9.318  -1.377  -0.523  0.00  0.00    +0.033 A 
ATOM     28  N   UNL     1       6.924  -0.583  -0.752  0.00  0.00    -0.232 NA
ATOM     29  C   UNL     1       5.899  -1.026  -1.419  0.00  0.00    +0.108 A 
ATOM     30  N   UNL     1       6.244  -2.137  -2.124  0.00  0.00    -0.342 N 
ATOM     31  H   UNL     1       5.681  -2.796  -2.801  0.00  0.00    +0.167 HD
ENDBRANCH  20  29
ENDBRANCH  19  20
ENDBRANCH   1  19
TORSDOF 6
