REMARK  Name = ZINC59016275
REMARK  6 active torsions:
REMARK  status: ('A' for Active; 'I' for Inactive)
REMARK    1  A    between atoms: C_4  and  C_7
REMARK    2  A    between atoms: C_8  and  C_9
REMARK    3  A    between atoms: N_10  and  N_11
REMARK    4  A    between atoms: C_14  and  S_17
REMARK    5  A    between atoms: S_17  and  C_18
REMARK    6  A    between atoms: C_18  and  C_19
REMARK                            x       y       z     vdW  Elec       q    Type
REMARK                         _______ _______ _______ _____ _____    ______ ____
ROOT
ATOM      1  N   UNL     1       6.199  -4.700  -0.084  0.00  0.00    -0.205 N 
ATOM      2  C   UNL     1       6.222  -6.082  -0.092  0.00  0.00    +0.232 A 
ATOM      3  N   UNL     1       5.170  -6.874  -0.091  0.00  0.00    -0.186 NA
ATOM      4  C   UNL     1       5.568  -8.150  -0.100  0.00  0.00    +0.211 A 
ATOM      5  N   UNL     1       6.879  -8.188  -0.106  0.00  0.00    -0.144 NA
ATOM      6  N   UNL     1       7.327  -6.858  -0.107  0.00  0.00    -0.245 N 
ATOM      7  H   UNL     1       7.031  -4.201  -0.089  0.00  0.00    +0.177 HD
ATOM      8  H   UNL     1       8.249  -6.555  -0.114  0.00  0.00    +0.192 HD
ENDROOT
BRANCH   1  10
ATOM      9  C   UNL     1       4.953  -2.717  -0.061  0.00  0.00    +0.130 C 
ATOM     10  N   UNL     1       4.974  -4.019  -0.068  0.00  0.00    -0.188 NA
BRANCH   9  12
ATOM     11  C   UNL     1       3.691  -0.680  -0.037  0.00  0.00    +0.009 C 
ATOM     12  C   UNL     1       3.714  -2.029  -0.045  0.00  0.00    +0.022 C 
BRANCH  11  16
ATOM     13  C   UNL     1      -0.017   1.380   0.010  0.00  0.00    +0.000 A 
ATOM     14  C   UNL     1       1.168   2.095   0.002  0.00  0.00    +0.001 A 
ATOM     15  C   UNL     1       2.377   1.433  -0.013  0.00  0.00    +0.008 A 
ATOM     16  C   UNL     1       2.405   0.035  -0.021  0.00  0.00    -0.025 A 
ATOM     17  C   UNL     1       1.203  -0.681  -0.013  0.00  0.00    +0.008 A 
ATOM     18  C   UNL     1       0.002  -0.004   0.002  0.00  0.00    +0.001 A 
ENDBRANCH  11  16
ENDBRANCH   9  12
ENDBRANCH   1  10
BRANCH   4  19
ATOM     19  S   UNL     1       4.503  -9.554  -0.102  0.00  0.00    -0.075 S 
BRANCH  19  20
ATOM     20  C   UNL     1       5.640 -10.967  -0.115  0.00  0.00    +0.173 C 
BRANCH  20  21
ATOM     21  C   UNL     1       4.848 -12.249  -0.118  0.00  0.00    +0.229 C 
ATOM     22  O   UNL     1       3.636 -12.213  -0.112  0.00  0.00    -0.275 OA
ATOM     23  N   UNL     1       5.487 -13.436  -0.128  0.00  0.00    -0.264 N 
ATOM     24  C   UNL     1       4.758 -14.615  -0.131  0.00  0.00    +0.165 A 
ATOM     25  N   UNL     1       3.456 -14.778  -0.131  0.00  0.00    -0.225 NA
ATOM     26  C   UNL     1       2.877 -15.998  -0.134  0.00  0.00    +0.080 A 
ATOM     27  C   UNL     1       1.498 -16.310  -0.134  0.00  0.00    +0.029 A 
ATOM     28  C   UNL     1       1.075 -17.614  -0.137  0.00  0.00    +0.002 A 
ATOM     29  C   UNL     1       1.976 -18.668  -0.140  0.00  0.00    +0.001 A 
ATOM     30  C   UNL     1       3.333 -18.400  -0.140  0.00  0.00    +0.017 A 
ATOM     31  C   UNL     1       3.766 -17.097  -0.137  0.00  0.00    +0.041 A 
ATOM     32  S   UNL     1       5.354 -16.300  -0.142  0.00  0.00    -0.052 S 
ATOM     33  H   UNL     1       6.456 -13.465  -0.133  0.00  0.00    +0.157 HD
ENDBRANCH  20  21
ENDBRANCH  19  20
ENDBRANCH   4  19
TORSDOF 6
