REMARK  Name = ZINC40173970
REMARK  11 active torsions:
REMARK  status: ('A' for Active; 'I' for Inactive)
REMARK    1  A    between atoms: C_1  and  C_2
REMARK    2  A    between atoms: C_2  and  C_3
REMARK    3  A    between atoms: C_3  and  C_5
REMARK    4  A    between atoms: C_3  and  N_20
REMARK    5  A    between atoms: C_10  and  C_13
REMARK    6  A    between atoms: C_16  and  C_19
REMARK    7  A    between atoms: C_24  and  S_25
REMARK    8  A    between atoms: S_25  and  C_26
REMARK    9  A    between atoms: C_26  and  C_27
REMARK   10  A    between atoms: C_27  and  O_29
REMARK   11  A    between atoms: O_29  and  C_30
REMARK                            x       y       z     vdW  Elec       q    Type
REMARK                         _______ _______ _______ _____ _____    ______ ____
ROOT
ATOM      1  C   UNL     1       0.718  -0.497  -1.257  0.00  0.00    +0.178 C 
ENDROOT
BRANCH   1   2
ATOM      2  C   UNL     1       0.632  -2.000  -1.327  0.00  0.00    +0.242 C 
ATOM      3  O   UNL     1       1.645  -2.666  -1.337  0.00  0.00    -0.273 OA
ATOM      4  N   UNL     1      -0.572  -2.604  -1.380  0.00  0.00    -0.263 N 
ATOM      5  C   UNL     1      -0.652  -3.990  -1.445  0.00  0.00    +0.165 A 
ATOM      6  N   UNL     1      -1.720  -4.763  -1.508  0.00  0.00    -0.225 NA
ATOM      7  C   UNL     1      -1.612  -6.082  -1.566  0.00  0.00    +0.080 A 
ATOM      8  C   UNL     1      -0.370  -6.654  -1.561  0.00  0.00    +0.076 A 
ATOM      9  S   UNL     1       0.665  -5.199  -1.474  0.00  0.00    -0.060 S 
ATOM     10  H   UNL     1      -1.383  -2.072  -1.372  0.00  0.00    +0.157 HD
BRANCH   7  11
ATOM     11  C   UNL     1      -2.827  -6.930  -1.635  0.00  0.00    +0.001 A 
ATOM     12  C   UNL     1      -2.709  -8.318  -1.690  0.00  0.00    +0.010 A 
ATOM     13  C   UNL     1      -3.842  -9.102  -1.754  0.00  0.00    +0.004 A 
ATOM     14  C   UNL     1      -5.094  -8.513  -1.766  0.00  0.00    -0.050 A 
ATOM     15  C   UNL     1      -5.217  -7.136  -1.712  0.00  0.00    +0.004 A 
ATOM     16  C   UNL     1      -4.091  -6.343  -1.640  0.00  0.00    +0.010 A 
ATOM     17  C   UNL     1      -6.329  -9.375  -1.837  0.00  0.00    +0.044 C 
ENDBRANCH   7  11
ENDBRANCH   1   2
BRANCH   1  18
ATOM     18  N   UNL     1       2.125  -0.091  -1.209  0.00  0.00    -0.279 N 
ATOM     19  C   UNL     1       3.032  -0.447  -0.252  0.00  0.00    +0.216 A 
ATOM     20  N   UNL     1       4.179   0.110  -0.553  0.00  0.00    -0.113 NA
ATOM     21  N   UNL     1       4.008   0.843  -1.734  0.00  0.00    -0.121 NA
ATOM     22  C   UNL     1       2.762   0.706  -2.119  0.00  0.00    +0.194 A 
ATOM     23  N   UNL     1       2.781  -1.258   0.848  0.00  0.00    -0.328 N 
ATOM     24  H   UNL     1       1.895  -1.626   0.988  0.00  0.00    +0.145 HD
ATOM     25  H   UNL     1       3.493  -1.455   1.477  0.00  0.00    +0.145 HD
BRANCH  22  26
ATOM     26  S   UNL     1       2.035   1.426  -3.553  0.00  0.00    -0.075 S 
BRANCH  26  27
ATOM     27  C   UNL     1       3.396   2.352  -4.316  0.00  0.00    +0.197 C 
BRANCH  27  28
ATOM     28  C   UNL     1       2.903   3.026  -5.571  0.00  0.00    +0.317 C 
ATOM     29  O   UNL     1       1.752   2.895  -5.915  0.00  0.00    -0.250 OA
BRANCH  28  30
ATOM     30  O   UNL     1       3.743   3.772  -6.306  0.00  0.00    -0.467 OA
ATOM     31  C   UNL     1       3.208   4.381  -7.483  0.00  0.00    +0.280 C 
ENDBRANCH  28  30
ENDBRANCH  27  28
ENDBRANCH  26  27
ENDBRANCH  22  26
ENDBRANCH   1  18
BRANCH   1  33
ATOM     32  C   UNL     1      -0.019   1.526   0.010  0.00  0.00    +0.006 C 
ATOM     33  C   UNL     1       0.002  -0.004   0.002  0.00  0.00    +0.031 C 
ENDBRANCH   1  33
TORSDOF 8
