REMARK  Name = ZINC20703299
REMARK  7 active torsions:
REMARK  status: ('A' for Active; 'I' for Inactive)
REMARK    1  A    between atoms: C_1  and  N_2
REMARK    2  A    between atoms: N_5  and  S_8
REMARK    3  A    between atoms: S_8  and  C_11
REMARK    4  A    between atoms: C_24  and  C_27
REMARK    5  A    between atoms: C_30  and  O_33
REMARK    6  A    between atoms: O_33  and  C_34
REMARK    7  A    between atoms: C_34  and  C_35
REMARK                            x       y       z     vdW  Elec       q    Type
REMARK                         _______ _______ _______ _____ _____    ______ ____
ROOT
ATOM      1  C   UNL     1       3.059   5.018   1.088  0.00  0.00    +0.106 A 
ATOM      2  C   UNL     1       2.161   5.918   0.543  0.00  0.00    +0.030 A 
ATOM      3  C   UNL     1       1.065   5.464  -0.161  0.00  0.00    +0.025 A 
ATOM      4  C   UNL     1       0.854   4.101  -0.329  0.00  0.00    +0.031 A 
ATOM      5  C   UNL     1       1.773   3.196   0.215  0.00  0.00    -0.018 A 
ATOM      6  C   UNL     1       2.862   3.660   0.921  0.00  0.00    +0.034 A 
ATOM      7  C   UNL     1       1.523   1.755  -0.003  0.00  0.00    +0.049 C 
ATOM      8  C   UNL     1       2.026   0.720   0.936  0.00  0.00    -0.023 C 
ATOM      9  C   UNL     1       1.177  -0.301   0.935  0.00  0.00    -0.030 C 
ATOM     10  C   UNL     1       0.002  -0.004   0.002  0.00  0.00    +0.033 C 
ATOM     11  C   UNL     1      -0.019   1.530   0.011  0.00  0.00    +0.029 C 
ATOM     12  C   UNL     1      -0.539   2.223  -1.236  0.00  0.00    +0.105 C 
ATOM     13  N   UNL     1      -0.276   3.664  -1.030  0.00  0.00    -0.336 N 
ATOM     14  H   UNL     1      -0.975   4.414  -1.430  0.00  0.00    +0.147 HD
ENDROOT
BRANCH  12  15
ATOM     15  C   UNL     1      -2.019   1.980  -1.387  0.00  0.00    -0.027 A 
ATOM     16  C   UNL     1      -2.919   2.722  -0.645  0.00  0.00    +0.009 A 
ATOM     17  C   UNL     1      -4.277   2.506  -0.786  0.00  0.00    +0.046 A 
ATOM     18  C   UNL     1      -4.735   1.535  -1.665  0.00  0.00    +0.121 A 
ATOM     19  C   UNL     1      -3.830   0.788  -2.404  0.00  0.00    +0.046 A 
ATOM     20  C   UNL     1      -2.474   1.012  -2.264  0.00  0.00    +0.009 A 
BRANCH  18  21
ATOM     21  O   UNL     1      -6.070   1.316  -1.801  0.00  0.00    -0.487 OA
BRANCH  21  22
ATOM     22  C   UNL     1      -6.944   2.123  -1.008  0.00  0.00    +0.264 C 
BRANCH  22  23
ATOM     23  C   UNL     1      -8.374   1.741  -1.291  0.00  0.00    -0.010 A 
ATOM     24  C   UNL     1      -9.075   2.384  -2.294  0.00  0.00    +0.007 A 
ATOM     25  C   UNL     1     -10.386   2.031  -2.556  0.00  0.00    +0.000 A 
ATOM     26  C   UNL     1     -10.997   1.041  -1.810  0.00  0.00    +0.000 A 
ATOM     27  C   UNL     1     -10.297   0.401  -0.804  0.00  0.00    +0.000 A 
ATOM     28  C   UNL     1      -8.986   0.751  -0.544  0.00  0.00    +0.007 A 
ENDBRANCH  22  23
ENDBRANCH  21  22
ENDBRANCH  18  21
ENDBRANCH  12  15
BRANCH   1  29
ATOM     29  S   UNL     1       4.454   5.602   1.992  0.00  0.00    +0.061 S 
ATOM     30  O   UNL     1       5.435   4.576   1.933  0.00  0.00    -0.153 OA
ATOM     31  O   UNL     1       4.707   6.925   1.540  0.00  0.00    -0.153 OA
BRANCH  29  36
ATOM     32  C   UNL     1       1.170   5.367   6.663  0.00  0.00    -0.096 C 
ATOM     33  N   UNL     1       2.359   5.596   5.832  0.00  0.00    +0.380 N 
ATOM     34  C   UNL     1       2.814   4.347   5.207  0.00  0.00    -0.062 C 
ATOM     35  C   UNL     1       4.151   4.590   4.500  0.00  0.00    +0.091 C 
ATOM     36  N   UNL     1       3.992   5.725   3.578  0.00  0.00    -0.180 NA
ATOM     37  C   UNL     1       3.419   6.973   4.103  0.00  0.00    +0.091 C 
ATOM     38  C   UNL     1       2.104   6.634   4.824  0.00  0.00    -0.062 C 
ATOM     39  H   UNL     1       3.167   5.956   6.487  0.00  0.00    -0.082 HD
ENDBRANCH  29  36
ENDBRANCH   1  29
TORSDOF 6
