REMARK  Name = ZINC16678390
REMARK  15 active torsions:
REMARK  status: ('A' for Active; 'I' for Inactive)
REMARK    1  A    between atoms: C_1  and  C_2
REMARK    2  A    between atoms: C_2  and  N_3
REMARK    3  A    between atoms: N_3  and  C_4
REMARK    4  A    between atoms: N_3  and  C_6
REMARK    5  A    between atoms: C_4  and  C_5
REMARK    6  A    between atoms: C_6  and  C_7
REMARK    7  A    between atoms: C_9  and  C_20
REMARK    8  A    between atoms: C_11  and  C_14
REMARK    9  A    between atoms: C_12  and  O_13
REMARK   10  A    between atoms: C_14  and  N_15
REMARK   11  A    between atoms: N_15  and  C_16
REMARK   12  A    between atoms: N_15  and  C_18
REMARK   13  A    between atoms: C_16  and  C_17
REMARK   14  A    between atoms: C_18  and  C_19
REMARK   15  A    between atoms: C_20  and  C_21
REMARK                            x       y       z     vdW  Elec       q    Type
REMARK                         _______ _______ _______ _____ _____    ______ ____
ROOT
ATOM      1  C   UNL     1       5.574   9.424  -3.465  0.00  0.00    -0.022 A 
ATOM      2  C   UNL     1       5.032   9.530  -2.199  0.00  0.00    +0.009 A 
ATOM      3  C   UNL     1       5.272   8.546  -1.258  0.00  0.00    -0.042 A 
ATOM      4  C   UNL     1       6.059   7.456  -1.580  0.00  0.00    +0.009 A 
ATOM      5  C   UNL     1       6.598   7.342  -2.847  0.00  0.00    -0.022 A 
ATOM      6  C   UNL     1       6.359   8.328  -3.792  0.00  0.00    +0.120 A 
ENDROOT
BRANCH   6   7
ATOM      7  O   UNL     1       6.893   8.220  -5.038  0.00  0.00    -0.506 OA
ATOM      8  H   UNL     1       7.516   7.351  -5.296  0.00  0.00    +0.292 HD
ENDBRANCH   6   7
BRANCH   1   9
ATOM      9  C   UNL     1       5.312  10.497  -4.491  0.00  0.00    -0.039 C 
BRANCH   9  10
ATOM     10  N   UNL     1       4.249  10.053  -5.403  0.00  0.00    +0.382 N 
ATOM     11  H   UNL     1       4.525   9.059  -5.785  0.00  0.00    -0.081 HD
BRANCH  10  13
ATOM     12  C   UNL     1       2.530  11.298  -4.181  0.00  0.00    -0.017 C 
ATOM     13  C   UNL     1       2.968   9.925  -4.695  0.00  0.00    -0.082 C 
ENDBRANCH  10  13
BRANCH  10  14
ATOM     14  C   UNL     1       4.128  10.961  -6.551  0.00  0.00    -0.082 C 
ATOM     15  C   UNL     1       3.211  10.334  -7.603  0.00  0.00    -0.017 C 
ENDBRANCH  10  14
ENDBRANCH   9  10
ENDBRANCH   1   9
BRANCH   5  16
ATOM     16  C   UNL     1       7.451   6.150  -3.199  0.00  0.00    -0.039 C 
BRANCH  16  17
ATOM     17  N   UNL     1       8.863   6.554  -3.245  0.00  0.00    +0.382 N 
ATOM     18  H   UNL     1       8.919   7.525  -3.759  0.00  0.00    -0.081 HD
BRANCH  17  19
ATOM     19  C   UNL     1       9.405   6.728  -1.891  0.00  0.00    -0.082 C 
ATOM     20  C   UNL     1      10.785   7.383  -1.974  0.00  0.00    -0.017 C 
ENDBRANCH  17  19
BRANCH  17  21
ATOM     21  C   UNL     1       9.662   5.590  -4.012  0.00  0.00    -0.082 C 
ATOM     22  C   UNL     1       9.413   5.797  -5.508  0.00  0.00    -0.017 C 
ENDBRANCH  17  21
ENDBRANCH  16  17
ENDBRANCH   5  16
BRANCH   3  23
ATOM     23  C   UNL     1       4.679   8.665   0.122  0.00  0.00    +0.075 C 
BRANCH  23  24
ATOM     24  C   UNL     1       3.325   8.005   0.146  0.00  0.00    +0.020 A 
ATOM     25  C   UNL     1       2.180   8.770  -0.051  0.00  0.00    +0.090 A 
ATOM     26  N   UNL     1       0.977   8.255  -0.042  0.00  0.00    -0.360 N 
ATOM     27  C   UNL     1       0.777   6.942   0.162  0.00  0.00    +0.051 A 
ATOM     28  C   UNL     1      -0.511   6.410   0.169  0.00  0.00    +0.034 A 
ATOM     29  C   UNL     1      -0.692   5.044   0.383  0.00  0.00    -0.016 A 
ATOM     30  C   UNL     1      -1.983   4.474   0.396  0.00  0.00    +0.008 A 
ATOM     31  C   UNL     1      -2.123   3.139   0.601  0.00  0.00    +0.001 A 
ATOM     32  C   UNL     1      -1.022   2.309   0.811  0.00  0.00    +0.001 A 
ATOM     33  C   UNL     1       0.247   2.793   0.811  0.00  0.00    +0.008 A 
ATOM     34  C   UNL     1       0.466   4.171   0.599  0.00  0.00    -0.017 A 
ATOM     35  C   UNL     1       1.754   4.704   0.592  0.00  0.00    +0.022 A 
ATOM     36  C   UNL     1       1.931   6.067   0.378  0.00  0.00    +0.046 A 
ATOM     37  C   UNL     1       3.228   6.646   0.363  0.00  0.00    +0.193 A 
ATOM     38  O   UNL     1       4.335   5.888   0.556  0.00  0.00    -0.287 OA
ATOM     39  H   UNL     1       0.101   8.900  -0.203  0.00  0.00    +0.165 HD
ENDBRANCH  23  24
ENDBRANCH   3  23
TORSDOF 11
