REMARK  Name = ZINC19720136
REMARK  10 active torsions:
REMARK  status: ('A' for Active; 'I' for Inactive)
REMARK    1  A    between atoms: C_1  and  C_2
REMARK    2  A    between atoms: C_6  and  O_39
REMARK    3  A    between atoms: C_7  and  O_37
REMARK    4  A    between atoms: N_12  and  C_13
REMARK    5  A    between atoms: C_13  and  C_14
REMARK    6  A    between atoms: C_16  and  C_22
REMARK    7  A    between atoms: C_19  and  O_20
REMARK    8  A    between atoms: O_20  and  C_21
REMARK    9  A    between atoms: O_37  and  C_38
REMARK   10  A    between atoms: O_39  and  C_40
REMARK                            x       y       z     vdW  Elec       q    Type
REMARK                         _______ _______ _______ _____ _____    ______ ____
ROOT
ATOM      1  C   UNL     1       0.646  -0.624   3.623  0.00  0.00    -0.022 A 
ATOM      2  C   UNL     1       1.228   0.277   4.494  0.00  0.00    +0.011 A 
ATOM      3  C   UNL     1       1.889  -0.176   5.620  0.00  0.00    -0.024 A 
ATOM      4  C   UNL     1       1.969  -1.532   5.879  0.00  0.00    +0.009 A 
ATOM      5  C   UNL     1       1.389  -2.438   5.012  0.00  0.00    +0.046 A 
ATOM      6  C   UNL     1       0.721  -1.985   3.883  0.00  0.00    +0.121 A 
ENDROOT
BRANCH   3   7
ATOM      7  C   UNL     1       2.523   0.809   6.568  0.00  0.00    +0.131 C 
ATOM      8  C   UNL     1       4.009   0.879   6.308  0.00  0.00    +0.042 A 
ATOM      9  C   UNL     1       4.930   0.897   7.299  0.00  0.00    -0.016 A 
ATOM     10  C   UNL     1       6.231   0.964   6.671  0.00  0.00    +0.003 A 
ATOM     11  C   UNL     1       7.532   1.006   7.181  0.00  0.00    +0.010 A 
ATOM     12  C   UNL     1       8.556   1.067   6.268  0.00  0.00    +0.001 A 
ATOM     13  C   UNL     1       8.324   1.086   4.902  0.00  0.00    +0.002 A 
ATOM     14  C   UNL     1       7.047   1.046   4.370  0.00  0.00    +0.026 A 
ATOM     15  C   UNL     1       5.988   0.984   5.272  0.00  0.00    +0.047 A 
ATOM     16  N   UNL     1       4.635   0.932   5.093  0.00  0.00    -0.356 N 
ATOM     17  H   UNL     1       4.186   0.933   4.233  0.00  0.00    +0.166 HD
ATOM     18  C   UNL     1       4.577   0.853   8.764  0.00  0.00    +0.052 C 
ATOM     19  C   UNL     1       3.084   1.184   8.902  0.00  0.00    +0.086 C 
ATOM     20  N   UNL     1       2.308   0.369   7.956  0.00  0.00    -0.304 NA
ATOM     21  H   UNL     1       1.326   0.376   8.190  0.00  0.00    +0.123 HD
ENDBRANCH   3   7
BRANCH   6  22
ATOM     22  O   UNL     1       0.145  -2.873   3.031  0.00  0.00    -0.495 OA
ATOM     23  C   UNL     1       0.261  -4.258   3.362  0.00  0.00    +0.277 C 
ENDBRANCH   6  22
BRANCH   1  24
ATOM     24  C   UNL     1      -0.073  -0.130   2.395  0.00  0.00    -0.038 C 
BRANCH  24  35
ATOM     25  C   UNL     1      -0.032  -2.267   0.431  0.00  0.00    -0.008 C 
ATOM     26  C   UNL     1       1.210  -1.523   0.925  0.00  0.00    -0.040 C 
ATOM     27  C   UNL     1       2.268  -1.556  -0.146  0.00  0.00    -0.054 A 
ATOM     28  C   UNL     1       2.454  -2.733  -0.857  0.00  0.00    +0.051 A 
ATOM     29  C   UNL     1       3.415  -2.808  -1.848  0.00  0.00    +0.162 A 
ATOM     30  C   UNL     1       4.201  -1.694  -2.133  0.00  0.00    +0.162 A 
ATOM     31  C   UNL     1       4.012  -0.522  -1.423  0.00  0.00    +0.053 A 
ATOM     32  C   UNL     1       3.045  -0.453  -0.431  0.00  0.00    -0.044 A 
ATOM     33  C   UNL     1       2.867   0.847   0.312  0.00  0.00    +0.017 C 
ATOM     34  C   UNL     1       2.067   0.606   1.593  0.00  0.00    -0.073 C 
ATOM     35  N   UNL     1       0.847  -0.141   1.250  0.00  0.00    +0.387 N 
ATOM     36  H   UNL     1       0.402   0.288   0.453  0.00  0.00    -0.080 HD
BRANCH  30  37
ATOM     37  O   UNL     1       5.150  -1.759  -3.104  0.00  0.00    -0.491 OA
ATOM     38  C   UNL     1       5.918  -0.577  -3.341  0.00  0.00    +0.277 C 
ENDBRANCH  30  37
BRANCH  29  39
ATOM     39  O   UNL     1       3.593  -3.964  -2.541  0.00  0.00    -0.491 OA
ATOM     40  C   UNL     1       2.750  -5.065  -2.193  0.00  0.00    +0.277 C 
ENDBRANCH  29  39
ENDBRANCH  24  35
ENDBRANCH   1  24
TORSDOF 6
