REMARK  Name = ZINC40320406
REMARK  13 active torsions:
REMARK  status: ('A' for Active; 'I' for Inactive)
REMARK    1  A    between atoms: C_1  and  C_2
REMARK    2  A    between atoms: C_2  and  O_3
REMARK    3  A    between atoms: O_3  and  C_4
REMARK    4  A    between atoms: C_6  and  C_34
REMARK    5  A    between atoms: C_9  and  O_10
REMARK    6  A    between atoms: O_10  and  C_11
REMARK    7  A    between atoms: C_11  and  C_12
REMARK    8  A    between atoms: C_12  and  C_14
REMARK    9  A    between atoms: C_12  and  O_33
REMARK   10  A    between atoms: C_14  and  N_15
REMARK   11  A    between atoms: N_15  and  C_16
REMARK   12  A    between atoms: N_15  and  C_25
REMARK   13  A    between atoms: C_16  and  C_17
REMARK                            x       y       z     vdW  Elec       q    Type
REMARK                         _______ _______ _______ _____ _____    ______ ____
ROOT
ATOM      1  N   UNL     1       3.458  -1.027  -8.444  0.00  0.00    +0.387 N 
ATOM      2  H   UNL     1       2.895  -0.882  -9.269  0.00  0.00    -0.081 HD
ENDROOT
BRANCH   1   3
ATOM      3  C   UNL     1       3.371   0.157  -7.578  0.00  0.00    -0.045 C 
ATOM      4  C   UNL     1       1.895   0.485  -7.294  0.00  0.00    +0.009 C 
ATOM      5  C   UNL     1       1.781   1.893  -6.662  0.00  0.00    +0.164 C 
ATOM      6  S   UNL     1       3.251   2.763  -7.344  0.00  0.00    -0.033 S 
ATOM      7  O   UNL     1       4.116   3.117  -6.273  0.00  0.00    -0.174 OA
ATOM      8  O   UNL     1       2.815   3.765  -8.251  0.00  0.00    -0.174 OA
ATOM      9  C   UNL     1       4.010   1.380  -8.295  0.00  0.00    +0.151 C 
ENDBRANCH   1   3
BRANCH   1  10
ATOM     10  C   UNL     1       2.965  -2.204  -7.715  0.00  0.00    -0.043 C 
BRANCH  10  11
ATOM     11  C   UNL     1       1.460  -2.351  -7.943  0.00  0.00    +0.135 C 
BRANCH  11  12
ATOM     12  O   UNL     1       1.202  -2.517  -9.338  0.00  0.00    -0.390 OA
ATOM     13  H   UNL     1       1.627  -3.294  -9.727  0.00  0.00    +0.210 HD
ENDBRANCH  11  12
BRANCH  11  14
ATOM     14  C   UNL     1       0.946  -3.574  -7.180  0.00  0.00    +0.258 C 
BRANCH  14  15
ATOM     15  O   UNL     1      -0.477  -3.646  -7.297  0.00  0.00    -0.486 OA
BRANCH  15  21
ATOM     16  C   UNL     1      -2.482  -4.809  -6.747  0.00  0.00    +0.163 A 
ATOM     17  C   UNL     1      -3.113  -5.863  -6.119  0.00  0.00    +0.060 A 
ATOM     18  C   UNL     1      -2.357  -6.800  -5.402  0.00  0.00    +0.018 A 
ATOM     19  C   UNL     1      -0.966  -6.661  -5.328  0.00  0.00    +0.015 A 
ATOM     20  C   UNL     1      -0.345  -5.606  -5.958  0.00  0.00    +0.050 A 
ATOM     21  C   UNL     1      -1.095  -4.681  -6.673  0.00  0.00    +0.162 A 
BRANCH  18  22
ATOM     22  C   UNL     1      -3.022  -7.924  -4.731  0.00  0.00    +0.258 C 
ATOM     23  O   UNL     1      -2.366  -8.734  -4.111  0.00  0.00    -0.296 OA
ENDBRANCH  18  22
BRANCH  16  24
ATOM     24  O   UNL     1      -3.212  -3.897  -7.444  0.00  0.00    -0.489 OA
BRANCH  24  26
ATOM     25  C   UNL     1      -5.275  -2.974  -8.302  0.00  0.00    +0.048 C 
ATOM     26  C   UNL     1      -4.628  -4.090  -7.478  0.00  0.00    +0.226 C 
ENDBRANCH  24  26
ENDBRANCH  16  24
ENDBRANCH  15  21
ENDBRANCH  14  15
ENDBRANCH  11  14
ENDBRANCH  10  11
ENDBRANCH   1  10
BRANCH   1  27
ATOM     27  C   UNL     1       4.856  -1.244  -8.837  0.00  0.00    -0.041 C 
BRANCH  27  28
ATOM     28  C   UNL     1       5.223  -0.285  -9.940  0.00  0.00    -0.046 A 
ATOM     29  C   UNL     1       4.275   0.089 -10.874  0.00  0.00    +0.004 A 
ATOM     30  C   UNL     1       4.610   0.969 -11.886  0.00  0.00    +0.020 A 
ATOM     31  C   UNL     1       5.895   1.476 -11.964  0.00  0.00    +0.042 A 
ATOM     32  C   UNL     1       6.844   1.102 -11.030  0.00  0.00    +0.040 A 
ATOM     33  C   UNL     1       6.507   0.225 -10.015  0.00  0.00    +0.044 A 
ATOM     34 CL   UNL     1       7.695  -0.240  -8.838  0.00  0.00    -0.083 Cl
ATOM     35 CL   UNL     1       6.317   2.580 -13.236  0.00  0.00    -0.083 Cl
ENDBRANCH  27  28
ENDBRANCH   1  27
TORSDOF 12
