REMARK  Name = ZINC63681101
REMARK  10 active torsions:
REMARK  status: ('A' for Active; 'I' for Inactive)
REMARK    1  A    between atoms: C_1  and  C_2
REMARK    2  A    between atoms: C_5  and  C_36
REMARK    3  A    between atoms: C_6  and  S_8
REMARK    4  A    between atoms: S_8  and  N_11
REMARK    5  A    between atoms: C_16  and  C_18
REMARK    6  A    between atoms: C_18  and  N_19
REMARK    7  A    between atoms: C_20  and  C_22
REMARK    8  A    between atoms: N_24  and  C_25
REMARK    9  A    between atoms: C_25  and  C_26
REMARK   10  A    between atoms: C_26  and  C_27
REMARK                            x       y       z     vdW  Elec       q    Type
REMARK                         _______ _______ _______ _____ _____    ______ ____
ROOT
ATOM      1  N   UNL     1      -0.006  -5.031   0.474  0.00  0.00    -0.304 N 
ATOM      2  C   UNL     1       0.985  -5.437  -0.345  0.00  0.00    +0.299 C 
ATOM      3  O   UNL     1       1.666  -6.396  -0.044  0.00  0.00    -0.265 OA
ATOM      4  H   UNL     1      -0.596  -4.312   0.201  0.00  0.00    +0.149 HD
ENDROOT
BRANCH   2   5
ATOM      5  C   UNL     1       1.245  -4.707  -1.623  0.00  0.00    +0.299 C 
ATOM      6  O   UNL     1       0.625  -3.696  -1.881  0.00  0.00    -0.265 OA
ATOM      7  N   UNL     1       2.167  -5.172  -2.489  0.00  0.00    -0.307 N 
ATOM      8  H   UNL     1       2.662  -5.981  -2.283  0.00  0.00    +0.149 HD
BRANCH   7   9
ATOM      9  C   UNL     1       2.421  -4.457  -3.742  0.00  0.00    +0.109 C 
BRANCH   9  10
ATOM     10  C   UNL     1       3.505  -5.189  -4.537  0.00  0.00    +0.052 C 
BRANCH  10  11
ATOM     11  C   UNL     1       3.767  -4.453  -5.825  0.00  0.00    -0.040 C 
ATOM     12  C   UNL     1       4.733  -3.535  -6.056  0.00  0.00    -0.001 A 
ATOM     13  C   UNL     1       5.789  -2.969  -5.208  0.00  0.00    +0.010 A 
ATOM     14  C   UNL     1       6.626  -2.045  -5.732  0.00  0.00    +0.001 A 
ATOM     15  C   UNL     1       6.510  -1.615  -7.061  0.00  0.00    +0.002 A 
ATOM     16  C   UNL     1       5.566  -2.089  -7.901  0.00  0.00    +0.026 A 
ATOM     17  C   UNL     1       4.633  -3.065  -7.456  0.00  0.00    +0.043 A 
ATOM     18  N   UNL     1       3.642  -3.669  -8.067  0.00  0.00    -0.380 N 
ATOM     19  C   UNL     1       3.006  -4.596  -7.125  0.00  0.00    +0.144 C 
ATOM     20  H   UNL     1       3.377  -3.529  -8.990  0.00  0.00    +0.160 HD
ENDBRANCH  10  11
ENDBRANCH   9  10
ENDBRANCH   7   9
ENDBRANCH   2   5
BRANCH   1  21
ATOM     21  C   UNL     1      -0.191  -5.677   1.776  0.00  0.00    +0.154 C 
BRANCH  21  27
ATOM     22  N   UNL     1      -1.179  -3.713   2.862  0.00  0.00    -0.147 NA
ATOM     23  C   UNL     1      -2.314  -2.908   3.341  0.00  0.00    +0.114 C 
ATOM     24  C   UNL     1      -3.452  -3.028   2.321  0.00  0.00    +0.045 C 
ATOM     25  C   UNL     1      -3.720  -4.511   2.046  0.00  0.00    +0.163 C 
ATOM     26  O   UNL     1      -2.531  -5.125   1.544  0.00  0.00    -0.358 OA
ATOM     27  C   UNL     1      -1.435  -5.103   2.457  0.00  0.00    +0.226 C 
BRANCH  22  28
ATOM     28  S   UNL     1       0.344  -3.069   2.775  0.00  0.00    +0.063 S 
ATOM     29  O   UNL     1       0.235  -1.712   3.182  0.00  0.00    -0.153 OA
ATOM     30  O   UNL     1       0.872  -3.445   1.510  0.00  0.00    -0.153 OA
BRANCH  28  36
ATOM     31  C   UNL     1       4.283  -6.223   4.136  0.00  0.00    +0.044 C 
ATOM     32  C   UNL     1       3.141  -5.336   4.558  0.00  0.00    -0.049 A 
ATOM     33  C   UNL     1       2.862  -5.161   5.901  0.00  0.00    +0.004 A 
ATOM     34  C   UNL     1       1.814  -4.348   6.289  0.00  0.00    +0.005 A 
ATOM     35  C   UNL     1       1.045  -3.709   5.334  0.00  0.00    -0.024 A 
ATOM     36  C   UNL     1       1.324  -3.883   3.992  0.00  0.00    +0.109 A 
ATOM     37  C   UNL     1       2.375  -4.693   3.604  0.00  0.00    +0.032 A 
ATOM     38  C   UNL     1      -0.099  -2.823   5.757  0.00  0.00    +0.046 C 
ENDBRANCH  28  36
ENDBRANCH  22  28
ENDBRANCH  21  27
ENDBRANCH   1  21
TORSDOF 8
