REMARK  Name = ZINC15649474
REMARK  7 active torsions:
REMARK  status: ('A' for Active; 'I' for Inactive)
REMARK    1  A    between atoms: C_1  and  C_2
REMARK    2  A    between atoms: C_7  and  N_8
REMARK    3  A    between atoms: C_9  and  C_11
REMARK    4  A    between atoms: C_11  and  S_12
REMARK    5  A    between atoms: S_12  and  C_13
REMARK    6  A    between atoms: C_16  and  C_22
REMARK    7  A    between atoms: C_18  and  N_19
REMARK                            x       y       z     vdW  Elec       q    Type
REMARK                         _______ _______ _______ _____ _____    ______ ____
ROOT
ATOM      1  S   UNL     1       2.720   0.922  -0.035  0.00  0.00    -0.114 S 
ENDROOT
BRANCH   1   2
ATOM      2  C   UNL     1       1.184   1.786  -0.031  0.00  0.00    +0.039 A 
ATOM      3  C   UNL     1      -0.014   1.075  -0.030  0.00  0.00    +0.018 A 
ATOM      4  C   UNL     1      -1.207   1.740  -0.031  0.00  0.00    +0.014 A 
ATOM      5  C   UNL     1      -1.230   3.138  -0.023  0.00  0.00    +0.039 A 
ATOM      6  C   UNL     1      -0.029   3.854  -0.025  0.00  0.00    +0.047 A 
ATOM      7  C   UNL     1       1.170   3.179  -0.028  0.00  0.00    +0.140 A 
BRANCH   5   8
ATOM      8  C   UNL     1      -2.518   3.855  -0.019  0.00  0.00    +0.242 C 
ATOM      9  O   UNL     1      -2.537   5.071  -0.018  0.00  0.00    -0.270 OA
ATOM     10  N   UNL     1      -3.675   3.164  -0.018  0.00  0.00    -0.325 N 
ATOM     11  H   UNL     1      -3.660   2.194  -0.020  0.00  0.00    +0.145 HD
ATOM     12  H   UNL     1      -4.522   3.635  -0.016  0.00  0.00    +0.145 HD
ENDBRANCH   5   8
BRANCH   7  13
ATOM     13  N   UNL     1       2.445   3.933  -0.029  0.00  0.00    +0.058 N 
ATOM     14  O   UNL     1       2.432   5.151  -0.027  0.00  0.00    -0.126 OA
ATOM     15  O   UNL     1       3.506   3.335  -0.032  0.00  0.00    -0.126 OA
ENDBRANCH   7  13
ENDBRANCH   1   2
BRANCH   1  16
ATOM     16  C   UNL     1       2.239  -0.827  -0.038  0.00  0.00    +0.170 C 
BRANCH  16  18
ATOM     17  N   UNL     1       3.362  -3.031  -0.044  0.00  0.00    -0.285 N 
ATOM     18  C   UNL     1       3.476  -1.688  -0.042  0.00  0.00    +0.227 C 
ATOM     19  O   UNL     1       4.574  -1.172  -0.043  0.00  0.00    -0.275 OA
ATOM     20  H   UNL     1       2.488  -3.444   0.037  0.00  0.00    +0.155 HD
BRANCH  17  27
ATOM     21  C   UNL     1       3.272  -5.673   1.008  0.00  0.00    +0.046 C 
ATOM     22  C   UNL     1       4.504  -5.125   0.335  0.00  0.00    -0.028 A 
ATOM     23  C   UNL     1       5.631  -5.913   0.210  0.00  0.00    +0.020 A 
ATOM     24  C   UNL     1       6.765  -5.409  -0.402  0.00  0.00    +0.018 A 
ATOM     25  C   UNL     1       6.771  -4.116  -0.896  0.00  0.00    +0.017 A 
ATOM     26  C   UNL     1       5.644  -3.326  -0.779  0.00  0.00    +0.024 A 
ATOM     27  C   UNL     1       4.505  -3.830  -0.165  0.00  0.00    +0.036 A 
ATOM     28 BR   UNL     1       8.309  -6.488  -0.564  0.00  0.00    -0.050 Br
ENDBRANCH  17  27
ENDBRANCH  16  18
ENDBRANCH   1  16
TORSDOF 6
