REMARK  Name = ZINC05925308
REMARK  7 active torsions:
REMARK  status: ('A' for Active; 'I' for Inactive)
REMARK    1  A    between atoms: C_1  and  C_2
REMARK    2  A    between atoms: C_5  and  S_8
REMARK    3  A    between atoms: S_8  and  N_11
REMARK    4  A    between atoms: N_11  and  C_12
REMARK    5  A    between atoms: C_15  and  N_18
REMARK    6  A    between atoms: C_19  and  C_21
REMARK    7  A    between atoms: C_22  and  C_23
REMARK                            x       y       z     vdW  Elec       q    Type
REMARK                         _______ _______ _______ _____ _____    ______ ____
ROOT
ATOM      1  C   UNL     1       0.805   2.354  -0.118  0.00  0.00    +0.048 A 
ATOM      2  C   UNL     1       1.889   1.919   0.634  0.00  0.00    +0.026 A 
ATOM      3  C   UNL     1       3.117   2.534   0.493  0.00  0.00    +0.025 A 
ATOM      4  C   UNL     1       3.267   3.593  -0.393  0.00  0.00    +0.034 A 
ATOM      5  C   UNL     1       2.181   4.031  -1.141  0.00  0.00    +0.025 A 
ATOM      6  C   UNL     1       0.954   3.413  -1.004  0.00  0.00    +0.026 A 
ENDROOT
BRANCH   4   7
ATOM      7  N   UNL     1       4.511   4.219  -0.531  0.00  0.00    -0.282 N 
ATOM      8  C   UNL     1       5.645   3.502  -0.402  0.00  0.00    +0.241 C 
ATOM      9  O   UNL     1       5.588   2.294  -0.258  0.00  0.00    -0.270 OA
ATOM     10  H   UNL     1       4.557   5.170  -0.721  0.00  0.00    +0.155 HD
BRANCH   8  11
ATOM     11  C   UNL     1       6.901   4.152  -0.433  0.00  0.00    +0.068 C 
ATOM     12  C   UNL     1       8.042   3.431  -0.302  0.00  0.00    +0.020 C 
BRANCH  12  13
ATOM     13  C   UNL     1       9.299   4.082  -0.333  0.00  0.00    +0.012 A 
ATOM     14  C   UNL     1      10.572   3.535  -0.218  0.00  0.00    +0.015 A 
ATOM     15  C   UNL     1      11.631   4.405  -0.283  0.00  0.00    +0.008 A 
ATOM     16  C   UNL     1      11.392   5.732  -0.453  0.00  0.00    +0.046 A 
ATOM     17  S   UNL     1       9.662   5.816  -0.536  0.00  0.00    -0.097 S 
ENDBRANCH  12  13
ENDBRANCH   8  11
ENDBRANCH   4   7
BRANCH   1  18
ATOM     18  N   UNL     1      -0.439   1.728   0.021  0.00  0.00    -0.216 N 
ATOM     19  H   UNL     1      -1.245   2.263   0.098  0.00  0.00    +0.174 HD
BRANCH  18  20
ATOM     20  S   UNL     1      -0.535   0.075   0.049  0.00  0.00    +0.072 S 
ATOM     21  O   UNL     1       0.403  -0.370   1.018  0.00  0.00    -0.150 OA
ATOM     22  O   UNL     1      -1.917  -0.250   0.121  0.00  0.00    -0.150 OA
BRANCH  20  27
ATOM     23  C   UNL     1       1.427  -1.917  -5.298  0.00  0.00    +0.044 C 
ATOM     24  C   UNL     1       0.937  -1.419  -3.962  0.00  0.00    -0.050 A 
ATOM     25  C   UNL     1       1.805  -1.354  -2.888  0.00  0.00    +0.005 A 
ATOM     26  C   UNL     1       1.355  -0.898  -1.663  0.00  0.00    +0.029 A 
ATOM     27  C   UNL     1       0.038  -0.506  -1.512  0.00  0.00    +0.109 A 
ATOM     28  C   UNL     1      -0.831  -0.576  -2.586  0.00  0.00    +0.029 A 
ATOM     29  C   UNL     1      -0.380  -1.028  -3.812  0.00  0.00    +0.005 A 
ENDBRANCH  20  27
ENDBRANCH  18  20
ENDBRANCH   1  18
TORSDOF 6
