REMARK  Name = ZINC16469138
REMARK  6 active torsions:
REMARK  status: ('A' for Active; 'I' for Inactive)
REMARK    1  A    between atoms: C_1  and  C_2
REMARK    2  A    between atoms: C_3  and  C_11
REMARK    3  A    between atoms: C_8  and  C_10
REMARK    4  A    between atoms: C_11  and  C_12
REMARK    5  A    between atoms: C_12  and  C_13
REMARK    6  A    between atoms: C_19  and  C_21
REMARK                            x       y       z     vdW  Elec       q    Type
REMARK                         _______ _______ _______ _____ _____    ______ ____
ROOT
ATOM      1  C   UNL     1       3.643  -0.770  -0.036  0.00  0.00    +0.051 C 
ENDROOT
BRANCH   1   4
ATOM      2  C   UNL     1       1.132  -2.193  -0.020  0.00  0.00    +0.066 C 
ATOM      3  C   UNL     1       1.150  -0.686  -0.013  0.00  0.00    +0.049 A 
ATOM      4  C   UNL     1       2.337  -0.018  -0.020  0.00  0.00    +0.038 A 
ATOM      5  C   UNL     1       2.318   1.392  -0.013  0.00  0.00    +0.255 A 
ATOM      6  O   UNL     1       3.358   2.029  -0.019  0.00  0.00    -0.268 OA
ATOM      7  N   UNL     1       1.124   2.022   0.002  0.00  0.00    -0.311 N 
ATOM      8  H   UNL     1       1.086   2.991   0.007  0.00  0.00    +0.170 HD
ATOM      9  C   UNL     1      -0.016   1.302   0.009  0.00  0.00    +0.107 A 
ATOM     10  N   UNL     1       0.002  -0.004   0.002  0.00  0.00    -0.239 NA
ATOM     11  C   UNL     1      -1.340   2.021   0.019  0.00  0.00    +0.086 C 
ENDBRANCH   1   4
BRANCH   1  12
ATOM     12  C   UNL     1       4.134  -0.909  -1.479  0.00  0.00    +0.101 C 
BRANCH  12  13
ATOM     13  C   UNL     1       5.440  -1.661  -1.495  0.00  0.00    +0.219 C 
ATOM     14  O   UNL     1       5.929  -2.048  -0.455  0.00  0.00    -0.275 OA
ATOM     15  N   UNL     1       6.064  -1.903  -2.664  0.00  0.00    -0.263 N 
ATOM     16  C   UNL     1       7.269  -2.597  -2.679  0.00  0.00    +0.188 A 
ATOM     17  N   UNL     1       7.964  -3.099  -1.673  0.00  0.00    -0.126 NA
ATOM     18  N   UNL     1       9.054  -3.710  -1.855  0.00  0.00    -0.145 NA
ATOM     19  C   UNL     1       9.541  -3.868  -3.070  0.00  0.00    +0.101 A 
ATOM     20  S   UNL     1       8.272  -3.048  -4.027  0.00  0.00    -0.036 S 
ATOM     21  C   UNL     1      10.805  -4.552  -3.523  0.00  0.00    +0.075 C 
ATOM     22  H   UNL     1       5.672  -1.593  -3.496  0.00  0.00    +0.157 HD
ENDBRANCH  12  13
ENDBRANCH   1  12
TORSDOF 3
