REMARK  Name = ZINC02854110
REMARK  11 active torsions:
REMARK  status: ('A' for Active; 'I' for Inactive)
REMARK    1  A    between atoms: C_1  and  C_2
REMARK    2  A    between atoms: C_3  and  C_22
REMARK    3  A    between atoms: C_4  and  N_12
REMARK    4  A    between atoms: C_6  and  C_7
REMARK    5  A    between atoms: N_9  and  C_10
REMARK    6  A    between atoms: N_9  and  C_11
REMARK    7  A    between atoms: N_12  and  C_13
REMARK    8  A    between atoms: C_13  and  N_15
REMARK    9  A    between atoms: N_19  and  C_21
REMARK   10  A    between atoms: C_22  and  O_24
REMARK   11  A    between atoms: O_24  and  C_25
REMARK                            x       y       z     vdW  Elec       q    Type
REMARK                         _______ _______ _______ _____ _____    ______ ____
ROOT
ATOM      1  C   UNL     1       1.694   3.585  -2.362  0.00  0.00    +0.046 C 
ATOM      2  C   UNL     1       1.249   4.285  -1.104  0.00  0.00    -0.015 A 
ATOM      3  C   UNL     1       0.920   3.568   0.038  0.00  0.00    +0.091 A 
ATOM      4  C   UNL     1       0.511   4.291   1.164  0.00  0.00    +0.086 A 
ATOM      5  S   UNL     1       0.602   5.935   0.623  0.00  0.00    -0.068 S 
ATOM      6  C   UNL     1       1.156   5.649  -1.047  0.00  0.00    +0.079 A 
ENDROOT
BRANCH   6   7
ATOM      7  C   UNL     1       1.440   6.629  -2.096  0.00  0.00    +0.253 C 
ATOM      8  O   UNL     1       1.662   6.256  -3.234  0.00  0.00    -0.269 OA
ATOM      9  N   UNL     1       1.456   7.944  -1.803  0.00  0.00    -0.303 N 
ATOM     10  C   UNL     1       1.450   8.935  -2.882  0.00  0.00    +0.132 C 
ATOM     11  C   UNL     1       1.480   8.383  -0.406  0.00  0.00    +0.132 C 
ENDBRANCH   6   7
BRANCH   4  12
ATOM     12  N   UNL     1       0.132   3.812   2.401  0.00  0.00    -0.291 N 
ATOM     13  H   UNL     1       0.128   2.857   2.572  0.00  0.00    +0.154 HD
BRANCH  12  14
ATOM     14  C   UNL     1      -0.234   4.671   3.373  0.00  0.00    +0.140 C 
ATOM     15  S   UNL     1      -0.228   6.357   3.072  0.00  0.00    -0.018 S 
BRANCH  14  16
ATOM     16  N   UNL     1      -0.605   4.204   4.582  0.00  0.00    -0.280 N 
ATOM     17  C   UNL     1      -0.892   5.099   5.621  0.00  0.00    +0.146 A 
ATOM     18  C   UNL     1      -1.165   4.754   6.955  0.00  0.00    +0.065 A 
ATOM     19  C   UNL     1      -1.387   5.897   7.642  0.00  0.00    +0.110 A 
ATOM     20  N   UNL     1      -1.269   6.928   6.779  0.00  0.00    -0.273 N 
ATOM     21  N   UNL     1      -0.959   6.405   5.517  0.00  0.00    -0.156 NA
ATOM     22  C   UNL     1      -1.438   8.347   7.105  0.00  0.00    +0.172 C 
ATOM     23  H   UNL     1      -0.673   3.248   4.732  0.00  0.00    +0.155 HD
ENDBRANCH  14  16
ENDBRANCH  12  14
ENDBRANCH   4  12
BRANCH   3  24
ATOM     24  C   UNL     1       0.993   2.103   0.061  0.00  0.00    +0.342 C 
ATOM     25  O   UNL     1       2.024   1.551   0.393  0.00  0.00    -0.245 OA
BRANCH  24  26
ATOM     26  O   UNL     1      -0.084   1.369  -0.286  0.00  0.00    -0.464 OA
ATOM     27  C   UNL     1       0.060  -0.075  -0.240  0.00  0.00    +0.280 C 
ENDBRANCH  24  26
ENDBRANCH   3  24
TORSDOF 6
