REMARK  Name = ZINC35337671
REMARK  13 active torsions:
REMARK  status: ('A' for Active; 'I' for Inactive)
REMARK    1  A    between atoms: C_1  and  C_2
REMARK    2  A    between atoms: C_3  and  C_31
REMARK    3  A    between atoms: C_4  and  C_13
REMARK    4  A    between atoms: C_17  and  N_19
REMARK    5  A    between atoms: C_20  and  C_22
REMARK    6  A    between atoms: C_22  and  C_23
REMARK    7  A    between atoms: C_23  and  C_25
REMARK    8  A    between atoms: C_23  and  C_26
REMARK    9  A    between atoms: C_26  and  C_27
REMARK   10  A    between atoms: C_27  and  C_28
REMARK   11  A    between atoms: C_27  and  C_29
REMARK   12  A    between atoms: C_27  and  C_30
REMARK   13  A    between atoms: N_33  and  C_34
REMARK                            x       y       z     vdW  Elec       q    Type
REMARK                         _______ _______ _______ _____ _____    ______ ____
ROOT
ATOM      1  C   UNL     1      -2.282   1.561   2.340  0.00  0.00    +0.064 C 
ATOM      2  C   UNL     1      -2.047   0.086   2.138  0.00  0.00    +0.025 C 
ATOM      3  C   UNL     1      -3.112  -0.746   1.968  0.00  0.00    +0.058 C 
ATOM      4  C   UNL     1      -2.870  -2.209   1.694  0.00  0.00    +0.143 C 
ATOM      5  N   UNL     1      -1.558  -2.587   2.251  0.00  0.00    -0.300 N 
ATOM      6  C   UNL     1      -1.429  -3.904   2.865  0.00  0.00    +0.109 C 
ATOM      7  C   UNL     1      -0.111  -4.587   2.536  0.00  0.00    +0.030 C 
ATOM      8  C   UNL     1       1.043  -3.789   3.162  0.00  0.00    +0.078 C 
ATOM      9  S   UNL     1       1.145  -2.200   2.283  0.00  0.00    -0.092 S 
ATOM     10  C   UNL     1      -0.541  -1.682   2.203  0.00  0.00    +0.135 C 
ATOM     11  N   UNL     1      -0.803  -0.383   2.123  0.00  0.00    -0.341 N 
ATOM     12  H   UNL     1      -0.066   0.243   2.056  0.00  0.00    +0.167 HD
ENDROOT
BRANCH   4  13
ATOM     13  C   UNL     1      -2.879  -2.453   0.207  0.00  0.00    -0.021 A 
ATOM     14  C   UNL     1      -1.754  -2.167  -0.546  0.00  0.00    +0.006 A 
ATOM     15  C   UNL     1      -1.759  -2.390  -1.911  0.00  0.00    +0.002 A 
ATOM     16  C   UNL     1      -2.886  -2.898  -2.526  0.00  0.00    +0.023 A 
ATOM     17  C   UNL     1      -4.016  -3.185  -1.772  0.00  0.00    +0.034 A 
ATOM     18  C   UNL     1      -4.007  -2.966  -0.401  0.00  0.00    +0.029 A 
BRANCH  17  19
ATOM     19  N   UNL     1      -5.160  -3.700  -2.392  0.00  0.00    -0.285 N 
ATOM     20  C   UNL     1      -5.043  -4.646  -3.345  0.00  0.00    +0.217 C 
ATOM     21  O   UNL     1      -3.964  -5.155  -3.565  0.00  0.00    -0.275 OA
ATOM     22  H   UNL     1      -6.038  -3.376  -2.136  0.00  0.00    +0.155 HD
BRANCH  20  23
ATOM     23  C   UNL     1      -6.252  -5.071  -4.138  0.00  0.00    +0.099 C 
BRANCH  23  24
ATOM     24  C   UNL     1      -5.848  -6.149  -5.146  0.00  0.00    -0.005 C 
ATOM     25  C   UNL     1      -5.393  -7.403  -4.396  0.00  0.00    +0.008 C 
BRANCH  24  26
ATOM     26  C   UNL     1      -7.045  -6.491  -6.034  0.00  0.00    +0.010 C 
BRANCH  26  27
ATOM     27  C   UNL     1      -6.593  -7.417  -7.166  0.00  0.00    -0.037 C 
ATOM     28  C   UNL     1      -6.209  -8.780  -6.587  0.00  0.00    +0.010 C 
ATOM     29  C   UNL     1      -7.734  -7.592  -8.169  0.00  0.00    +0.010 C 
ATOM     30  C   UNL     1      -5.382  -6.804  -7.872  0.00  0.00    +0.010 C 
ENDBRANCH  26  27
ENDBRANCH  24  26
ENDBRANCH  23  24
ENDBRANCH  20  23
ENDBRANCH  17  19
ENDBRANCH   4  13
BRANCH   3  31
ATOM     31  C   UNL     1      -4.425  -0.245   2.048  0.00  0.00    +0.248 C 
ATOM     32  O   UNL     1      -4.613   0.938   2.270  0.00  0.00    -0.270 OA
ATOM     33  N   UNL     1      -5.473  -1.075   1.878  0.00  0.00    -0.282 N 
ATOM     34  H   UNL     1      -5.326  -2.028   1.774  0.00  0.00    +0.155 HD
BRANCH  33  35
ATOM     35  C   UNL     1      -6.774  -0.561   1.853  0.00  0.00    +0.034 A 
ATOM     36  C   UNL     1      -7.008   0.716   1.360  0.00  0.00    +0.023 A 
ATOM     37  C   UNL     1      -8.294   1.220   1.336  0.00  0.00    +0.002 A 
ATOM     38  C   UNL     1      -9.347   0.455   1.803  0.00  0.00    +0.000 A 
ATOM     39  C   UNL     1      -9.117  -0.817   2.295  0.00  0.00    +0.002 A 
ATOM     40  C   UNL     1      -7.835  -1.330   2.315  0.00  0.00    +0.023 A 
ENDBRANCH  33  35
ENDBRANCH   3  31
TORSDOF 8
