REMARK  Name = ZINC44865806
REMARK  6 active torsions:
REMARK  status: ('A' for Active; 'I' for Inactive)
REMARK    1  A    between atoms: C_1  and  C_2
REMARK    2  A    between atoms: C_2  and  C_3
REMARK    3  A    between atoms: C_3  and  C_5
REMARK    4  A    between atoms: C_3  and  C_9
REMARK    5  A    between atoms: N_6  and  O_7
REMARK    6  A    between atoms: N_11  and  C_12
REMARK                            x       y       z     vdW  Elec       q    Type
REMARK                         _______ _______ _______ _____ _____    ______ ____
ROOT
ATOM      1  C   UNL     1      -1.565  -0.259  -1.531  0.00  0.00    +0.227 C 
ATOM      2  O   UNL     1      -1.550  -1.128  -2.377  0.00  0.00    -0.275 OA
ATOM      3  N   UNL     1      -2.166   0.920  -1.786  0.00  0.00    -0.285 N 
ATOM      4  H   UNL     1      -2.245   1.586  -1.086  0.00  0.00    +0.155 HD
ENDROOT
BRANCH   3   5
ATOM      5  C   UNL     1      -2.676   1.183  -3.064  0.00  0.00    +0.035 A 
ATOM      6  C   UNL     1      -3.154   0.143  -3.849  0.00  0.00    +0.026 A 
ATOM      7  C   UNL     1      -3.657   0.404  -5.109  0.00  0.00    +0.041 A 
ATOM      8  C   UNL     1      -3.685   1.703  -5.589  0.00  0.00    +0.142 A 
ATOM      9  C   UNL     1      -3.208   2.743  -4.807  0.00  0.00    +0.078 A 
ATOM     10  C   UNL     1      -2.709   2.486  -3.543  0.00  0.00    +0.046 A 
ATOM     11 CL   UNL     1      -3.244   4.370  -5.411  0.00  0.00    -0.081 Cl
ATOM     12  F   UNL     1      -4.176   1.956  -6.822  0.00  0.00    -0.204 F 
ENDBRANCH   3   5
BRANCH   1  13
ATOM     13  C   UNL     1      -0.912  -0.498  -0.194  0.00  0.00    +0.141 C 
BRANCH  13  14
ATOM     14  C   UNL     1      -1.956  -0.925   0.806  0.00  0.00    +0.144 C 
ATOM     15  N   UNL     1      -2.162  -2.180   1.029  0.00  0.00    -0.076 NA
ATOM     16  N   UNL     1      -2.691   0.024   1.482  0.00  0.00    -0.343 N 
ATOM     17  H   UNL     1      -2.536   0.967   1.315  0.00  0.00    +0.144 HD
ATOM     18  H   UNL     1      -3.363  -0.251   2.126  0.00  0.00    +0.144 HD
BRANCH  15  19
ATOM     19  O   UNL     1      -3.143  -2.581   1.968  0.00  0.00    -0.408 OA
ATOM     20  H   UNL     1      -3.225  -3.540   2.066  0.00  0.00    +0.328 HD
ENDBRANCH  15  19
ENDBRANCH  13  14
BRANCH  13  22
ATOM     21  C   UNL     1       0.944  -1.700   0.969  0.00  0.00    +0.005 C 
ATOM     22  C   UNL     1       0.142  -1.598  -0.330  0.00  0.00    +0.017 C 
ENDBRANCH  13  22
ENDBRANCH   1  13
TORSDOF 5
