REMARK  Name = ZINC40160669
REMARK  8 active torsions:
REMARK  status: ('A' for Active; 'I' for Inactive)
REMARK    1  A    between atoms: C_1  and  C_2
REMARK    2  A    between atoms: C_4  and  C_29
REMARK    3  A    between atoms: C_5  and  N_9
REMARK    4  A    between atoms: C_6  and  C_8
REMARK    5  A    between atoms: C_10  and  C_12
REMARK    6  A    between atoms: C_12  and  N_13
REMARK    7  A    between atoms: C_17  and  S_20
REMARK    8  A    between atoms: S_20  and  N_23
REMARK                            x       y       z     vdW  Elec       q    Type
REMARK                         _______ _______ _______ _____ _____    ______ ____
ROOT
ATOM      1  N   UNL     1       0.858  -6.983   2.265  0.00  0.00    -0.320 N 
ATOM      2  C   UNL     1       0.988  -8.352   2.468  0.00  0.00    +0.119 A 
ATOM      3  C   UNL     1       0.687  -9.235   1.435  0.00  0.00    +0.045 A 
ATOM      4  C   UNL     1       0.821 -10.594   1.651  0.00  0.00    +0.033 A 
ATOM      5  C   UNL     1       1.254 -11.027   2.898  0.00  0.00    +0.124 A 
ATOM      6  C   UNL     1       1.535 -10.097   3.877  0.00  0.00    +0.141 A 
ATOM      7  N   UNL     1       1.403  -8.805   3.641  0.00  0.00    -0.239 NA
ATOM      8  H   UNL     1       1.071  -6.364   2.981  0.00  0.00    +0.148 HD
ENDROOT
BRANCH   5   9
ATOM      9  S   UNL     1       1.441 -12.749   3.226  0.00  0.00    +0.062 S 
ATOM     10  O   UNL     1       1.334 -12.908   4.634  0.00  0.00    -0.153 OA
ATOM     11  O   UNL     1       0.589 -13.431   2.315  0.00  0.00    -0.153 OA
BRANCH   9  12
ATOM     12  N   UNL     1       2.993 -13.159   2.820  0.00  0.00    -0.172 NA
ATOM     13  C   UNL     1       3.327 -13.605   1.458  0.00  0.00    +0.137 C 
ATOM     14  C   UNL     1       4.524 -12.786   0.960  0.00  0.00    +0.177 C 
ATOM     15  O   UNL     1       5.575 -12.855   1.927  0.00  0.00    -0.377 OA
ATOM     16  C   UNL     1       5.239 -12.293   3.198  0.00  0.00    +0.177 C 
ATOM     17  C   UNL     1       4.080 -13.081   3.808  0.00  0.00    +0.137 C 
ENDBRANCH   9  12
ENDBRANCH   5   9
BRANCH   1  18
ATOM     18  C   UNL     1       0.399  -6.476   0.969  0.00  0.00    +0.199 C 
BRANCH  18  20
ATOM     19  N   UNL     1      -0.052  -4.280  -0.077  0.00  0.00    -0.284 N 
ATOM     20  C   UNL     1       0.345  -4.970   1.011  0.00  0.00    +0.234 C 
ATOM     21  O   UNL     1       0.659  -4.380   2.022  0.00  0.00    -0.274 OA
ATOM     22  H   UNL     1      -0.370  -4.753  -0.862  0.00  0.00    +0.155 HD
BRANCH  19  27
ATOM     23  C   UNL     1       0.136   1.390  -0.065  0.00  0.00    +0.044 C 
ATOM     24  C   UNL     1       0.086  -0.116  -0.068  0.00  0.00    -0.050 A 
ATOM     25  C   UNL     1       0.759  -0.827  -1.045  0.00  0.00    +0.008 A 
ATOM     26  C   UNL     1       0.715  -2.207  -1.051  0.00  0.00    -0.029 A 
ATOM     27  C   UNL     1      -0.005  -2.882  -0.074  0.00  0.00    +0.039 A 
ATOM     28  C   UNL     1      -0.679  -2.165   0.906  0.00  0.00    -0.029 A 
ATOM     29  C   UNL     1      -0.628  -0.785   0.909  0.00  0.00    +0.008 A 
ATOM     30  C   UNL     1      -1.463  -2.893   1.968  0.00  0.00    +0.045 C 
ATOM     31  C   UNL     1       1.448  -2.981  -2.117  0.00  0.00    +0.045 C 
ENDBRANCH  19  27
ENDBRANCH  18  20
ENDBRANCH   1  18
TORSDOF 5
