REMARK  Name = ZINC35069373
REMARK  15 active torsions:
REMARK  status: ('A' for Active; 'I' for Inactive)
REMARK    1  A    between atoms: C_1  and  C_2
REMARK    2  A    between atoms: C_2  and  C_3
REMARK    3  A    between atoms: C_3  and  C_4
REMARK    4  A    between atoms: C_4  and  C_5
REMARK    5  A    between atoms: C_5  and  C_6
REMARK    6  A    between atoms: N_8  and  C_9
REMARK    7  A    between atoms: N_8  and  C_14
REMARK    8  A    between atoms: C_9  and  C_10
REMARK    9  A    between atoms: C_10  and  N_11
REMARK   10  A    between atoms: N_11  and  C_12
REMARK   11  A    between atoms: N_11  and  C_13
REMARK   12  A    between atoms: C_14  and  C_16
REMARK   13  A    between atoms: C_14  and  C_18
REMARK   14  A    between atoms: C_16  and  C_17
REMARK   15  A    between atoms: N_28  and  C_29
REMARK                            x       y       z     vdW  Elec       q    Type
REMARK                         _______ _______ _______ _____ _____    ______ ____
ROOT
ATOM      1  C   UNL     1       3.687  -6.384  -3.640  0.00  0.00    +0.138 A 
ATOM      2  N   UNL     1       4.148  -6.644  -4.825  0.00  0.00    -0.231 NA
ATOM      3  C   UNL     1       5.373  -7.199  -5.006  0.00  0.00    +0.078 A 
ATOM      4  C   UNL     1       5.870  -7.478  -6.281  0.00  0.00    +0.028 A 
ATOM      5  C   UNL     1       7.119  -8.041  -6.418  0.00  0.00    +0.002 A 
ATOM      6  C   UNL     1       7.893  -8.335  -5.303  0.00  0.00    +0.001 A 
ATOM      7  C   UNL     1       7.425  -8.069  -4.035  0.00  0.00    +0.015 A 
ATOM      8  C   UNL     1       6.163  -7.499  -3.874  0.00  0.00    +0.065 A 
ATOM      9  C   UNL     1       5.612  -7.192  -2.546  0.00  0.00    +0.266 A 
ATOM     10  O   UNL     1       6.242  -7.425  -1.531  0.00  0.00    -0.267 OA
ATOM     11  N   UNL     1       4.380  -6.635  -2.496  0.00  0.00    -0.263 N 
ENDROOT
BRANCH  11  12
ATOM     12  C   UNL     1       3.811  -6.318  -1.256  0.00  0.00    +0.051 A 
ATOM     13  C   UNL     1       2.823  -7.131  -0.717  0.00  0.00    +0.027 A 
ATOM     14  C   UNL     1       2.263  -6.816   0.506  0.00  0.00    +0.017 A 
ATOM     15  C   UNL     1       2.686  -5.692   1.194  0.00  0.00    +0.018 A 
ATOM     16  C   UNL     1       3.671  -4.881   0.658  0.00  0.00    +0.017 A 
ATOM     17  C   UNL     1       4.238  -5.194  -0.561  0.00  0.00    +0.027 A 
ATOM     18 BR   UNL     1       1.918  -5.265   2.868  0.00  0.00    -0.050 Br
ENDBRANCH  11  12
BRANCH   1  19
ATOM     19  C   UNL     1       2.317  -5.767  -3.525  0.00  0.00    +0.142 C 
BRANCH  19  22
ATOM     20  C   UNL     1       1.826  -3.832  -2.128  0.00  0.00    +0.216 C 
ATOM     21  O   UNL     1       1.159  -4.552  -1.416  0.00  0.00    -0.276 OA
ATOM     22  N   UNL     1       2.447  -4.343  -3.210  0.00  0.00    -0.293 N 
BRANCH  20  23
ATOM     23  C   UNL     1       1.960  -2.366  -1.804  0.00  0.00    +0.096 C 
BRANCH  23  24
ATOM     24  C   UNL     1       1.164  -2.050  -0.537  0.00  0.00    +0.009 C 
BRANCH  24  25
ATOM     25  C   UNL     1       1.300  -0.562  -0.207  0.00  0.00    +0.000 C 
BRANCH  25  27
ATOM     26  C   UNL     1       0.640   1.243   1.389  0.00  0.00    +0.004 C 
ATOM     27  C   UNL     1       0.504  -0.245   1.060  0.00  0.00    -0.003 C 
ENDBRANCH  25  27
ENDBRANCH  24  25
ENDBRANCH  23  24
ENDBRANCH  20  23
BRANCH  22  28
ATOM     28  C   UNL     1       3.253  -3.473  -4.071  0.00  0.00    +0.090 C 
BRANCH  28  29
ATOM     29  C   UNL     1       4.662  -3.342  -3.489  0.00  0.00    -0.060 C 
BRANCH  29  30
ATOM     30  N   UNL     1       5.450  -2.419  -4.316  0.00  0.00    +0.377 N 
ATOM     31  C   UNL     1       4.870  -1.072  -4.235  0.00  0.00    -0.097 C 
ATOM     32  C   UNL     1       6.835  -2.386  -3.828  0.00  0.00    -0.097 C 
ATOM     33  H   UNL     1       5.438  -2.733  -5.275  0.00  0.00    -0.083 HD
ENDBRANCH  29  30
ENDBRANCH  28  29
ENDBRANCH  22  28
ENDBRANCH  19  22
BRANCH  19  34
ATOM     34  C   UNL     1       1.572  -5.930  -4.851  0.00  0.00    +0.027 C 
ATOM     35  C   UNL     1       0.139  -5.414  -4.699  0.00  0.00    +0.006 C 
ENDBRANCH  19  34
ENDBRANCH   1  19
TORSDOF 11
