REMARK  Name = ZINC13680505
REMARK  6 active torsions:
REMARK  status: ('A' for Active; 'I' for Inactive)
REMARK    1  A    between atoms: C_4  and  C_8
REMARK    2  A    between atoms: C_8  and  S_9
REMARK    3  A    between atoms: S_9  and  N_12
REMARK    4  A    between atoms: C_16  and  C_19
REMARK    5  A    between atoms: N_21  and  C_22
REMARK    6  A    between atoms: C_24  and  N_29
REMARK                            x       y       z     vdW  Elec       q    Type
REMARK                         _______ _______ _______ _____ _____    ______ ____
ROOT
ATOM      1  N   UNL     1       2.633  -4.125  -0.341  0.00  0.00    -0.180 NA
ATOM      2  C   UNL     1       1.960  -4.822   0.763  0.00  0.00    +0.109 C 
ATOM      3  C   UNL     1       0.521  -4.306   0.869  0.00  0.00    +0.018 C 
ATOM      4  C   UNL     1       0.539  -2.782   1.006  0.00  0.00    +0.015 C 
ATOM      5  C   UNL     1       1.185  -2.163  -0.236  0.00  0.00    +0.091 C 
ATOM      6  C   UNL     1       2.631  -2.656  -0.354  0.00  0.00    +0.121 C 
ENDROOT
BRANCH   5   7
ATOM      7  C   UNL     1       1.173  -0.661  -0.114  0.00  0.00    +0.222 C 
ATOM      8  O   UNL     1       2.217  -0.044  -0.121  0.00  0.00    -0.275 OA
ATOM      9  N   UNL     1       0.002  -0.004   0.002  0.00  0.00    -0.284 N 
ATOM     10  H   UNL     1      -0.828  -0.501   0.073  0.00  0.00    +0.155 HD
BRANCH   9  11
ATOM     11  C   UNL     1      -0.016   1.395   0.021  0.00  0.00    +0.054 A 
ATOM     12  C   UNL     1       1.022   2.097   0.620  0.00  0.00    +0.057 A 
ATOM     13  C   UNL     1       1.002   3.478   0.637  0.00  0.00    +0.128 A 
ATOM     14  C   UNL     1      -0.051   4.163   0.057  0.00  0.00    +0.034 A 
ATOM     15  C   UNL     1      -1.086   3.468  -0.540  0.00  0.00    +0.024 A 
ATOM     16  C   UNL     1      -1.069   2.086  -0.565  0.00  0.00    +0.062 A 
ATOM     17 CL   UNL     1      -2.366   1.215  -1.322  0.00  0.00    -0.082 Cl
BRANCH  13  18
ATOM     18  N   UNL     1       2.108   4.225   1.276  0.00  0.00    +0.056 N 
ATOM     19  O   UNL     1       3.035   3.623   1.787  0.00  0.00    -0.126 OA
ATOM     20  O   UNL     1       2.091   5.443   1.291  0.00  0.00    -0.126 OA
ENDBRANCH  13  18
ENDBRANCH   9  11
ENDBRANCH   5   7
BRANCH   1  21
ATOM     21  S   UNL     1       3.379  -4.978  -1.548  0.00  0.00    +0.036 S 
ATOM     22  O   UNL     1       2.701  -6.227  -1.581  0.00  0.00    -0.158 OA
ATOM     23  O   UNL     1       3.356  -4.111  -2.673  0.00  0.00    -0.158 OA
BRANCH  21  24
ATOM     24  C   UNL     1       5.084  -5.208  -0.971  0.00  0.00    +0.223 C 
BRANCH  24  28
ATOM     25  C   UNL     1       7.294  -7.402  -3.897  0.00  0.00    +0.003 A 
ATOM     26  C   UNL     1       7.254  -6.021  -3.953  0.00  0.00    +0.020 A 
ATOM     27  C   UNL     1       6.539  -5.311  -3.006  0.00  0.00    +0.047 A 
ATOM     28  C   UNL     1       5.863  -5.982  -2.003  0.00  0.00    +0.012 A 
ATOM     29  C   UNL     1       5.908  -7.363  -1.944  0.00  0.00    +0.047 A 
ATOM     30  C   UNL     1       6.620  -8.073  -2.895  0.00  0.00    +0.020 A 
ATOM     31 CL   UNL     1       5.066  -8.206  -0.681  0.00  0.00    -0.083 Cl
ATOM     32 CL   UNL     1       6.488  -3.577  -3.077  0.00  0.00    -0.083 Cl
ENDBRANCH  24  28
ENDBRANCH  21  24
ENDBRANCH   1  21
TORSDOF 6
