REMARK  Name = ZINC05776235
REMARK  8 active torsions:
REMARK  status: ('A' for Active; 'I' for Inactive)
REMARK    1  A    between atoms: C_1  and  C_2
REMARK    2  A    between atoms: C_2  and  C_3
REMARK    3  A    between atoms: C_10  and  C_12
REMARK    4  A    between atoms: C_15  and  S_18
REMARK    5  A    between atoms: N_16  and  C_17
REMARK    6  A    between atoms: S_18  and  C_19
REMARK    7  A    between atoms: C_19  and  C_20
REMARK    8  A    between atoms: N_25  and  C_26
REMARK                            x       y       z     vdW  Elec       q    Type
REMARK                         _______ _______ _______ _____ _____    ______ ____
ROOT
ATOM      1  C   UNL     1       2.622   8.380   1.317  0.00  0.00    +0.171 A 
ATOM      2  N   UNL     1       3.761   8.263   0.670  0.00  0.00    -0.128 NA
ATOM      3  N   UNL     1       4.398   9.378   0.698  0.00  0.00    -0.122 NA
ATOM      4  C   UNL     1       3.709  10.277   1.364  0.00  0.00    +0.192 A 
ATOM      5  N   UNL     1       2.552   9.676   1.777  0.00  0.00    -0.305 N 
ATOM      6  C   UNL     1       1.466  10.283   2.551  0.00  0.00    +0.153 C 
ENDROOT
BRANCH   1  13
ATOM      7  C   UNL     1      -0.750   3.109   1.275  0.00  0.00    -0.007 C 
ATOM      8  C   UNL     1      -1.578   3.599   2.466  0.00  0.00    +0.009 C 
ATOM      9  C   UNL     1      -1.816   5.110   2.312  0.00  0.00    +0.043 C 
ATOM     10  C   UNL     1      -0.510   5.758   1.983  0.00  0.00    -0.006 A 
ATOM     11  C   UNL     1       0.637   5.150   1.566  0.00  0.00    -0.036 A 
ATOM     12  C   UNL     1       1.728   5.975   1.325  0.00  0.00    +0.023 A 
ATOM     13  C   UNL     1       1.612   7.327   1.509  0.00  0.00    +0.057 A 
ATOM     14  S   UNL     1      -0.086   7.478   2.043  0.00  0.00    -0.090 S 
ATOM     15  C   UNL     1       0.682   3.635   1.384  0.00  0.00    +0.039 C 
BRANCH   7  17
ATOM     16  C   UNL     1      -0.013   1.086   0.008  0.00  0.00    +0.004 C 
ATOM     17  C   UNL     1      -0.729   1.579   1.267  0.00  0.00    +0.000 C 
ENDBRANCH   7  17
ENDBRANCH   1  13
BRANCH   4  18
ATOM     18  S   UNL     1       4.183  11.947   1.664  0.00  0.00    -0.077 S 
BRANCH  18  19
ATOM     19  C   UNL     1       5.783  11.975   0.818  0.00  0.00    +0.173 C 
BRANCH  19  20
ATOM     20  C   UNL     1       6.395  13.347   0.945  0.00  0.00    +0.231 C 
ATOM     21  O   UNL     1       5.807  14.219   1.548  0.00  0.00    -0.274 OA
ATOM     22  N   UNL     1       7.595  13.604   0.389  0.00  0.00    -0.239 N 
ATOM     23  C   UNL     1       8.142  14.831   0.503  0.00  0.00    +0.306 C 
ATOM     24  O   UNL     1       7.552  15.705   1.108  0.00  0.00    -0.252 OA
ATOM     25  N   UNL     1       9.342  15.088  -0.054  0.00  0.00    -0.296 N 
ATOM     26  H   UNL     1       8.065  12.906  -0.094  0.00  0.00    +0.159 HD
ATOM     27  H   UNL     1       9.812  14.390  -0.536  0.00  0.00    +0.151 HD
BRANCH  25  28
ATOM     28  C   UNL     1       9.936  16.421   0.070  0.00  0.00    +0.075 C 
ATOM     29  C   UNL     1      10.576  17.028  -1.179  0.00  0.00    +0.024 C 
ATOM     30  C   UNL     1      11.459  16.528  -0.033  0.00  0.00    +0.024 C 
ENDBRANCH  25  28
ENDBRANCH  19  20
ENDBRANCH  18  19
ENDBRANCH   4  18
TORSDOF 6
