REMARK  Name = ZINC64640136
REMARK  7 active torsions:
REMARK  status: ('A' for Active; 'I' for Inactive)
REMARK    1  A    between atoms: C_1  and  C_2
REMARK    2  A    between atoms: C_2  and  N_3
REMARK    3  A    between atoms: C_5  and  C_9
REMARK    4  A    between atoms: C_6  and  C_8
REMARK    5  A    between atoms: C_9  and  N_10
REMARK    6  A    between atoms: C_23  and  C_25
REMARK    7  A    between atoms: N_34  and  C_35
REMARK                            x       y       z     vdW  Elec       q    Type
REMARK                         _______ _______ _______ _____ _____    ______ ____
ROOT
ATOM      1  N   UNL     1      -5.059  -1.755  -1.950  0.00  0.00    -0.289 NA
ATOM      2  C   UNL     1      -5.649  -0.839  -0.970  0.00  0.00    +0.089 C 
ATOM      3  C   UNL     1      -6.410   0.291  -1.688  0.00  0.00    +0.049 C 
ATOM      4  C   UNL     1      -7.316  -0.383  -2.689  0.00  0.00    -0.036 C 
ATOM      5  C   UNL     1      -8.607  -0.251  -2.955  0.00  0.00    -0.001 A 
ATOM      6  C   UNL     1      -9.618   0.701  -2.466  0.00  0.00    +0.010 A 
ATOM      7  C   UNL     1     -10.881   0.528  -2.938  0.00  0.00    +0.001 A 
ATOM      8  C   UNL     1     -11.236  -0.484  -3.836  0.00  0.00    +0.002 A 
ATOM      9  C   UNL     1     -10.370  -1.395  -4.345  0.00  0.00    +0.026 A 
ATOM     10  C   UNL     1      -9.009  -1.309  -3.932  0.00  0.00    +0.043 A 
ATOM     11  N   UNL     1      -7.977  -2.023  -4.279  0.00  0.00    -0.376 N 
ATOM     12  C   UNL     1      -6.793  -1.464  -3.631  0.00  0.00    +0.127 C 
ATOM     13  C   UNL     1      -6.061  -2.478  -2.750  0.00  0.00    +0.122 C 
ATOM     14  H   UNL     1      -7.992  -2.794  -4.868  0.00  0.00    +0.160 HD
ENDROOT
BRANCH  13  15
ATOM     15  C   UNL     1      -7.060  -3.170  -1.821  0.00  0.00    +0.178 C 
ATOM     16  N   UNL     1      -7.699  -2.186  -0.939  0.00  0.00    -0.323 N 
ATOM     17  C   UNL     1      -7.382  -2.540   0.380  0.00  0.00    +0.050 A 
ATOM     18  C   UNL     1      -7.734  -1.942   1.584  0.00  0.00    +0.025 A 
ATOM     19  C   UNL     1      -7.297  -2.479   2.779  0.00  0.00    +0.002 A 
ATOM     20  C   UNL     1      -6.508  -3.614   2.783  0.00  0.00    +0.002 A 
ATOM     21  C   UNL     1      -6.153  -4.215   1.591  0.00  0.00    +0.025 A 
ATOM     22  C   UNL     1      -6.587  -3.682   0.383  0.00  0.00    +0.052 A 
ATOM     23  N   UNL     1      -6.361  -4.108  -0.935  0.00  0.00    -0.312 N 
ATOM     24  C   UNL     1      -5.575  -5.273  -1.349  0.00  0.00    +0.131 C 
ATOM     25  H   UNL     1      -8.239  -1.430  -1.218  0.00  0.00    +0.148 HD
ENDBRANCH  13  15
BRANCH   1  26
ATOM     26  C   UNL     1      -4.128  -2.689  -1.304  0.00  0.00    +0.123 C 
BRANCH  26  29
ATOM     27  N   UNL     1      -1.448  -0.943   0.448  0.00  0.00    -0.271 N 
ATOM     28  C   UNL     1      -2.624  -1.605   0.447  0.00  0.00    +0.113 A 
ATOM     29  C   UNL     1      -2.909  -1.939  -0.833  0.00  0.00    +0.007 A 
ATOM     30  C   UNL     1      -1.871  -1.464  -1.643  0.00  0.00    +0.064 A 
ATOM     31  N   UNL     1      -0.998  -0.862  -0.876  0.00  0.00    -0.176 NA
ATOM     32  C   UNL     1      -1.779  -1.614  -3.139  0.00  0.00    +0.068 C 
BRANCH  27  34
ATOM     33  C   UNL     1       0.661  -0.950   1.686  0.00  0.00    +0.029 C 
ATOM     34  C   UNL     1      -0.765  -0.400   1.625  0.00  0.00    +0.140 C 
ENDBRANCH  27  34
ENDBRANCH  26  29
ENDBRANCH   1  26
TORSDOF 4
