REMARK  Name = ZINC07791896
REMARK  9 active torsions:
REMARK  status: ('A' for Active; 'I' for Inactive)
REMARK    1  A    between atoms: C_1  and  C_2
REMARK    2  A    between atoms: C_8  and  N_10
REMARK    3  A    between atoms: C_11  and  C_13
REMARK    4  A    between atoms: C_13  and  C_15
REMARK    5  A    between atoms: C_13  and  O_16
REMARK    6  A    between atoms: O_16  and  C_17
REMARK    7  A    between atoms: C_17  and  C_19
REMARK    8  A    between atoms: C_22  and  N_25
REMARK    9  A    between atoms: C_26  and  C_28
REMARK                            x       y       z     vdW  Elec       q    Type
REMARK                         _______ _______ _______ _____ _____    ______ ____
ROOT
ATOM      1  C   UNL     1      -1.467  -1.228  -6.808  0.00  0.00    +0.340 C 
ATOM      2  O   UNL     1      -2.514  -0.648  -6.596  0.00  0.00    -0.245 OA
ENDROOT
BRANCH   1   3
ATOM      3  C   UNL     1      -1.359  -2.166  -7.940  0.00  0.00    +0.059 A 
ATOM      4  C   UNL     1      -0.153  -2.829  -8.188  0.00  0.00    +0.017 A 
ATOM      5  C   UNL     1      -0.057  -3.708  -9.243  0.00  0.00    +0.024 A 
ATOM      6  C   UNL     1      -1.156  -3.929 -10.068  0.00  0.00    +0.034 A 
ATOM      7  C   UNL     1      -2.356  -3.266  -9.828  0.00  0.00    +0.024 A 
ATOM      8  C   UNL     1      -2.460  -2.390  -8.771  0.00  0.00    +0.017 A 
BRANCH   6   9
ATOM      9  N   UNL     1      -1.054  -4.816 -11.138  0.00  0.00    -0.279 N 
ATOM     10  C   UNL     1      -1.740  -4.583 -12.274  0.00  0.00    +0.284 C 
ATOM     11  O   UNL     1      -2.373  -3.551 -12.402  0.00  0.00    -0.266 OA
ATOM     12  H   UNL     1      -0.489  -5.601 -11.065  0.00  0.00    +0.155 HD
BRANCH  10  13
ATOM     13  C   UNL     1      -1.726  -5.572 -13.355  0.00  0.00    +0.189 A 
ATOM     14  C   UNL     1      -2.374  -5.463 -14.552  0.00  0.00    +0.054 A 
ATOM     15  C   UNL     1      -2.084  -6.630 -15.276  0.00  0.00    +0.042 A 
ATOM     16  C   UNL     1      -1.282  -7.391 -14.499  0.00  0.00    +0.196 A 
ATOM     17  O   UNL     1      -1.064  -6.748 -13.345  0.00  0.00    -0.458 OA
ENDBRANCH  10  13
ENDBRANCH   6   9
ENDBRANCH   1   3
BRANCH   1  18
ATOM     18  O   UNL     1      -0.404  -1.012  -6.007  0.00  0.00    -0.449 OA
BRANCH  18  19
ATOM     19  C   UNL     1      -0.583  -0.076  -4.912  0.00  0.00    +0.259 C 
ATOM     20  C   UNL     1      -0.220   1.334  -5.383  0.00  0.00    +0.062 C 
BRANCH  19  22
ATOM     21  N   UNL     1       0.242   0.200  -2.596  0.00  0.00    -0.309 N 
ATOM     22  C   UNL     1       0.312  -0.468  -3.765  0.00  0.00    +0.254 C 
ATOM     23  O   UNL     1       1.095  -1.386  -3.893  0.00  0.00    -0.272 OA
ATOM     24  H   UNL     1      -0.384   0.934  -2.494  0.00  0.00    +0.149 HD
BRANCH  21  31
ATOM     25  C   UNL     1      -0.890  -0.454  -0.013  0.00  0.00    +0.009 C 
ATOM     26  C   UNL     1       0.464   0.241  -0.161  0.00  0.00    +0.006 C 
ATOM     27  C   UNL     1       0.262   1.758  -0.155  0.00  0.00    +0.005 C 
ATOM     28  C   UNL     1       1.616   2.454  -0.303  0.00  0.00    +0.000 C 
ATOM     29  C   UNL     1       2.265   2.031  -1.623  0.00  0.00    +0.002 C 
ATOM     30  C   UNL     1       2.467   0.515  -1.630  0.00  0.00    +0.022 C 
ATOM     31  C   UNL     1       1.112  -0.181  -1.481  0.00  0.00    +0.076 C 
ENDBRANCH  21  31
ENDBRANCH  19  22
ENDBRANCH  18  19
ENDBRANCH   1  18
TORSDOF 7
