REMARK  Name = ZINC09319253
REMARK  3 active torsions:
REMARK  status: ('A' for Active; 'I' for Inactive)
REMARK    1  A    between atoms: C_1  and  C_2
REMARK    2  A    between atoms: C_8  and  C_10
REMARK    3  A    between atoms: N_18  and  C_19
REMARK                            x       y       z     vdW  Elec       q    Type
REMARK                         _______ _______ _______ _____ _____    ______ ____
ROOT
ATOM      1  C   UNL     1       4.915   8.009   0.504  0.00  0.00    +0.135 A 
ATOM      2  C   UNL     1       5.973   7.139   0.467  0.00  0.00    +0.081 A 
ATOM      3  S   UNL     1       5.163   5.611   0.315  0.00  0.00    -0.060 S 
ATOM      4  C   UNL     1       3.486   6.224   0.310  0.00  0.00    +0.166 A 
ATOM      5  N   UNL     1       3.674   7.523   0.417  0.00  0.00    -0.220 NA
ATOM      6  N   UNL     1       2.295   5.516   0.213  0.00  0.00    -0.248 N 
ATOM      7  C   UNL     1       2.317   4.173   0.104  0.00  0.00    +0.310 C 
ATOM      8  O   UNL     1       3.378   3.581   0.091  0.00  0.00    -0.252 OA
ATOM      9  N   UNL     1       1.161   3.486   0.010  0.00  0.00    -0.269 N 
ATOM     10  H   UNL     1       1.448   5.988   0.224  0.00  0.00    +0.158 HD
ATOM     11  H   UNL     1       0.318   3.962  -0.058  0.00  0.00    +0.156 HD
ENDROOT
BRANCH   1  19
ATOM     12  C   UNL     1       2.783  15.014   1.007  0.00  0.00    +0.066 C 
ATOM     13  C   UNL     1       3.802  13.906   0.950  0.00  0.00    +0.047 A 
ATOM     14  C   UNL     1       5.128  14.179   1.015  0.00  0.00    +0.071 A 
ATOM     15  S   UNL     1       5.812  12.533   0.902  0.00  0.00    -0.060 S 
ATOM     16  C   UNL     1       4.309  11.671   0.783  0.00  0.00    +0.165 A 
ATOM     17  N   UNL     1       3.425  12.648   0.829  0.00  0.00    -0.230 NA
ATOM     18  N   UNL     1       4.094  10.304   0.664  0.00  0.00    -0.259 N 
ATOM     19  C   UNL     1       5.143   9.457   0.630  0.00  0.00    +0.269 C 
ATOM     20  O   UNL     1       6.277   9.890   0.702  0.00  0.00    -0.268 OA
ATOM     21  H   UNL     1       3.190   9.958   0.607  0.00  0.00    +0.157 HD
ENDBRANCH   1  19
BRANCH   9  22
ATOM     22  C   UNL     1       1.177   2.086   0.009  0.00  0.00    +0.035 A 
ATOM     23  C   UNL     1       2.133   1.401   0.746  0.00  0.00    +0.025 A 
ATOM     24  C   UNL     1       2.147   0.020   0.743  0.00  0.00    +0.022 A 
ATOM     25  C   UNL     1       1.208  -0.681   0.007  0.00  0.00    +0.041 A 
ATOM     26  C   UNL     1       0.253  -0.000  -0.729  0.00  0.00    +0.022 A 
ATOM     27  C   UNL     1       0.236   1.381  -0.730  0.00  0.00    +0.025 A 
ATOM     28 CL   UNL     1       1.227  -2.417   0.005  0.00  0.00    -0.084 Cl
ENDBRANCH   9  22
TORSDOF 2
