REMARK  Name = ZINC11285359
REMARK  7 active torsions:
REMARK  status: ('A' for Active; 'I' for Inactive)
REMARK    1  A    between atoms: C_1  and  C_2
REMARK    2  A    between atoms: C_16  and  C_17
REMARK    3  A    between atoms: C_16  and  N_61
REMARK    4  A    between atoms: N_22  and  C_23
REMARK    5  A    between atoms: C_23  and  C_24
REMARK    6  A    between atoms: C_24  and  O_25
REMARK    7  A    between atoms: O_25  and  C_26
REMARK                            x       y       z     vdW  Elec       q    Type
REMARK                         _______ _______ _______ _____ _____    ______ ____
ROOT
ATOM      1  C   UNL     1      -2.894   1.263   0.314  0.00  0.00    -0.008 C 
ATOM      2  C   UNL     1      -1.941   0.925   1.462  0.00  0.00    -0.040 C 
ATOM      3  C   UNL     1      -2.554   1.372   2.763  0.00  0.00    -0.054 A 
ATOM      4  C   UNL     1      -3.908   1.155   2.965  0.00  0.00    +0.051 A 
ATOM      5  C   UNL     1      -4.514   1.544   4.148  0.00  0.00    +0.162 A 
ATOM      6  C   UNL     1      -3.756   2.152   5.142  0.00  0.00    +0.162 A 
ATOM      7  C   UNL     1      -2.404   2.372   4.933  0.00  0.00    +0.053 A 
ATOM      8  C   UNL     1      -1.803   1.986   3.745  0.00  0.00    -0.038 A 
ATOM      9  C   UNL     1      -0.335   2.256   3.557  0.00  0.00    -0.019 C 
ATOM     10  C   UNL     1       0.424   1.921   4.855  0.00  0.00    +0.010 C 
ATOM     11  C   UNL     1       1.516   3.017   4.948  0.00  0.00    +0.001 C 
ATOM     12  C   UNL     1       0.781   4.278   4.427  0.00  0.00    +0.001 C 
ATOM     13  C   UNL     1      -0.110   3.750   3.282  0.00  0.00    +0.010 C 
ATOM     14  C   UNL     1       0.222   1.424   2.405  0.00  0.00    -0.066 C 
ATOM     15  O   UNL     1      -4.324   2.524   6.316  0.00  0.00    -0.485 OA
ATOM     16  C   UNL     1      -5.738   2.573   6.417  0.00  0.00    +0.270 C 
ATOM     17  C   UNL     1      -6.399   1.457   5.623  0.00  0.00    +0.270 C 
ATOM     18  O   UNL     1      -5.843   1.336   4.323  0.00  0.00    -0.485 OA
ATOM     19  N   UNL     1      -0.662   1.621   1.238  0.00  0.00    +0.390 N 
ATOM     20  H   UNL     1      -0.843   2.624   1.120  0.00  0.00    -0.080 HD
ENDROOT
BRANCH  19  21
ATOM     21  C   UNL     1      -0.011   1.101   0.014  0.00  0.00    +0.020 C 
BRANCH  21  22
ATOM     22  C   UNL     1       1.079   2.055  -0.400  0.00  0.00    +0.204 C 
ATOM     23  O   UNL     1       1.237   3.095   0.204  0.00  0.00    -0.277 OA
ATOM     24  N   UNL     1       1.880   1.752  -1.440  0.00  0.00    -0.242 N 
ATOM     25  C   UNL     1       2.856   2.606  -1.811  0.00  0.00    +0.306 C 
ATOM     26  O   UNL     1       3.013   3.648  -1.206  0.00  0.00    -0.252 OA
ATOM     27  N   UNL     1       3.657   2.303  -2.852  0.00  0.00    -0.297 N 
ATOM     28  H   UNL     1       1.755   0.921  -1.923  0.00  0.00    +0.159 HD
ATOM     29  H   UNL     1       3.531   1.471  -3.334  0.00  0.00    +0.150 HD
BRANCH  27  30
ATOM     30  C   UNL     1       4.717   3.231  -3.254  0.00  0.00    +0.133 C 
BRANCH  30  31
ATOM     31  C   UNL     1       5.473   2.652  -4.452  0.00  0.00    +0.178 C 
BRANCH  31  32
ATOM     32  O   UNL     1       4.594   2.572  -5.576  0.00  0.00    -0.381 OA
ATOM     33  C   UNL     1       5.205   2.042  -6.754  0.00  0.00    +0.194 C 
ENDBRANCH  31  32
ENDBRANCH  30  31
ENDBRANCH  27  30
ENDBRANCH  21  22
ENDBRANCH  19  21
TORSDOF 5
