REMARK  Name = ZINC13498574
REMARK  16 active torsions:
REMARK  status: ('A' for Active; 'I' for Inactive)
REMARK    1  A    between atoms: C_1  and  C_2
REMARK    2  A    between atoms: C_7  and  C_14
REMARK    3  A    between atoms: C_14  and  N_70
REMARK    4  A    between atoms: C_15  and  C_16
REMARK    5  A    between atoms: C_15  and  N_70
REMARK    6  A    between atoms: C_16  and  C_17
REMARK    7  A    between atoms: C_17  and  O_18
REMARK    8  A    between atoms: C_19  and  C_21
REMARK    9  A    between atoms: C_19  and  C_35
REMARK   10  A    between atoms: C_19  and  N_70
REMARK   11  A    between atoms: N_25  and  C_26
REMARK   12  A    between atoms: C_26  and  C_27
REMARK   13  A    between atoms: C_30  and  O_33
REMARK   14  A    between atoms: O_33  and  C_34
REMARK   15  A    between atoms: C_35  and  C_36
REMARK   16  A    between atoms: C_35  and  C_37
REMARK                            x       y       z     vdW  Elec       q    Type
REMARK                         _______ _______ _______ _____ _____    ______ ____
ROOT
ATOM      1  N   UNL     1      -1.986   4.199   1.515  0.00  0.00    +0.389 N 
ATOM      2  H   UNL     1      -1.860   5.179   1.793  0.00  0.00    -0.080 HD
ENDROOT
BRANCH   1   3
ATOM      3  C   UNL     1      -2.359   4.150   0.085  0.00  0.00    -0.037 C 
BRANCH   3  10
ATOM      4  C   UNL     1       2.780   8.384  -4.306  0.00  0.00    +0.044 C 
ATOM      5  C   UNL     1       1.924   7.396  -3.556  0.00  0.00    -0.048 A 
ATOM      6  C   UNL     1       2.176   6.037  -3.678  0.00  0.00    +0.004 A 
ATOM      7  C   UNL     1       1.412   5.125  -3.007  0.00  0.00    +0.010 A 
ATOM      8  C   UNL     1       0.366   5.565  -2.189  0.00  0.00    -0.001 A 
ATOM      9  C   UNL     1      -0.473   4.616  -1.455  0.00  0.00    +0.017 A 
ATOM     10  C   UNL     1      -1.473   5.101  -0.678  0.00  0.00    +0.001 A 
ATOM     11  C   UNL     1      -1.690   6.492  -0.586  0.00  0.00    +0.251 A 
ATOM     12  O   UNL     1      -2.594   6.907   0.119  0.00  0.00    -0.268 OA
ATOM     13  N   UNL     1      -0.925   7.372  -1.256  0.00  0.00    -0.322 N 
ATOM     14  H   UNL     1      -1.102   8.322  -1.170  0.00  0.00    +0.169 HD
ATOM     15  C   UNL     1       0.107   6.943  -2.062  0.00  0.00    +0.049 A 
ATOM     16  C   UNL     1       0.899   7.853  -2.756  0.00  0.00    +0.029 A 
ENDBRANCH   3  10
ENDBRANCH   1   3
BRANCH   1  17
ATOM     17  C   UNL     1      -0.718   3.471   1.731  0.00  0.00    -0.075 C 
BRANCH  17  18
ATOM     18  C   UNL     1       0.443   4.453   1.558  0.00  0.00    +0.009 C 
BRANCH  18  19
ATOM     19  C   UNL     1       1.769   3.701   1.685  0.00  0.00    +0.154 C 
BRANCH  19  20
ATOM     20  O   UNL     1       2.853   4.619   1.524  0.00  0.00    -0.395 OA
ATOM     21  H   UNL     1       3.727   4.211   1.592  0.00  0.00    +0.209 HD
ENDBRANCH  19  20
ENDBRANCH  18  19
ENDBRANCH  17  18
ENDBRANCH   1  17
BRANCH   1  22
ATOM     22  C   UNL     1      -3.059   3.600   2.337  0.00  0.00    +0.006 C 
BRANCH  22  23
ATOM     23  C   UNL     1      -2.912   4.093   3.754  0.00  0.00    +0.139 A 
ATOM     24  N   UNL     1      -2.124   3.599   4.677  0.00  0.00    -0.115 NA
ATOM     25  N   UNL     1      -2.284   4.294   5.750  0.00  0.00    -0.023 NA
ATOM     26  N   UNL     1      -3.159   5.214   5.537  0.00  0.00    -0.044 NA
ATOM     27  N   UNL     1      -3.570   5.123   4.318  0.00  0.00    -0.226 N 
BRANCH  27  28
ATOM     28  C   UNL     1      -4.566   5.979   3.670  0.00  0.00    +0.182 C 
BRANCH  28  29
ATOM     29  C   UNL     1      -5.949   5.531   4.068  0.00  0.00    -0.026 A 
ATOM     30  C   UNL     1      -6.648   4.650   3.263  0.00  0.00    +0.009 A 
ATOM     31  C   UNL     1      -7.913   4.234   3.628  0.00  0.00    +0.046 A 
ATOM     32  C   UNL     1      -8.488   4.708   4.798  0.00  0.00    +0.120 A 
ATOM     33  C   UNL     1      -7.787   5.597   5.601  0.00  0.00    +0.046 A 
ATOM     34  C   UNL     1      -6.520   6.006   5.234  0.00  0.00    +0.009 A 
BRANCH  32  35
ATOM     35  O   UNL     1      -9.734   4.304   5.157  0.00  0.00    -0.495 OA
ATOM     36  C   UNL     1     -10.396   3.389   4.282  0.00  0.00    +0.277 C 
ENDBRANCH  32  35
ENDBRANCH  28  29
ENDBRANCH  27  28
ENDBRANCH  22  23
BRANCH  22  37
ATOM     37  C   UNL     1      -2.961   2.074   2.316  0.00  0.00    -0.024 C 
ATOM     38  C   UNL     1      -4.066   1.479   3.191  0.00  0.00    +0.006 C 
ATOM     39  C   UNL     1      -3.123   1.572   0.879  0.00  0.00    +0.006 C 
ENDBRANCH  22  37
ENDBRANCH   1  22
TORSDOF 12
