REMARK  Name = ZINC39360469
REMARK  9 active torsions:
REMARK  status: ('A' for Active; 'I' for Inactive)
REMARK    1  A    between atoms: C_1  and  N_2
REMARK    2  A    between atoms: C_6  and  C_15
REMARK    3  A    between atoms: C_8  and  N_9
REMARK    4  A    between atoms: C_10  and  C_12
REMARK    5  A    between atoms: C_12  and  O_13
REMARK    6  A    between atoms: O_13  and  C_14
REMARK    7  A    between atoms: N_17  and  C_18
REMARK    8  A    between atoms: C_18  and  C_19
REMARK    9  A    between atoms: C_31  and  C_33
REMARK                            x       y       z     vdW  Elec       q    Type
REMARK                         _______ _______ _______ _____ _____    ______ ____
ROOT
ATOM      1  C   UNL     1      -0.004   1.453   0.022  0.00  0.00    +0.131 C 
ATOM      2  N   UNL     1       0.018  -0.012   0.007  0.00  0.00    -0.308 N 
ATOM      3  C   UNL     1      -0.082  -0.829  -1.122  0.00  0.00    +0.074 A 
ATOM      4  C   UNL     1      -0.022  -2.168  -0.742  0.00  0.00    +0.053 A 
ATOM      5  C   UNL     1      -0.103  -3.164  -1.704  0.00  0.00    +0.038 A 
ATOM      6  C   UNL     1      -0.245  -2.828  -3.052  0.00  0.00    +0.040 A 
ATOM      7  C   UNL     1      -0.305  -1.484  -3.431  0.00  0.00    +0.038 A 
ATOM      8  C   UNL     1      -0.224  -0.493  -2.472  0.00  0.00    +0.057 A 
ATOM      9  N   UNL     1       0.119  -2.260   0.650  0.00  0.00    -0.321 N 
ATOM     10  C   UNL     1       0.157  -0.890   1.175  0.00  0.00    +0.190 C 
ATOM     11  H   UNL     1       0.184  -3.077   1.169  0.00  0.00    +0.148 HD
ENDROOT
BRANCH  10  12
ATOM     12  C   UNL     1      -0.989  -0.670   2.129  0.00  0.00    -0.009 A 
ATOM     13  C   UNL     1      -2.292  -0.795   1.685  0.00  0.00    +0.007 A 
ATOM     14  C   UNL     1      -3.342  -0.594   2.561  0.00  0.00    +0.000 A 
ATOM     15  C   UNL     1      -3.090  -0.268   3.880  0.00  0.00    +0.000 A 
ATOM     16  C   UNL     1      -1.787  -0.144   4.324  0.00  0.00    +0.000 A 
ATOM     17  C   UNL     1      -0.736  -0.349   3.450  0.00  0.00    +0.007 A 
ENDBRANCH  10  12
BRANCH   8  18
ATOM     18  N   UNL     1      -0.284   0.855  -2.853  0.00  0.00    -0.282 N 
ATOM     19  C   UNL     1      -1.062   1.228  -3.889  0.00  0.00    +0.243 C 
ATOM     20  O   UNL     1      -1.786   0.417  -4.427  0.00  0.00    -0.273 OA
ATOM     21  H   UNL     1       0.234   1.519  -2.372  0.00  0.00    +0.155 HD
BRANCH  19  22
ATOM     22  C   UNL     1      -1.033   2.653  -4.378  0.00  0.00    +0.255 C 
BRANCH  22  23
ATOM     23  O   UNL     1      -1.937   2.799  -5.475  0.00  0.00    -0.374 OA
ATOM     24  C   UNL     1      -1.986   4.120  -6.017  0.00  0.00    +0.194 C 
ENDBRANCH  22  23
ENDBRANCH  19  22
ENDBRANCH   8  18
BRANCH   6  25
ATOM     25  C   UNL     1      -0.330  -3.889  -4.073  0.00  0.00    +0.245 C 
ATOM     26  O   UNL     1      -0.278  -5.057  -3.742  0.00  0.00    -0.270 OA
ATOM     27  N   UNL     1      -0.467  -3.563  -5.374  0.00  0.00    -0.304 N 
ATOM     28  H   UNL     1      -0.509  -2.631  -5.638  0.00  0.00    +0.149 HD
BRANCH  27  29
ATOM     29  C   UNL     1      -0.552  -4.617  -6.388  0.00  0.00    +0.178 C 
BRANCH  29  30
ATOM     30  C   UNL     1      -0.699  -3.991  -7.751  0.00  0.00    +0.125 A 
ATOM     31  H   UNL     1       1.267  -3.916  -8.448  0.00  0.00    +0.167 HD
ATOM     32  N   UNL     1      -1.826  -3.614  -8.280  0.00  0.00    -0.231 NA
ATOM     33  C   UNL     1      -1.600  -3.093  -9.514  0.00  0.00    +0.089 A 
ATOM     34  C   UNL     1      -2.431  -2.550 -10.497  0.00  0.00    +0.032 A 
ATOM     35  C   UNL     1      -1.895  -2.095 -11.668  0.00  0.00    +0.040 A 
ATOM     36  C   UNL     1      -0.526  -2.166 -11.894  0.00  0.00    +0.125 A 
ATOM     37  C   UNL     1       0.314  -2.699 -10.936  0.00  0.00    +0.066 A 
ATOM     38  C   UNL     1      -0.215  -3.165  -9.741  0.00  0.00    +0.069 A 
ATOM     39  N   UNL     1       0.328  -3.733  -8.606  0.00  0.00    -0.340 N 
ATOM     40  F   UNL     1      -0.013  -1.712 -13.059  0.00  0.00    -0.205 F 
ENDBRANCH  29  30
ENDBRANCH  27  29
ENDBRANCH   6  25
TORSDOF 7
