REMARK  Name = ZINC06892795
REMARK  7 active torsions:
REMARK  status: ('A' for Active; 'I' for Inactive)
REMARK    1  A    between atoms: C_1  and  C_2
REMARK    2  A    between atoms: C_5  and  C_8
REMARK    3  A    between atoms: C_8  and  C_9
REMARK    4  A    between atoms: C_9  and  N_10
REMARK    5  A    between atoms: N_10  and  S_11
REMARK    6  A    between atoms: S_11  and  C_14
REMARK    7  A    between atoms: C_23  and  C_26
REMARK                            x       y       z     vdW  Elec       q    Type
REMARK                         _______ _______ _______ _____ _____    ______ ____
ROOT
ATOM      1  S   UNL     1       1.214  -2.445  -0.019  0.00  0.00    +0.058 S 
ATOM      2  O   UNL     1       2.465  -2.848   0.522  0.00  0.00    -0.153 OA
ATOM      3  O   UNL     1      -0.026  -2.861   0.537  0.00  0.00    -0.153 OA
ENDROOT
BRANCH   1   4
ATOM      4  C   UNL     1       1.204  -0.683  -0.009  0.00  0.00    +0.107 A 
ATOM      5  C   UNL     1       2.401   0.010  -0.013  0.00  0.00    +0.030 A 
ATOM      6  C   UNL     1       2.398   1.393  -0.007  0.00  0.00    +0.018 A 
ATOM      7  C   UNL     1       1.195   2.079   0.002  0.00  0.00    +0.030 A 
ATOM      8  C   UNL     1      -0.017   1.386   0.010  0.00  0.00    +0.049 A 
ATOM      9  C   UNL     1       0.002  -0.004   0.002  0.00  0.00    +0.053 A 
ATOM     10  N   UNL     1      -1.238   2.055   0.031  0.00  0.00    -0.284 N 
ATOM     11  C   UNL     1      -1.455   3.310  -0.354  0.00  0.00    +0.230 C 
ATOM     12  O   UNL     1      -2.585   3.744  -0.283  0.00  0.00    -0.274 OA
ATOM     13  C   UNL     1      -0.375   4.220  -0.874  0.00  0.00    +0.134 C 
ATOM     14  S   UNL     1       1.176   3.844  -0.002  0.00  0.00    -0.111 S 
ATOM     15  C   UNL     1      -0.766   5.677  -0.620  0.00  0.00    +0.029 C 
ATOM     16  H   UNL     1      -2.004   1.558   0.357  0.00  0.00    +0.155 HD
ENDBRANCH   1   4
BRANCH   1  17
ATOM     17  N   UNL     1       1.207  -2.926  -1.604  0.00  0.00    -0.190 NA
ATOM     18  H   UNL     1       0.446  -3.411  -1.960  0.00  0.00    +0.148 HD
BRANCH  17  19
ATOM     19  C   UNL     1       2.350  -2.620  -2.467  0.00  0.00    +0.110 C 
BRANCH  19  20
ATOM     20  C   UNL     1       2.273  -3.471  -3.736  0.00  0.00    +0.052 C 
BRANCH  20  25
ATOM     21  C   UNL     1       6.781  -2.263  -7.143  0.00  0.00    +0.044 C 
ATOM     22  C   UNL     1       5.606  -2.578  -6.255  0.00  0.00    -0.050 A 
ATOM     23  C   UNL     1       5.704  -3.581  -5.308  0.00  0.00    +0.003 A 
ATOM     24  C   UNL     1       4.625  -3.870  -4.494  0.00  0.00    +0.004 A 
ATOM     25  C   UNL     1       3.449  -3.156  -4.624  0.00  0.00    -0.046 A 
ATOM     26  C   UNL     1       3.349  -2.156  -5.574  0.00  0.00    +0.004 A 
ATOM     27  C   UNL     1       4.429  -1.864  -6.386  0.00  0.00    +0.003 A 
ENDBRANCH  20  25
ENDBRANCH  19  20
ENDBRANCH  17  19
ENDBRANCH   1  17
TORSDOF 5
