REMARK  Name = ZINC07209212
REMARK  5 active torsions:
REMARK  status: ('A' for Active; 'I' for Inactive)
REMARK    1  A    between atoms: C_1  and  O_2
REMARK    2  A    between atoms: O_2  and  C_3
REMARK    3  A    between atoms: C_5  and  C_11
REMARK    4  A    between atoms: C_8  and  O_9
REMARK    5  A    between atoms: N_18  and  C_19
REMARK                            x       y       z     vdW  Elec       q    Type
REMARK                         _______ _______ _______ _____ _____    ______ ____
ROOT
ATOM      1  C   UNL     1      -4.852   0.221   0.038  0.00  0.00    +0.028 C 
ATOM      2  C   UNL     1      -6.048  -0.413  -0.056  0.00  0.00    +0.079 C 
ATOM      3  C   UNL     1      -7.414   0.150  -0.172  0.00  0.00    +0.276 C 
ATOM      4  O   UNL     1      -7.614   1.353  -0.196  0.00  0.00    -0.267 OA
ATOM      5  N   UNL     1      -8.398  -0.719  -0.248  0.00  0.00    -0.154 NA
ATOM      6  C   UNL     1      -8.194  -2.027  -0.223  0.00  0.00    +0.152 C 
ATOM      7  S   UNL     1      -6.419  -2.163  -0.083  0.00  0.00    -0.052 S 
ATOM      8  N   UNL     1      -9.121  -3.033  -0.293  0.00  0.00    -0.322 N 
ATOM      9  H   UNL     1      -8.835  -3.959  -0.264  0.00  0.00    +0.148 HD
ENDROOT
BRANCH   1  12
ATOM     10  C   UNL     1      -1.238  -0.661   0.516  0.00  0.00    +0.163 A 
ATOM     11  C   UNL     1      -2.379   0.068   0.245  0.00  0.00    +0.057 A 
ATOM     12  C   UNL     1      -3.634  -0.548   0.325  0.00  0.00    -0.019 A 
ATOM     13  C   UNL     1      -3.725  -1.900   0.679  0.00  0.00    +0.027 A 
ATOM     14  C   UNL     1      -2.580  -2.619   0.948  0.00  0.00    +0.063 A 
ATOM     15  C   UNL     1      -1.335  -2.007   0.862  0.00  0.00    +0.173 A 
ATOM     16 BR   UNL     1      -2.703  -4.444   1.427  0.00  0.00    -0.046 Br
BRANCH  10  18
ATOM     17  C   UNL     1       0.008   1.317   0.078  0.00  0.00    +0.277 C 
ATOM     18  O   UNL     1      -0.018  -0.065   0.439  0.00  0.00    -0.491 OA
ENDBRANCH  10  18
BRANCH  15  19
ATOM     19  O   UNL     1      -0.210  -2.723   1.123  0.00  0.00    -0.503 OA
ATOM     20  H   UNL     1       0.060  -2.706   2.051  0.00  0.00    +0.292 HD
ENDBRANCH  15  19
ENDBRANCH   1  12
BRANCH   8  21
ATOM     21  C   UNL     1     -10.545  -2.710  -0.413  0.00  0.00    +0.072 C 
ATOM     22  C   UNL     1     -11.132  -2.466   0.978  0.00  0.00    +0.022 C 
ATOM     23  C   UNL     1     -12.619  -2.129   0.853  0.00  0.00    +0.002 C 
ATOM     24  C   UNL     1     -13.352  -3.296   0.188  0.00  0.00    +0.000 C 
ATOM     25  C   UNL     1     -12.765  -3.540  -1.204  0.00  0.00    +0.002 C 
ATOM     26  C   UNL     1     -11.278  -3.877  -1.078  0.00  0.00    +0.022 C 
ENDBRANCH   8  21
TORSDOF 4
