REMARK  Name = ZINC13498904
REMARK  12 active torsions:
REMARK  status: ('A' for Active; 'I' for Inactive)
REMARK    1  A    between atoms: C_1  and  C_2
REMARK    2  A    between atoms: C_6  and  C_15
REMARK    3  A    between atoms: C_13  and  C_14
REMARK    4  A    between atoms: C_15  and  N_76
REMARK    5  A    between atoms: C_16  and  N_76
REMARK    6  A    between atoms: C_22  and  C_24
REMARK    7  A    between atoms: C_22  and  C_36
REMARK    8  A    between atoms: C_22  and  N_76
REMARK    9  A    between atoms: N_28  and  C_29
REMARK   10  A    between atoms: C_29  and  C_30
REMARK   11  A    between atoms: C_36  and  C_37
REMARK   12  A    between atoms: C_36  and  C_38
REMARK                            x       y       z     vdW  Elec       q    Type
REMARK                         _______ _______ _______ _____ _____    ______ ____
ROOT
ATOM      1  N   UNL     1       5.921  -3.281   1.683  0.00  0.00    +0.391 N 
ATOM      2  H   UNL     1       5.405  -3.843   2.371  0.00  0.00    -0.080 HD
ENDROOT
BRANCH   1   3
ATOM      3  C   UNL     1       6.348  -2.017   2.319  0.00  0.00    -0.067 C 
ATOM      4  C   UNL     1       7.637  -2.257   3.107  0.00  0.00    -0.015 C 
ATOM      5  C   UNL     1       8.067  -0.957   3.790  0.00  0.00    -0.002 C 
ATOM      6  C   UNL     1       6.965  -0.493   4.744  0.00  0.00    -0.000 C 
ATOM      7  C   UNL     1       5.676  -0.254   3.956  0.00  0.00    -0.002 C 
ATOM      8  C   UNL     1       5.246  -1.554   3.274  0.00  0.00    -0.015 C 
ENDBRANCH   1   3
BRANCH   1   9
ATOM      9  C   UNL     1       5.035  -2.995   0.536  0.00  0.00    -0.036 C 
BRANCH   9  15
ATOM     10  C   UNL     1      -0.143   2.149   2.068  0.00  0.00    +0.044 C 
ATOM     11  C   UNL     1       0.323   0.716   2.058  0.00  0.00    -0.047 A 
ATOM     12  C   UNL     1       1.562   0.411   1.570  0.00  0.00    +0.013 A 
ATOM     13  C   UNL     1       1.995  -0.919   1.560  0.00  0.00    -0.001 A 
ATOM     14  C   UNL     1       3.316  -1.282   1.044  0.00  0.00    +0.017 A 
ATOM     15  C   UNL     1       3.681  -2.587   1.060  0.00  0.00    +0.001 A 
ATOM     16  C   UNL     1       2.800  -3.567   1.565  0.00  0.00    +0.251 A 
ATOM     17  O   UNL     1       3.148  -4.734   1.571  0.00  0.00    -0.268 OA
ATOM     18  N   UNL     1       1.584  -3.243   2.041  0.00  0.00    -0.322 N 
ATOM     19  H   UNL     1       1.003  -3.941   2.381  0.00  0.00    +0.169 HD
ATOM     20  C   UNL     1       1.153  -1.934   2.053  0.00  0.00    +0.049 A 
ATOM     21  C   UNL     1      -0.104  -1.599   2.545  0.00  0.00    +0.030 A 
ATOM     22  C   UNL     1      -0.510  -0.281   2.545  0.00  0.00    -0.046 A 
ATOM     23  C   UNL     1      -1.875   0.079   3.073  0.00  0.00    +0.044 C 
ENDBRANCH   9  15
ENDBRANCH   1   9
BRANCH   1  24
ATOM     24  C   UNL     1       7.103  -4.043   1.230  0.00  0.00    +0.006 C 
BRANCH  24  25
ATOM     25  C   UNL     1       6.730  -5.500   1.136  0.00  0.00    +0.138 A 
ATOM     26  N   UNL     1       5.665  -6.000   0.556  0.00  0.00    -0.115 NA
ATOM     27  N   UNL     1       5.705  -7.280   0.688  0.00  0.00    -0.023 NA
ATOM     28  N   UNL     1       6.766  -7.612   1.336  0.00  0.00    -0.044 NA
ATOM     29  N   UNL     1       7.427  -6.542   1.626  0.00  0.00    -0.228 N 
BRANCH  29  30
ATOM     30  C   UNL     1       8.697  -6.474   2.354  0.00  0.00    +0.178 C 
BRANCH  30  31
ATOM     31  C   UNL     1       8.419  -6.347   3.853  0.00  0.00    +0.140 C 
ATOM     32  C   UNL     1       9.746  -6.159   4.618  0.00  0.00    +0.035 C 
ATOM     33  C   UNL     1       9.517  -7.016   5.893  0.00  0.00    +0.031 C 
ATOM     34  C   UNL     1       8.651  -8.167   5.321  0.00  0.00    +0.160 C 
ATOM     35  O   UNL     1       7.806  -7.548   4.337  0.00  0.00    -0.375 OA
ENDBRANCH  30  31
ENDBRANCH  29  30
ENDBRANCH  24  25
BRANCH  24  36
ATOM     36  C   UNL     1       7.567  -3.546  -0.141  0.00  0.00    -0.024 C 
ATOM     37  C   UNL     1       8.109  -2.122  -0.010  0.00  0.00    +0.006 C 
ATOM     38  C   UNL     1       8.670  -4.465  -0.670  0.00  0.00    +0.006 C 
ENDBRANCH  24  36
ENDBRANCH   1  24
TORSDOF 8
