REMARK  Name = ZINC39696036
REMARK  7 active torsions:
REMARK  status: ('A' for Active; 'I' for Inactive)
REMARK    1  A    between atoms: C_1  and  C_2
REMARK    2  A    between atoms: C_2  and  C_3
REMARK    3  A    between atoms: C_6  and  C_9
REMARK    4  A    between atoms: C_9  and  C_11
REMARK    5  A    between atoms: C_9  and  N_12
REMARK    6  A    between atoms: C_13  and  C_15
REMARK    7  A    between atoms: C_26  and  C_28
REMARK                            x       y       z     vdW  Elec       q    Type
REMARK                         _______ _______ _______ _____ _____    ______ ____
ROOT
ATOM      1  C   UNL     1       5.627  -5.126  -4.499  0.00  0.00    +0.100 C 
ATOM      2  C   UNL     1       4.831  -5.818  -3.370  0.00  0.00    +0.121 C 
ATOM      3  N   UNL     1       4.193  -6.985  -4.023  0.00  0.00    -0.296 N 
ATOM      4  C   UNL     1       5.228  -7.498  -4.953  0.00  0.00    +0.115 C 
ATOM      5  C   UNL     1       5.888  -6.233  -5.534  0.00  0.00    -0.004 C 
ATOM      6  C   UNL     1       7.388  -6.452  -5.707  0.00  0.00    -0.010 C 
ATOM      7  C   UNL     1       7.625  -7.515  -6.782  0.00  0.00    -0.082 C 
ATOM      8  N   UNL     1       7.025  -7.075  -8.048  0.00  0.00    +0.379 N 
ATOM      9  C   UNL     1       5.570  -6.957  -7.899  0.00  0.00    -0.082 C 
ATOM     10  C   UNL     1       5.247  -5.869  -6.870  0.00  0.00    -0.010 C 
ATOM     11  C   UNL     1       2.953  -7.471  -3.818  0.00  0.00    +0.247 C 
ATOM     12  O   UNL     1       2.172  -6.864  -3.112  0.00  0.00    -0.270 OA
ATOM     13  H   UNL     1       7.410  -6.178  -8.307  0.00  0.00    -0.086 HD
ATOM     14  H   UNL     1       7.235  -7.748  -8.770  0.00  0.00    -0.086 HD
ENDROOT
BRANCH  11  15
ATOM     15  C   UNL     1       2.542  -8.741  -4.452  0.00  0.00    +0.037 A 
ATOM     16  C   UNL     1       3.507  -9.651  -4.888  0.00  0.00    +0.014 A 
ATOM     17  C   UNL     1       3.118 -10.835  -5.479  0.00  0.00    +0.016 A 
ATOM     18  C   UNL     1       1.773 -11.121  -5.641  0.00  0.00    +0.018 A 
ATOM     19  C   UNL     1       0.811 -10.223  -5.211  0.00  0.00    +0.016 A 
ATOM     20  C   UNL     1       1.188  -9.039  -4.613  0.00  0.00    +0.014 A 
ATOM     21 BR   UNL     1       1.248 -12.746  -6.453  0.00  0.00    -0.050 Br
ENDBRANCH  11  15
BRANCH   1  23
ATOM     22  N   UNL     1       5.427  -2.998  -5.746  0.00  0.00    -0.308 N 
ATOM     23  C   UNL     1       4.811  -4.016  -5.112  0.00  0.00    +0.219 C 
ATOM     24  O   UNL     1       3.601  -4.040  -5.035  0.00  0.00    -0.275 OA
ATOM     25  H   UNL     1       6.394  -2.980  -5.807  0.00  0.00    +0.149 HD
BRANCH  22  26
ATOM     26  C   UNL     1       4.634  -1.920  -6.342  0.00  0.00    +0.100 C 
ATOM     27  C   UNL     1       4.188  -2.331  -7.746  0.00  0.00    +0.033 C 
BRANCH  26  31
ATOM     28  C   UNL     1       7.005   1.625  -6.579  0.00  0.00    -0.048 A 
ATOM     29  C   UNL     1       5.673   1.707  -6.219  0.00  0.00    +0.004 A 
ATOM     30  C   UNL     1       4.906   0.560  -6.143  0.00  0.00    +0.006 A 
ATOM     31  C   UNL     1       5.470  -0.669  -6.426  0.00  0.00    -0.027 A 
ATOM     32  C   UNL     1       6.802  -0.752  -6.787  0.00  0.00    +0.006 A 
ATOM     33  C   UNL     1       7.568   0.396  -6.868  0.00  0.00    +0.004 A 
BRANCH  28  35
ATOM     34  C   UNL     1       7.754   3.454  -8.076  0.00  0.00    +0.009 C 
ATOM     35  C   UNL     1       7.842   2.876  -6.663  0.00  0.00    +0.032 C 
ENDBRANCH  28  35
ENDBRANCH  26  31
ENDBRANCH  22  26
ENDBRANCH   1  23
TORSDOF 5
