REMARK  Name = ZINC01189290
REMARK  9 active torsions:
REMARK  status: ('A' for Active; 'I' for Inactive)
REMARK    1  A    between atoms: C_1  and  C_2
REMARK    2  A    between atoms: C_3  and  C_20
REMARK    3  A    between atoms: C_4  and  C_10
REMARK    4  A    between atoms: C_15  and  O_16
REMARK    5  A    between atoms: O_16  and  C_17
REMARK    6  A    between atoms: C_17  and  C_18
REMARK    7  A    between atoms: C_17  and  C_19
REMARK    8  A    between atoms: C_20  and  O_22
REMARK    9  A    between atoms: O_22  and  C_23
REMARK                            x       y       z     vdW  Elec       q    Type
REMARK                         _______ _______ _______ _____ _____    ______ ____
ROOT
ATOM      1  C   UNL     1       3.054  -4.948  -2.393  0.00  0.00    +0.061 C 
ATOM      2  C   UNL     1       2.854  -3.642  -3.118  0.00  0.00    +0.021 C 
ATOM      3  C   UNL     1       2.139  -2.659  -2.531  0.00  0.00    +0.078 C 
ATOM      4  C   UNL     1       1.964  -1.362  -3.294  0.00  0.00    +0.147 C 
ATOM      5  N   UNL     1       2.592  -1.280  -4.623  0.00  0.00    -0.288 N 
ATOM      6  C   UNL     1       3.276  -2.349  -5.077  0.00  0.00    +0.304 C 
ATOM      7  O   UNL     1       3.797  -2.292  -6.173  0.00  0.00    -0.252 OA
ATOM      8  N   UNL     1       3.400  -3.473  -4.359  0.00  0.00    -0.273 N 
ATOM      9  H   UNL     1       2.514  -0.476  -5.160  0.00  0.00    +0.151 HD
ATOM     10  H   UNL     1       3.905  -4.207  -4.741  0.00  0.00    +0.156 HD
ENDROOT
BRANCH   4  11
ATOM     11  C   UNL     1       0.486  -1.117  -3.462  0.00  0.00    +0.019 A 
ATOM     12  C   UNL     1      -0.397  -2.180  -3.441  0.00  0.00    +0.009 A 
ATOM     13  C   UNL     1      -1.752  -1.957  -3.601  0.00  0.00    +0.001 A 
ATOM     14  C   UNL     1      -2.227  -0.670  -3.776  0.00  0.00    +0.004 A 
ATOM     15  C   UNL     1      -1.349   0.396  -3.792  0.00  0.00    +0.046 A 
ATOM     16  C   UNL     1       0.011   0.175  -3.631  0.00  0.00    +0.126 A 
BRANCH  16  17
ATOM     17  O   UNL     1       0.877   1.222  -3.646  0.00  0.00    -0.489 OA
BRANCH  17  18
ATOM     18  C   UNL     1       0.310   2.532  -3.707  0.00  0.00    +0.167 C 
ATOM     19  C   UNL     1       0.028   2.899  -5.165  0.00  0.00    +0.051 C 
ATOM     20  C   UNL     1       1.292   3.541  -3.108  0.00  0.00    +0.051 C 
ENDBRANCH  17  18
ENDBRANCH  16  17
ENDBRANCH   4  11
BRANCH   3  21
ATOM     21  C   UNL     1       1.573  -2.835  -1.246  0.00  0.00    +0.339 C 
ATOM     22  O   UNL     1       1.802  -3.849  -0.614  0.00  0.00    -0.245 OA
BRANCH  21  23
ATOM     23  O   UNL     1       0.780  -1.877  -0.722  0.00  0.00    -0.458 OA
BRANCH  23  24
ATOM     24  C   UNL     1       0.335  -2.068   0.622  0.00  0.00    +0.177 C 
ATOM     25  C   UNL     1      -0.973  -2.887   0.634  0.00  0.00    +0.044 C 
ATOM     26  C   UNL     1      -1.802  -2.261   1.783  0.00  0.00    +0.004 C 
ATOM     27  C   UNL     1      -1.486  -0.751   1.649  0.00  0.00    +0.004 C 
ATOM     28  C   UNL     1       0.009  -0.710   1.267  0.00  0.00    +0.044 C 
ENDBRANCH  23  24
ENDBRANCH  21  23
ENDBRANCH   3  21
TORSDOF 6
