REMARK  Name = ZINC01087071
REMARK  6 active torsions:
REMARK  status: ('A' for Active; 'I' for Inactive)
REMARK    1  A    between atoms: C_10  and  C_11
REMARK    2  A    between atoms: N_12  and  N_13
REMARK    3  A    between atoms: C_14  and  C_16
REMARK    4  A    between atoms: C_17  and  N_29
REMARK    5  A    between atoms: N_19  and  C_21
REMARK    6  A    between atoms: C_21  and  C_22
REMARK                            x       y       z     vdW  Elec       q    Type
REMARK                         _______ _______ _______ _____ _____    ______ ____
ROOT
ATOM      1  N   UNL     1      -3.709   6.123  -0.030  0.00  0.00    -0.202 N 
ATOM      2  C   UNL     1      -4.880   5.462  -0.124  0.00  0.00    +0.286 C 
ATOM      3  O   UNL     1      -4.888   4.249  -0.222  0.00  0.00    -0.267 OA
ATOM      4  H   UNL     1      -3.704   7.090   0.048  0.00  0.00    +0.178 HD
ENDROOT
BRANCH   2   5
ATOM      5  C   UNL     1      -6.154   6.209  -0.109  0.00  0.00    +0.179 A 
ATOM      6  C   UNL     1      -7.454   5.659  -0.204  0.00  0.00    +0.176 A 
ATOM      7  C   UNL     1      -8.299   6.715  -0.145  0.00  0.00    +0.142 A 
ATOM      8  N   UNL     1      -7.541   7.827  -0.029  0.00  0.00    -0.264 N 
ATOM      9  N   UNL     1      -6.295   7.516  -0.010  0.00  0.00    -0.164 NA
BRANCH   6  10
ATOM     10  N   UNL     1      -7.815   4.230  -0.338  0.00  0.00    +0.060 N 
ATOM     11  O   UNL     1      -8.985   3.901  -0.410  0.00  0.00    -0.126 OA
ATOM     12  O   UNL     1      -6.941   3.382  -0.377  0.00  0.00    -0.126 OA
ENDBRANCH   6  10
BRANCH   8  13
ATOM     13  C   UNL     1      -8.065   9.192   0.061  0.00  0.00    +0.178 C 
BRANCH  13  14
ATOM     14  C   UNL     1      -7.526   9.856   1.302  0.00  0.00    -0.025 A 
ATOM     15  C   UNL     1      -6.339  10.563   1.247  0.00  0.00    +0.005 A 
ATOM     16  C   UNL     1      -5.844  11.173   2.384  0.00  0.00    +0.001 A 
ATOM     17  C   UNL     1      -6.536  11.076   3.577  0.00  0.00    +0.015 A 
ATOM     18  C   UNL     1      -7.723  10.370   3.632  0.00  0.00    +0.018 A 
ATOM     19  C   UNL     1      -8.221   9.764   2.493  0.00  0.00    +0.020 A 
ATOM     20 BR   UNL     1      -8.670  10.237   5.264  0.00  0.00    -0.050 Br
ENDBRANCH  13  14
ENDBRANCH   8  13
ENDBRANCH   2   5
BRANCH   1  22
ATOM     21  C   UNL     1      -1.373   6.051   0.046  0.00  0.00    +0.139 C 
ATOM     22  N   UNL     1      -2.501   5.414  -0.045  0.00  0.00    -0.187 NA
BRANCH  21  32
ATOM     23  C   UNL     1      -0.012   1.076   0.033  0.00  0.00    +0.001 A 
ATOM     24  C   UNL     1      -1.234   1.745   0.042  0.00  0.00    +0.001 A 
ATOM     25  C   UNL     1      -1.286   3.107   0.049  0.00  0.00    +0.009 A 
ATOM     26  C   UNL     1      -0.097   3.845   0.032  0.00  0.00    -0.009 A 
ATOM     27  C   UNL     1       1.147   3.168   0.016  0.00  0.00    -0.017 A 
ATOM     28  C   UNL     1       1.163   1.762   0.017  0.00  0.00    +0.008 A 
ATOM     29  C   UNL     1       2.339   3.912   0.000  0.00  0.00    +0.008 A 
ATOM     30  C   UNL     1       2.308   5.273  -0.001  0.00  0.00    +0.001 A 
ATOM     31  C   UNL     1       1.113   5.978   0.015  0.00  0.00    +0.010 A 
ATOM     32  C   UNL     1      -0.104   5.307   0.031  0.00  0.00    +0.002 A 
ENDBRANCH  21  32
ENDBRANCH   1  22
TORSDOF 6
