REMARK  Name = ZINC00493805
REMARK  7 active torsions:
REMARK  status: ('A' for Active; 'I' for Inactive)
REMARK    1  A    between atoms: C_1  and  C_2
REMARK    2  A    between atoms: C_2  and  C_26
REMARK    3  A    between atoms: C_6  and  C_15
REMARK    4  A    between atoms: C_8  and  N_12
REMARK    5  A    between atoms: C_9  and  N_11
REMARK    6  A    between atoms: C_20  and  O_21
REMARK    7  A    between atoms: O_21  and  C_22
REMARK                            x       y       z     vdW  Elec       q    Type
REMARK                         _______ _______ _______ _____ _____    ______ ____
ROOT
ATOM      1  C   UNL     1      -1.375   3.592  -1.119  0.00  0.00    +0.012 C 
ATOM      2  C   UNL     1      -1.332   2.074  -1.302  0.00  0.00    -0.021 C 
ATOM      3  C   UNL     1      -0.391   1.458  -0.265  0.00  0.00    +0.081 C 
ATOM      4  C   UNL     1      -0.904   1.753   1.124  0.00  0.00    +0.115 C 
ATOM      5  C   UNL     1      -2.223   1.883   1.358  0.00  0.00    +0.047 C 
ATOM      6  C   UNL     1      -2.726   2.170   2.752  0.00  0.00    +0.118 C 
ATOM      7  C   UNL     1      -1.607   2.704   3.602  0.00  0.00    +0.172 C 
ATOM      8  C   UNL     1      -0.345   2.534   3.246  0.00  0.00    +0.211 C 
ATOM      9  O   UNL     1      -0.006   1.878   2.120  0.00  0.00    -0.444 OA
ATOM     10  C   UNL     1      -3.166   1.755   0.322  0.00  0.00    +0.164 C 
ATOM     11  O   UNL     1      -4.349   1.860   0.576  0.00  0.00    -0.292 OA
ATOM     12  C   UNL     1      -2.734   1.490  -1.095  0.00  0.00    +0.086 C 
ATOM     13  C   UNL     1      -0.835   1.740  -2.710  0.00  0.00    +0.012 C 
ENDROOT
BRANCH   6  14
ATOM     14  C   UNL     1      -3.256   0.899   3.365  0.00  0.00    +0.008 A 
ATOM     15  C   UNL     1      -2.422  -0.190   3.527  0.00  0.00    +0.008 A 
ATOM     16  C   UNL     1      -2.908  -1.357   4.089  0.00  0.00    +0.001 A 
ATOM     17  C   UNL     1      -4.229  -1.436   4.489  0.00  0.00    +0.004 A 
ATOM     18  C   UNL     1      -5.067  -0.349   4.330  0.00  0.00    +0.046 A 
ATOM     19  C   UNL     1      -4.580   0.824   3.770  0.00  0.00    +0.124 A 
BRANCH  19  20
ATOM     20  O   UNL     1      -5.401   1.896   3.617  0.00  0.00    -0.495 OA
ATOM     21  C   UNL     1      -6.752   1.747   4.057  0.00  0.00    +0.277 C 
ENDBRANCH  19  20
ENDBRANCH   6  14
BRANCH   8  22
ATOM     22  N   UNL     1       0.660   3.046   4.057  0.00  0.00    -0.328 N 
ATOM     23  H   UNL     1       1.505   2.577   4.137  0.00  0.00    +0.145 HD
ATOM     24  H   UNL     1       0.517   3.873   4.543  0.00  0.00    +0.145 HD
ENDBRANCH   8  22
BRANCH   7  25
ATOM     25  N   UNL     1      -1.923   3.430   4.854  0.00  0.00    +0.058 N 
ATOM     26  O   UNL     1      -1.025   3.771   5.603  0.00  0.00    -0.126 OA
ATOM     27  O   UNL     1      -3.080   3.687   5.134  0.00  0.00    -0.126 OA
ENDBRANCH   7  25
TORSDOF 4
