REMARK  Name = ZINC10337005
REMARK  5 active torsions:
REMARK  status: ('A' for Active; 'I' for Inactive)
REMARK    1  A    between atoms: C_1  and  C_2
REMARK    2  A    between atoms: C_2  and  C_3
REMARK    3  A    between atoms: C_2  and  C_4
REMARK    4  A    between atoms: C_7  and  C_10
REMARK    5  A    between atoms: C_27  and  C_29
REMARK                            x       y       z     vdW  Elec       q    Type
REMARK                         _______ _______ _______ _____ _____    ______ ____
ROOT
ATOM      1  C   UNL     1      -5.419  -2.005   0.043  0.00  0.00    +0.234 C 
ATOM      2  C   UNL     1      -5.436  -3.378   0.649  0.00  0.00    +0.027 C 
ATOM      3  C   UNL     1      -5.278  -4.472  -0.124  0.00  0.00    +0.083 C 
ATOM      4  C   UNL     1      -5.100  -4.260  -1.583  0.00  0.00    +0.042 A 
ATOM      5  C   UNL     1      -4.613  -5.263  -2.408  0.00  0.00    +0.013 A 
ATOM      6  C   UNL     1      -4.462  -5.021  -3.761  0.00  0.00    +0.001 A 
ATOM      7  C   UNL     1      -4.794  -3.786  -4.289  0.00  0.00    +0.004 A 
ATOM      8  C   UNL     1      -5.281  -2.781  -3.473  0.00  0.00    +0.046 A 
ATOM      9  C   UNL     1      -5.438  -3.010  -2.118  0.00  0.00    +0.131 A 
ATOM     10  O   UNL     1      -5.918  -2.048  -1.295  0.00  0.00    -0.479 OA
ATOM     11  N   UNL     1      -5.283  -5.721   0.405  0.00  0.00    -0.213 NA
ATOM     12  C   UNL     1      -5.444  -5.980   1.676  0.00  0.00    +0.232 C 
ATOM     13  N   UNL     1      -5.483  -7.136   2.394  0.00  0.00    -0.231 N 
ATOM     14  N   UNL     1      -5.670  -6.870   3.638  0.00  0.00    -0.086 NA
ATOM     15  N   UNL     1      -5.765  -5.599   3.837  0.00  0.00    -0.165 N 
ATOM     16  N   UNL     1      -5.624  -4.968   2.601  0.00  0.00    -0.193 N 
ATOM     17  C   UNL     1      -5.630  -3.578   2.136  0.00  0.00    +0.162 C 
ATOM     18  H   UNL     1      -5.908  -5.162   4.691  0.00  0.00    +0.195 HD
ATOM     19  H   UNL     1      -5.384  -8.026   2.023  0.00  0.00    +0.193 HD
ENDROOT
BRANCH   1  23
ATOM     20  C   UNL     1      -1.412  -0.526   0.013  0.00  0.00    -0.045 A 
ATOM     21  C   UNL     1      -2.259  -0.204   1.056  0.00  0.00    +0.004 A 
ATOM     22  C   UNL     1      -3.556  -0.683   1.066  0.00  0.00    +0.008 A 
ATOM     23  C   UNL     1      -4.006  -1.482   0.032  0.00  0.00    -0.003 A 
ATOM     24  C   UNL     1      -3.159  -1.803  -1.012  0.00  0.00    +0.008 A 
ATOM     25  C   UNL     1      -1.863  -1.321  -1.024  0.00  0.00    +0.004 A 
BRANCH  20  27
ATOM     26  C   UNL     1      -0.019   1.526   0.010  0.00  0.00    +0.012 C 
ATOM     27  C   UNL     1       0.002  -0.004   0.002  0.00  0.00    +0.013 C 
ATOM     28  C   UNL     1       0.742  -0.511   1.242  0.00  0.00    +0.012 C 
ENDBRANCH  20  27
ENDBRANCH   1  23
BRANCH  17  29
ATOM     29  C   UNL     1      -6.946  -2.956   2.527  0.00  0.00    -0.003 A 
ATOM     30  C   UNL     1      -6.982  -1.698   3.110  0.00  0.00    +0.009 A 
ATOM     31  C   UNL     1      -8.215  -1.165   3.453  0.00  0.00    +0.020 A 
ATOM     32  C   UNL     1      -9.359  -1.901   3.205  0.00  0.00    +0.111 A 
ATOM     33  N   UNL     1      -9.286  -3.094   2.650  0.00  0.00    -0.263 NA
ATOM     34  C   UNL     1      -8.131  -3.630   2.304  0.00  0.00    +0.116 A 
ENDBRANCH  17  29
TORSDOF 3
