REMARK  Name = ZINC39752234
REMARK  6 active torsions:
REMARK  status: ('A' for Active; 'I' for Inactive)
REMARK    1  A    between atoms: C_1  and  C_2
REMARK    2  A    between atoms: C_2  and  C_4
REMARK    3  A    between atoms: C_2  and  S_17
REMARK    4  A    between atoms: N_6  and  C_7
REMARK    5  A    between atoms: S_17  and  C_18
REMARK    6  A    between atoms: C_22  and  C_24
REMARK                            x       y       z     vdW  Elec       q    Type
REMARK                         _______ _______ _______ _____ _____    ______ ____
ROOT
ATOM      1  S   UNL     1       0.882  -0.609   1.471  0.00  0.00    -0.084 S 
ENDROOT
BRANCH   1   2
ATOM      2  C   UNL     1      -0.166  -0.086   2.856  0.00  0.00    +0.340 C 
ATOM      3  N   UNL     1      -1.518  -0.654   2.721  0.00  0.00    -0.219 N 
ATOM      4  N   UNL     1      -2.380   0.447   2.623  0.00  0.00    -0.145 NA
ATOM      5  C   UNL     1      -1.698   1.559   2.684  0.00  0.00    +0.238 C 
ATOM      6  O   UNL     1      -0.366   1.334   2.825  0.00  0.00    -0.443 OA
ATOM      7  H   UNL     1      -1.760  -1.593   2.704  0.00  0.00    +0.173 HD
BRANCH   5   8
ATOM      8  C   UNL     1      -2.273   2.836   2.614  0.00  0.00    +0.043 C 
ATOM      9  C   UNL     1      -3.627   3.145   2.477  0.00  0.00    +0.008 A 
ATOM     10  C   UNL     1      -4.782   2.342   2.372  0.00  0.00    +0.010 A 
ATOM     11  C   UNL     1      -6.000   2.928   2.245  0.00  0.00    +0.001 A 
ATOM     12  C   UNL     1      -6.145   4.317   2.217  0.00  0.00    +0.002 A 
ATOM     13  C   UNL     1      -5.079   5.149   2.313  0.00  0.00    +0.026 A 
ATOM     14  C   UNL     1      -3.773   4.610   2.448  0.00  0.00    +0.043 A 
ATOM     15  N   UNL     1      -2.595   5.193   2.558  0.00  0.00    -0.380 N 
ATOM     16  C   UNL     1      -1.556   4.167   2.676  0.00  0.00    +0.154 C 
ATOM     17  H   UNL     1      -2.442   6.151   2.562  0.00  0.00    +0.160 HD
ENDBRANCH   5   8
ENDBRANCH   1   2
BRANCH   1  19
ATOM     18  C   UNL     1      -0.032   1.519   0.015  0.00  0.00    +0.029 C 
ATOM     19  C   UNL     1      -0.000  -0.010   0.003  0.00  0.00    +0.134 C 
BRANCH  19  20
ATOM     20  C   UNL     1       0.708  -0.488  -1.238  0.00  0.00    +0.230 C 
ATOM     21  O   UNL     1       1.867  -0.839  -1.178  0.00  0.00    -0.274 OA
ATOM     22  N   UNL     1       0.053  -0.526  -2.415  0.00  0.00    -0.284 N 
ATOM     23  H   UNL     1      -0.892  -0.310  -2.452  0.00  0.00    +0.155 HD
BRANCH  22  24
ATOM     24  C   UNL     1       0.736  -0.877  -3.587  0.00  0.00    +0.037 A 
ATOM     25  C   UNL     1       0.406  -0.272  -4.792  0.00  0.00    +0.027 A 
ATOM     26  C   UNL     1       1.079  -0.619  -5.947  0.00  0.00    +0.051 A 
ATOM     27  C   UNL     1       2.087  -1.571  -5.907  0.00  0.00    +0.162 A 
ATOM     28  C   UNL     1       2.422  -2.177  -4.702  0.00  0.00    +0.164 A 
ATOM     29  C   UNL     1       1.748  -1.826  -3.542  0.00  0.00    +0.072 A 
ATOM     30  O   UNL     1       3.413  -3.108  -4.641  0.00  0.00    -0.485 OA
ATOM     31  C   UNL     1       3.815  -3.702  -5.881  0.00  0.00    +0.270 C 
ATOM     32  C   UNL     1       3.990  -2.582  -6.915  0.00  0.00    +0.270 C 
ATOM     33  O   UNL     1       2.737  -1.903  -7.057  0.00  0.00    -0.485 OA
ENDBRANCH  22  24
ENDBRANCH  19  20
ENDBRANCH   1  19
TORSDOF 5
