REMARK  Name = ZINC09189830
REMARK  5 active torsions:
REMARK  status: ('A' for Active; 'I' for Inactive)
REMARK    1  A    between atoms: C_4  and  C_7
REMARK    2  A    between atoms: C_11  and  N_16
REMARK    3  A    between atoms: N_16  and  C_17
REMARK    4  A    between atoms: C_17  and  N_19
REMARK    5  A    between atoms: C_20  and  C_22
REMARK                            x       y       z     vdW  Elec       q    Type
REMARK                         _______ _______ _______ _____ _____    ______ ____
ROOT
ATOM      1  N   UNL     1      -2.474   3.813   0.047  0.00  0.00    -0.297 N 
ATOM      2  H   UNL     1      -2.672   4.478  -0.631  0.00  0.00    +0.154 HD
ENDROOT
BRANCH   1   7
ATOM      3  C   UNL     1       3.194   2.474  -0.402  0.00  0.00    +0.228 A 
ATOM      4  N   UNL     1       2.417   3.523  -0.507  0.00  0.00    -0.209 NA
ATOM      5  C   UNL     1       1.135   3.142  -0.275  0.00  0.00    +0.112 A 
ATOM      6  C   UNL     1      -0.084   3.824  -0.254  0.00  0.00    +0.054 A 
ATOM      7  C   UNL     1      -1.249   3.134   0.024  0.00  0.00    +0.035 A 
ATOM      8  C   UNL     1      -1.212   1.764   0.277  0.00  0.00    +0.027 A 
ATOM      9  C   UNL     1      -0.012   1.085   0.264  0.00  0.00    +0.050 A 
ATOM     10  C   UNL     1       1.165   1.762  -0.013  0.00  0.00    +0.156 A 
ATOM     11  O   UNL     1       2.461   1.386  -0.102  0.00  0.00    -0.435 OA
BRANCH   3  15
ATOM     12  C   UNL     1       7.408   2.504  -0.930  0.00  0.00    +0.000 A 
ATOM     13  C   UNL     1       6.761   1.320  -0.623  0.00  0.00    +0.001 A 
ATOM     14  C   UNL     1       5.392   1.304  -0.450  0.00  0.00    +0.013 A 
ATOM     15  C   UNL     1       4.661   2.485  -0.586  0.00  0.00    +0.037 A 
ATOM     16  C   UNL     1       5.319   3.674  -0.902  0.00  0.00    +0.013 A 
ATOM     17  C   UNL     1       6.689   3.678  -1.066  0.00  0.00    +0.001 A 
ENDBRANCH   3  15
ENDBRANCH   1   7
BRANCH   1  18
ATOM     18  C   UNL     1      -3.377   3.544   1.010  0.00  0.00    +0.141 C 
ATOM     19  S   UNL     1      -2.974   2.476   2.287  0.00  0.00    -0.018 S 
BRANCH  18  20
ATOM     20  N   UNL     1      -4.597   4.114   0.969  0.00  0.00    -0.264 N 
ATOM     21  C   UNL     1      -5.500   3.845   1.932  0.00  0.00    +0.251 C 
ATOM     22  O   UNL     1      -5.214   3.087   2.838  0.00  0.00    -0.270 OA
ATOM     23  H   UNL     1      -4.825   4.719   0.246  0.00  0.00    +0.157 HD
BRANCH  21  24
ATOM     24  C   UNL     1      -6.836   4.469   1.887  0.00  0.00    +0.056 A 
ATOM     25  C   UNL     1      -7.168   5.341   0.847  0.00  0.00    +0.017 A 
ATOM     26  C   UNL     1      -8.417   5.921   0.809  0.00  0.00    +0.039 A 
ATOM     27  C   UNL     1      -9.345   5.641   1.801  0.00  0.00    +0.125 A 
ATOM     28  C   UNL     1      -9.023   4.778   2.836  0.00  0.00    +0.059 A 
ATOM     29  C   UNL     1      -7.777   4.187   2.882  0.00  0.00    +0.056 A 
ATOM     30 CL   UNL     1      -7.377   3.100   4.175  0.00  0.00    -0.083 Cl
ATOM     31  F   UNL     1     -10.569   6.214   1.758  0.00  0.00    -0.205 F 
ENDBRANCH  21  24
ENDBRANCH  18  20
ENDBRANCH   1  18
TORSDOF 5
