REMARK  Name = ZINC04772865
REMARK  4 active torsions:
REMARK  status: ('A' for Active; 'I' for Inactive)
REMARK    1  A    between atoms: C_1  and  C_2
REMARK    2  A    between atoms: C_2  and  C_13
REMARK    3  A    between atoms: N_3  and  N_4
REMARK    4  A    between atoms: C_5  and  C_7
REMARK                            x       y       z     vdW  Elec       q    Type
REMARK                         _______ _______ _______ _____ _____    ______ ____
ROOT
ATOM      1  C   UNL     1       1.366  -5.025  -0.035  0.00  0.00    +0.068 C 
ATOM      2  C   UNL     1       0.067  -4.262  -0.019  0.00  0.00    +0.070 C 
ATOM      3  N   UNL     1      -1.064  -4.904  -0.012  0.00  0.00    -0.184 NA
ENDROOT
BRANCH   2   4
ATOM      4  C   UNL     1       0.077  -2.791  -0.013  0.00  0.00    +0.082 A 
ATOM      5  C   UNL     1       1.272  -2.096  -0.021  0.00  0.00    +0.028 A 
ATOM      6  C   UNL     1       1.236  -0.677  -0.013  0.00  0.00    +0.020 A 
ATOM      7  C   UNL     1       2.431   0.058  -0.021  0.00  0.00    +0.031 A 
ATOM      8  C   UNL     1       2.387   1.433  -0.013  0.00  0.00    +0.042 A 
ATOM      9  C   UNL     1       1.165   2.095   0.002  0.00  0.00    +0.023 A 
ATOM     10  C   UNL     1      -0.017   1.386   0.010  0.00  0.00    +0.048 A 
ATOM     11  C   UNL     1       0.002  -0.004   0.002  0.00  0.00    +0.139 A 
ATOM     12  O   UNL     1      -1.161  -0.691   0.010  0.00  0.00    -0.422 OA
ATOM     13  C   UNL     1      -1.182  -2.034   0.003  0.00  0.00    +0.346 A 
ATOM     14  O   UNL     1      -2.245  -2.625   0.010  0.00  0.00    -0.244 OA
ATOM     15 CL   UNL     1       3.864   2.345  -0.022  0.00  0.00    -0.084 Cl
ENDBRANCH   2   4
BRANCH   3  16
ATOM     16  N   UNL     1      -1.074  -6.304  -0.018  0.00  0.00    -0.203 N 
ATOM     17  C   UNL     1      -2.246  -6.970  -0.010  0.00  0.00    +0.263 C 
ATOM     18  O   UNL     1      -3.295  -6.354   0.003  0.00  0.00    -0.268 OA
ATOM     19  H   UNL     1      -0.237  -6.796  -0.029  0.00  0.00    +0.178 HD
BRANCH  17  20
ATOM     20  C   UNL     1      -2.257  -8.448  -0.017  0.00  0.00    +0.038 A 
ATOM     21  C   UNL     1      -1.055  -9.158  -0.038  0.00  0.00    +0.013 A 
ATOM     22  C   UNL     1      -1.072 -10.537  -0.038  0.00  0.00    +0.001 A 
ATOM     23  C   UNL     1      -2.277 -11.217  -0.030  0.00  0.00    +0.000 A 
ATOM     24  C   UNL     1      -3.472 -10.519  -0.015  0.00  0.00    +0.001 A 
ATOM     25  C   UNL     1      -3.469  -9.140  -0.009  0.00  0.00    +0.013 A 
ENDBRANCH  17  20
ENDBRANCH   3  16
TORSDOF 3
