REMARK  Name = ZINC37139814
REMARK  7 active torsions:
REMARK  status: ('A' for Active; 'I' for Inactive)
REMARK    1  A    between atoms: C_1  and  C_2
REMARK    2  A    between atoms: C_7  and  N_12
REMARK    3  A    between atoms: N_12  and  C_13
REMARK    4  A    between atoms: C_13  and  C_15
REMARK    5  A    between atoms: C_13  and  C_16
REMARK    6  A    between atoms: C_18  and  O_23
REMARK    7  A    between atoms: C_21  and  O_22
REMARK                            x       y       z     vdW  Elec       q    Type
REMARK                         _______ _______ _______ _____ _____    ______ ____
ROOT
ATOM      1  N   UNL     1       0.072  -5.722  -1.306  0.00  0.00    -0.337 N 
ATOM      2  H   UNL     1       0.068  -5.749  -2.276  0.00  0.00    +0.147 HD
ENDROOT
BRANCH   1   9
ATOM      3  C   UNL     1      -0.018   1.503   0.010  0.00  0.00    +0.086 C 
ATOM      4  C   UNL     1       0.002  -0.004   0.002  0.00  0.00    +0.105 A 
ATOM      5  N   UNL     1       0.007  -0.778  -1.118  0.00  0.00    -0.342 N 
ATOM      6  H   UNL     1      -0.001  -0.462  -2.035  0.00  0.00    +0.167 HD
ATOM      7  C   UNL     1       0.027  -2.096  -0.707  0.00  0.00    +0.068 A 
ATOM      8  C   UNL     1       0.040  -3.314  -1.371  0.00  0.00    +0.050 A 
ATOM      9  C   UNL     1       0.059  -4.491  -0.642  0.00  0.00    +0.030 A 
ATOM     10  C   UNL     1       0.065  -4.455   0.752  0.00  0.00    +0.025 A 
ATOM     11  C   UNL     1       0.052  -3.263   1.416  0.00  0.00    +0.031 A 
ATOM     12  C   UNL     1       0.033  -2.063   0.698  0.00  0.00    +0.089 A 
ATOM     13  N   UNL     1       0.023  -0.755   1.064  0.00  0.00    -0.233 NA
ENDBRANCH   1   9
BRANCH   1  14
ATOM     14  C   UNL     1       0.092  -6.969  -0.538  0.00  0.00    +0.101 C 
ATOM     15  C   UNL     1       1.536  -7.318  -0.171  0.00  0.00    +0.033 C 
BRANCH  14  16
ATOM     16  C   UNL     1      -0.498  -8.080  -1.368  0.00  0.00    +0.017 A 
ATOM     17  C   UNL     1      -0.470  -8.001  -2.747  0.00  0.00    +0.054 A 
ATOM     18  C   UNL     1      -1.013  -9.023  -3.511  0.00  0.00    +0.117 A 
ATOM     19  C   UNL     1      -1.584 -10.125  -2.890  0.00  0.00    +0.049 A 
ATOM     20  C   UNL     1      -1.611 -10.204  -1.512  0.00  0.00    +0.049 A 
ATOM     21  C   UNL     1      -1.064  -9.184  -0.748  0.00  0.00    +0.122 A 
BRANCH  21  22
ATOM     22  O   UNL     1      -1.086  -9.264   0.610  0.00  0.00    -0.506 OA
ATOM     23  H   UNL     1      -1.876  -8.879   1.014  0.00  0.00    +0.292 HD
ENDBRANCH  21  22
BRANCH  18  24
ATOM     24  O   UNL     1      -0.987  -8.946  -4.868  0.00  0.00    -0.507 OA
ATOM     25  H   UNL     1      -0.196  -9.333  -5.269  0.00  0.00    +0.292 HD
ENDBRANCH  18  24
ENDBRANCH  14  16
ENDBRANCH   1  14
TORSDOF 5
