REMARK  Name = ZINC20673257
REMARK  6 active torsions:
REMARK  status: ('A' for Active; 'I' for Inactive)
REMARK    1  A    between atoms: C_1  and  C_2
REMARK    2  A    between atoms: C_4  and  C_26
REMARK    3  A    between atoms: C_8  and  C_25
REMARK    4  A    between atoms: C_18  and  C_22
REMARK    5  A    between atoms: C_19  and  C_21
REMARK    6  A    between atoms: C_22  and  C_23
REMARK                            x       y       z     vdW  Elec       q    Type
REMARK                         _______ _______ _______ _____ _____    ______ ____
ROOT
ATOM      1  C   UNL     1      -0.018   1.503   0.010  0.00  0.00    +0.044 C 
ATOM      2  C   UNL     1       0.002  -0.004   0.002  0.00  0.00    -0.049 A 
ATOM      3  C   UNL     1       0.005  -0.684  -1.214  0.00  0.00    +0.008 A 
ATOM      4  C   UNL     1       0.024  -2.045  -1.259  0.00  0.00    -0.024 A 
ATOM      5  C   UNL     1       0.040  -2.777  -0.062  0.00  0.00    +0.079 A 
ATOM      6  C   UNL     1       0.036  -2.084   1.176  0.00  0.00    +0.022 A 
ATOM      7  C   UNL     1       0.022  -0.682   1.184  0.00  0.00    +0.015 A 
ATOM      8  C   UNL     1       0.052  -2.838   2.364  0.00  0.00    +0.051 A 
ATOM      9  N   UNL     1       0.070  -4.151   2.274  0.00  0.00    -0.219 NA
ATOM     10  C   UNL     1       0.073  -4.769   1.095  0.00  0.00    +0.222 A 
ATOM     11  N   UNL     1       0.058  -4.116  -0.051  0.00  0.00    -0.214 NA
ATOM     12  N   UNL     1       0.092  -6.156   1.070  0.00  0.00    -0.254 N 
ATOM     13  C   UNL     1       0.108  -6.863   2.246  0.00  0.00    +0.202 A 
ATOM     14  N   UNL     1       0.132  -8.223   2.208  0.00  0.00    -0.295 N 
ATOM     15  H   UNL     1       0.138  -8.685   1.355  0.00  0.00    +0.172 HD
ATOM     16  C   UNL     1       0.148  -8.925   3.360  0.00  0.00    +0.257 A 
ATOM     17  O   UNL     1       0.171 -10.145   3.345  0.00  0.00    -0.267 OA
ATOM     18  C   UNL     1       0.139  -8.224   4.580  0.00  0.00    +0.052 A 
ATOM     19  C   UNL     1       0.115  -6.860   4.555  0.00  0.00    +0.051 A 
ATOM     20  N   UNL     1       0.104  -6.213   3.392  0.00  0.00    -0.220 NA
ATOM     21  C   UNL     1       0.104  -6.085   5.848  0.00  0.00    +0.066 C 
ATOM     22  C   UNL     1       0.050  -2.157   3.708  0.00  0.00    +0.066 C 
ATOM     23  C   UNL     1       0.027  -2.760  -2.585  0.00  0.00    +0.046 C 
ATOM     24  H   UNL     1       0.095  -6.625   0.221  0.00  0.00    +0.158 HD
ENDROOT
BRANCH  18  25
ATOM     25  C   UNL     1       0.156  -8.967   5.891  0.00  0.00    +0.160 C 
BRANCH  25  26
ATOM     26  C   UNL     1      -1.219  -9.339   6.262  0.00  0.00    +0.067 C 
ATOM     27  N   UNL     1      -2.281  -9.625   6.548  0.00  0.00    -0.196 NA
ENDBRANCH  25  26
ENDBRANCH  18  25
TORSDOF 2
