REMARK  Name = ZINC07994762
REMARK  7 active torsions:
REMARK  status: ('A' for Active; 'I' for Inactive)
REMARK    1  A    between atoms: C_1  and  C_2
REMARK    2  A    between atoms: C_5  and  S_8
REMARK    3  A    between atoms: S_8  and  N_11
REMARK    4  A    between atoms: N_11  and  C_12
REMARK    5  A    between atoms: N_11  and  C_13
REMARK    6  A    between atoms: C_13  and  C_14
REMARK    7  A    between atoms: N_16  and  N_17
REMARK                            x       y       z     vdW  Elec       q    Type
REMARK                         _______ _______ _______ _____ _____    ______ ____
ROOT
ATOM      1  N   UNL     1      -0.843   1.596  -1.040  0.00  0.00    -0.171 NA
ATOM      2  C   UNL     1      -0.545   2.993  -1.366  0.00  0.00    +0.132 C 
ENDROOT
BRANCH   1   3
ATOM      3  S   UNL     1      -0.028   0.839   0.186  0.00  0.00    +0.061 S 
ATOM      4  O   UNL     1      -0.091  -0.554  -0.084  0.00  0.00    -0.153 OA
ATOM      5  O   UNL     1       1.204   1.530   0.342  0.00  0.00    -0.153 OA
BRANCH   3  10
ATOM      6  C   UNL     1      -3.174   1.758   5.252  0.00  0.00    +0.044 C 
ATOM      7  C   UNL     1      -2.388   1.528   3.987  0.00  0.00    -0.050 A 
ATOM      8  C   UNL     1      -2.651   0.421   3.202  0.00  0.00    +0.005 A 
ATOM      9  C   UNL     1      -1.930   0.211   2.041  0.00  0.00    +0.029 A 
ATOM     10  C   UNL     1      -0.947   1.108   1.666  0.00  0.00    +0.105 A 
ATOM     11  C   UNL     1      -0.682   2.212   2.454  0.00  0.00    +0.029 A 
ATOM     12  C   UNL     1      -1.405   2.425   3.612  0.00  0.00    +0.005 A 
ENDBRANCH   3  10
ENDBRANCH   1   3
BRANCH   1  13
ATOM     13  C   UNL     1      -1.863   0.869  -1.800  0.00  0.00    +0.206 C 
BRANCH  13  14
ATOM     14  C   UNL     1      -3.222   1.146  -1.210  0.00  0.00    +0.248 C 
ATOM     15  O   UNL     1      -3.328   1.879  -0.249  0.00  0.00    -0.273 OA
ATOM     16  N   UNL     1      -4.319   0.580  -1.750  0.00  0.00    -0.206 N 
ATOM     17  H   UNL     1      -4.235  -0.006  -2.518  0.00  0.00    +0.177 HD
BRANCH  16  18
ATOM     18  N   UNL     1      -5.583   0.838  -1.201  0.00  0.00    -0.189 NA
ATOM     19  C   UNL     1      -6.612   0.221  -1.647  0.00  0.00    +0.037 C 
ATOM     20  C   UNL     1      -6.471  -0.889  -2.665  0.00  0.00    +0.052 C 
ATOM     21  C   UNL     1      -7.238  -2.117  -2.150  0.00  0.00    +0.006 C 
ATOM     22  C   UNL     1      -8.684  -1.720  -1.847  0.00  0.00    +0.001 C 
ATOM     23  C   UNL     1      -8.713  -0.690  -0.717  0.00  0.00    +0.006 C 
ATOM     24  C   UNL     1      -8.001   0.587  -1.174  0.00  0.00    +0.052 C 
ENDBRANCH  16  18
ENDBRANCH  13  14
ENDBRANCH   1  13
TORSDOF 5
