REMARK  Name = ZINC48771558
REMARK  2 active torsions:
REMARK  status: ('A' for Active; 'I' for Inactive)
REMARK    1  A    between atoms: C_2  and  C_8
REMARK    2  A    between atoms: C_14  and  C_16
REMARK                            x       y       z     vdW  Elec       q    Type
REMARK                         _______ _______ _______ _____ _____    ______ ____
ROOT
ATOM      1  C   UNL     1       1.218   3.525   0.009  0.00  0.00    +0.082 A 
ATOM      2  C   UNL     1       2.390   4.222   0.098  0.00  0.00    +0.077 A 
ATOM      3  S   UNL     1       1.783   5.900   0.059  0.00  0.00    -0.060 S 
ATOM      4  C   UNL     1       0.140   5.555  -0.063  0.00  0.00    +0.165 A 
ATOM      5  N   UNL     1       0.104   4.241  -0.076  0.00  0.00    -0.225 NA
ATOM      6  N   UNL     1      -0.922   6.445  -0.137  0.00  0.00    -0.260 N 
ATOM      7  C   UNL     1      -0.692   7.773  -0.116  0.00  0.00    +0.259 C 
ATOM      8  O   UNL     1       0.447   8.192  -0.031  0.00  0.00    -0.269 OA
ATOM      9  H   UNL     1      -1.831   6.112  -0.205  0.00  0.00    +0.157 HD
ENDROOT
BRANCH   1  11
ATOM     10  C   UNL     1       2.376   1.308  -0.020  0.00  0.00    +0.039 A 
ATOM     11  C   UNL     1       1.192   2.040   0.002  0.00  0.00    +0.028 A 
ATOM     12  C   UNL     1       0.006   1.362   0.016  0.00  0.00    +0.089 A 
ATOM     13  S   UNL     1       0.551  -0.338  -0.000  0.00  0.00    -0.065 S 
ATOM     14  C   UNL     1       2.311  -0.044  -0.025  0.00  0.00    +0.080 A 
ATOM     15 CL   UNL     1       3.608  -1.197  -0.051  0.00  0.00    -0.076 Cl
ATOM     16 CL   UNL     1      -1.612   1.990   0.044  0.00  0.00    -0.075 Cl
ENDBRANCH   1  11
BRANCH   7  17
ATOM     17  C   UNL     1      -1.818   8.716  -0.195  0.00  0.00    +0.114 A 
ATOM     18  C   UNL     1      -1.820  10.107  -0.196  0.00  0.00    +0.157 A 
ATOM     19  N   UNL     1      -3.011  10.647  -0.279  0.00  0.00    -0.149 NA
ATOM     20  N   UNL     1      -4.082   9.940  -0.353  0.00  0.00    -0.110 NA
ATOM     21  S   UNL     1      -3.571   8.402  -0.325  0.00  0.00    +0.041 S 
ENDBRANCH   7  17
TORSDOF 2
