REMARK  Name = ZINC39654294
REMARK  9 active torsions:
REMARK  status: ('A' for Active; 'I' for Inactive)
REMARK    1  A    between atoms: C_1  and  C_2
REMARK    2  A    between atoms: C_2  and  C_3
REMARK    3  A    between atoms: C_6  and  C_9
REMARK    4  A    between atoms: C_9  and  C_10
REMARK    5  A    between atoms: C_10  and  N_11
REMARK    6  A    between atoms: C_12  and  C_14
REMARK    7  A    between atoms: C_25  and  C_27
REMARK    8  A    between atoms: C_30  and  O_33
REMARK    9  A    between atoms: O_33  and  C_34
REMARK                            x       y       z     vdW  Elec       q    Type
REMARK                         _______ _______ _______ _____ _____    ______ ____
ROOT
ATOM      1  C   UNL     1       5.425  -0.497  -8.378  0.00  0.00    +0.100 C 
ATOM      2  C   UNL     1       6.672  -1.404  -8.271  0.00  0.00    +0.121 C 
ATOM      3  N   UNL     1       7.530  -0.996  -9.409  0.00  0.00    -0.296 N 
ATOM      4  C   UNL     1       7.390   0.479  -9.465  0.00  0.00    +0.115 C 
ATOM      5  C   UNL     1       5.901   0.738  -9.161  0.00  0.00    -0.004 C 
ATOM      6  C   UNL     1       5.748   1.995  -8.310  0.00  0.00    -0.010 C 
ATOM      7  C   UNL     1       6.172   3.216  -9.131  0.00  0.00    -0.082 C 
ATOM      8  N   UNL     1       5.339   3.312 -10.336  0.00  0.00    +0.379 N 
ATOM      9  C   UNL     1       5.563   2.142 -11.194  0.00  0.00    -0.082 C 
ATOM     10  C   UNL     1       5.113   0.875 -10.460  0.00  0.00    -0.010 C 
ATOM     11  C   UNL     1       8.270  -1.787 -10.210  0.00  0.00    +0.247 C 
ATOM     12  O   UNL     1       8.182  -2.996 -10.120  0.00  0.00    -0.270 OA
ATOM     13  H   UNL     1       4.367   3.350 -10.069  0.00  0.00    -0.086 HD
ATOM     14  H   UNL     1       5.579   4.151 -10.843  0.00  0.00    -0.086 HD
ENDROOT
BRANCH  11  15
ATOM     15  C   UNL     1       9.187  -1.185 -11.198  0.00  0.00    +0.037 A 
ATOM     16  C   UNL     1       9.628   0.131 -11.034  0.00  0.00    +0.016 A 
ATOM     17  C   UNL     1      10.484   0.689 -11.957  0.00  0.00    +0.047 A 
ATOM     18  C   UNL     1      10.909  -0.055 -13.051  0.00  0.00    +0.130 A 
ATOM     19  C   UNL     1      10.474  -1.365 -13.218  0.00  0.00    +0.047 A 
ATOM     20  C   UNL     1       9.622  -1.931 -12.296  0.00  0.00    +0.016 A 
BRANCH  18  21
ATOM     21  O   UNL     1      11.752   0.498 -13.960  0.00  0.00    -0.406 OA
BRANCH  21  22
ATOM     22  C   UNL     1      12.150  -0.322 -15.060  0.00  0.00    +0.575 C 
ATOM     23  F   UNL     1      11.019  -0.711 -15.785  0.00  0.00    -0.133 F 
ATOM     24  F   UNL     1      13.013   0.400 -15.892  0.00  0.00    -0.133 F 
ATOM     25  F   UNL     1      12.809  -1.459 -14.579  0.00  0.00    -0.133 F 
ENDBRANCH  21  22
ENDBRANCH  18  21
ENDBRANCH  11  15
BRANCH   1  27
ATOM     26  N   UNL     1       3.641   0.145  -6.790  0.00  0.00    -0.315 N 
ATOM     27  C   UNL     1       4.949  -0.096  -7.006  0.00  0.00    +0.218 C 
ATOM     28  O   UNL     1       5.743   0.009  -6.095  0.00  0.00    -0.275 OA
ATOM     29  H   UNL     1       3.006   0.061  -7.519  0.00  0.00    +0.149 HD
BRANCH  26  30
ATOM     30  C   UNL     1       3.178   0.534  -5.456  0.00  0.00    +0.109 C 
BRANCH  30  31
ATOM     31  C   UNL     1       1.663   0.747  -5.484  0.00  0.00    +0.054 C 
BRANCH  31  35
ATOM     32  C   UNL     1       0.310   1.882  -1.594  0.00  0.00    -0.048 A 
ATOM     33  C   UNL     1       0.697   2.851  -2.502  0.00  0.00    +0.004 A 
ATOM     34  C   UNL     1       1.134   2.483  -3.760  0.00  0.00    +0.004 A 
ATOM     35  C   UNL     1       1.186   1.147  -4.111  0.00  0.00    -0.046 A 
ATOM     36  C   UNL     1       0.801   0.179  -3.203  0.00  0.00    +0.004 A 
ATOM     37  C   UNL     1       0.367   0.546  -1.943  0.00  0.00    +0.004 A 
BRANCH  32  39
ATOM     38  C   UNL     1       1.026   2.348   0.734  0.00  0.00    +0.009 C 
ATOM     39  C   UNL     1      -0.167   2.283  -0.222  0.00  0.00    +0.032 C 
ENDBRANCH  32  39
ENDBRANCH  31  35
ENDBRANCH  30  31
ENDBRANCH  26  30
ENDBRANCH   1  27
TORSDOF 8
