REMARK  Name = ZINC27605962
REMARK  7 active torsions:
REMARK  status: ('A' for Active; 'I' for Inactive)
REMARK    1  A    between atoms: C_5  and  C_7
REMARK    2  A    between atoms: N_9  and  C_10
REMARK    3  A    between atoms: C_10  and  C_11
REMARK    4  A    between atoms: N_13  and  C_14
REMARK    5  A    between atoms: C_14  and  C_15
REMARK    6  A    between atoms: C_15  and  C_17
REMARK    7  A    between atoms: C_15  and  N_22
REMARK                            x       y       z     vdW  Elec       q    Type
REMARK                         _______ _______ _______ _____ _____    ______ ____
ROOT
ATOM      1  C   UNL     1      -1.287  -4.878   0.314  0.00  0.00    +0.230 C 
ATOM      2  O   UNL     1      -2.223  -4.117   0.440  0.00  0.00    -0.274 OA
ATOM      3  N   UNL     1      -1.509  -6.188   0.086  0.00  0.00    -0.315 N 
ATOM      4  H   UNL     1      -0.761  -6.796  -0.014  0.00  0.00    +0.149 HD
ENDROOT
BRANCH   1   5
ATOM      5  C   UNL     1       0.124  -4.359   0.413  0.00  0.00    +0.200 C 
BRANCH   5   8
ATOM      6  C   UNL     1       1.253  -2.233   0.788  0.00  0.00    +0.247 C 
ATOM      7  O   UNL     1       2.316  -2.814   0.694  0.00  0.00    -0.270 OA
ATOM      8  N   UNL     1       0.098  -2.916   0.662  0.00  0.00    -0.303 N 
ATOM      9  H   UNL     1      -0.751  -2.452   0.737  0.00  0.00    +0.150 HD
BRANCH   6  14
ATOM     10  C   UNL     1      -0.012   1.252   1.382  0.00  0.00    +0.001 A 
ATOM     11  C   UNL     1       1.175   1.953   1.511  0.00  0.00    +0.003 A 
ATOM     12  C   UNL     1       2.388   1.298   1.405  0.00  0.00    +0.039 A 
ATOM     13  C   UNL     1       2.422  -0.065   1.170  0.00  0.00    +0.135 A 
ATOM     14  C   UNL     1       1.226  -0.777   1.040  0.00  0.00    +0.072 A 
ATOM     15  C   UNL     1       0.006  -0.106   1.147  0.00  0.00    +0.016 A 
ATOM     16  F   UNL     1       3.607  -0.705   1.067  0.00  0.00    -0.205 F 
ENDBRANCH   6  14
ENDBRANCH   5   8
ENDBRANCH   1   5
BRANCH   3  17
ATOM     17  C   UNL     1      -2.881  -6.692  -0.010  0.00  0.00    +0.094 C 
BRANCH  17  18
ATOM     18  C   UNL     1      -2.857  -8.216  -0.141  0.00  0.00    -0.013 C 
BRANCH  18  19
ATOM     19  N   UNL     1      -4.221  -8.710  -0.370  0.00  0.00    +0.386 N 
ATOM     20  C   UNL     1      -4.216 -10.188  -0.402  0.00  0.00    -0.078 C 
ATOM     21  C   UNL     1      -5.271 -10.564  -1.472  0.00  0.00    -0.020 C 
ATOM     22  C   UNL     1      -5.056  -9.449  -2.529  0.00  0.00    -0.020 C 
ATOM     23  C   UNL     1      -4.717  -8.214  -1.667  0.00  0.00    -0.078 C 
ATOM     24  H   UNL     1      -4.828  -8.390   0.370  0.00  0.00    -0.081 HD
ENDBRANCH  18  19
BRANCH  18  25
ATOM     25  C   UNL     1      -2.310  -8.820   1.127  0.00  0.00    -0.022 A 
ATOM     26  C   UNL     1      -1.060  -9.276   1.385  0.00  0.00    +0.009 A 
ATOM     27  C   UNL     1      -0.780  -9.795   2.635  0.00  0.00    +0.008 A 
ATOM     28  C   UNL     1      -1.765  -9.834   3.566  0.00  0.00    +0.045 A 
ATOM     29  S   UNL     1      -3.139  -9.115   2.680  0.00  0.00    -0.103 S 
ENDBRANCH  18  25
ENDBRANCH  17  18
ENDBRANCH   3  17
TORSDOF 7
