REMARK  Name = ZINC60343518
REMARK  9 active torsions:
REMARK  status: ('A' for Active; 'I' for Inactive)
REMARK    1  A    between atoms: C_1  and  C_2
REMARK    2  A    between atoms: C_2  and  C_3
REMARK    3  A    between atoms: C_7  and  C_14
REMARK    4  A    between atoms: C_14  and  O_15
REMARK    5  A    between atoms: O_15  and  C_16
REMARK    6  A    between atoms: C_16  and  C_18
REMARK    7  A    between atoms: C_21  and  C_26
REMARK    8  A    between atoms: C_22  and  O_25
REMARK    9  A    between atoms: C_23  and  O_24
REMARK                            x       y       z     vdW  Elec       q    Type
REMARK                         _______ _______ _______ _____ _____    ______ ____
ROOT
ATOM      1  C   UNL     1      -6.107  -2.261   1.343  0.00  0.00    +0.269 C 
ENDROOT
BRANCH   1   6
ATOM      2  C   UNL     1      -1.412  -0.526   0.013  0.00  0.00    -0.044 A 
ATOM      3  C   UNL     1      -2.046  -0.764   1.223  0.00  0.00    +0.004 A 
ATOM      4  C   UNL     1      -3.329  -1.237   1.253  0.00  0.00    +0.012 A 
ATOM      5  C   UNL     1      -4.005  -1.482   0.054  0.00  0.00    +0.024 A 
ATOM      6  C   UNL     1      -5.381  -1.988   0.051  0.00  0.00    +0.007 A 
ATOM      7  C   UNL     1      -5.982  -2.204  -1.146  0.00  0.00    +0.099 A 
ATOM      8  C   UNL     1      -5.279  -1.941  -2.342  0.00  0.00    +0.338 A 
ATOM      9  O   UNL     1      -5.830  -2.139  -3.410  0.00  0.00    -0.245 OA
ATOM     10  O   UNL     1      -4.020  -1.477  -2.331  0.00  0.00    -0.422 OA
ATOM     11  C   UNL     1      -3.365  -1.241  -1.175  0.00  0.00    +0.140 A 
ATOM     12  C   UNL     1      -2.063  -0.755  -1.181  0.00  0.00    +0.050 A 
BRANCH   2  14
ATOM     13  C   UNL     1      -0.019   1.526   0.010  0.00  0.00    +0.009 C 
ATOM     14  C   UNL     1       0.002  -0.004   0.002  0.00  0.00    +0.032 C 
ENDBRANCH   2  14
ENDBRANCH   1   6
BRANCH   1  15
ATOM     15  O   UNL     1      -7.422  -2.744   1.057  0.00  0.00    -0.456 OA
BRANCH  15  16
ATOM     16  C   UNL     1      -8.208  -3.038   2.111  0.00  0.00    +0.343 C 
ATOM     17  O   UNL     1      -7.789  -2.889   3.242  0.00  0.00    -0.245 OA
BRANCH  16  18
ATOM     18  C   UNL     1      -9.576  -3.541   1.892  0.00  0.00    +0.104 A 
ATOM     19  C   UNL     1     -10.060  -3.719   0.592  0.00  0.00    +0.019 A 
ATOM     20  C   UNL     1     -11.339  -4.189   0.392  0.00  0.00    +0.008 A 
ATOM     21  C   UNL     1     -12.153  -4.487   1.473  0.00  0.00    -0.005 A 
ATOM     22  C   UNL     1     -11.689  -4.315   2.766  0.00  0.00    +0.162 A 
ATOM     23  C   UNL     1     -10.397  -3.848   2.985  0.00  0.00    +0.173 A 
ATOM     24  C   UNL     1     -13.551  -5.000   1.240  0.00  0.00    +0.047 C 
BRANCH  23  25
ATOM     25  O   UNL     1      -9.936  -3.684   4.251  0.00  0.00    -0.503 OA
ATOM     26  H   UNL     1     -10.107  -2.808   4.622  0.00  0.00    +0.292 HD
ENDBRANCH  23  25
BRANCH  22  27
ATOM     27  O   UNL     1     -12.494  -4.609   3.822  0.00  0.00    -0.503 OA
ATOM     28  H   UNL     1     -12.423  -5.524   4.128  0.00  0.00    +0.292 HD
ENDBRANCH  22  27
ENDBRANCH  16  18
ENDBRANCH  15  16
ENDBRANCH   1  15
TORSDOF 7
