REMARK  Name = ZINC28659744
REMARK  8 active torsions:
REMARK  status: ('A' for Active; 'I' for Inactive)
REMARK    1  A    between atoms: C_1  and  C_2
REMARK    2  A    between atoms: C_5  and  C_30
REMARK    3  A    between atoms: C_6  and  O_8
REMARK    4  A    between atoms: O_8  and  C_9
REMARK    5  A    between atoms: C_9  and  C_10
REMARK    6  A    between atoms: N_12  and  N_13
REMARK    7  A    between atoms: C_14  and  C_16
REMARK    8  A    between atoms: C_23  and  C_25
REMARK                            x       y       z     vdW  Elec       q    Type
REMARK                         _______ _______ _______ _____ _____    ______ ____
ROOT
ATOM      1  N   UNL     1       5.269   7.553   1.571  0.00  0.00    -0.234 N 
ATOM      2  C   UNL     1       5.685   6.274   1.487  0.00  0.00    +0.234 C 
ATOM      3  O   UNL     1       6.871   6.023   1.454  0.00  0.00    -0.274 OA
ATOM      4  H   UNL     1       4.193   7.781   1.601  0.00  0.00    +0.173 HD
ENDROOT
BRANCH   2   5
ATOM      5  C   UNL     1       4.676   5.156   1.435  0.00  0.00    +0.094 C 
ATOM      6  C   UNL     1       5.405   3.814   1.339  0.00  0.00    +0.016 C 
ATOM      7  C   UNL     1       4.382   2.676   1.318  0.00  0.00    +0.020 C 
ATOM      8  C   UNL     1       3.481   2.825   0.094  0.00  0.00    +0.108 C 
ATOM      9  N   UNL     1       2.889   4.170   0.098  0.00  0.00    -0.294 N 
ATOM     10  C   UNL     1       3.778   5.334   0.206  0.00  0.00    +0.121 C 
ATOM     11  C   UNL     1       1.554   4.332   0.009  0.00  0.00    +0.282 C 
ATOM     12  O   UNL     1       1.079   5.451  -0.055  0.00  0.00    -0.267 OA
BRANCH  11  13
ATOM     13  C   UNL     1       0.672   3.160  -0.011  0.00  0.00    +0.189 A 
ATOM     14  C   UNL     1      -0.692   3.181   0.036  0.00  0.00    +0.054 A 
ATOM     15  C   UNL     1      -1.118   1.844  -0.012  0.00  0.00    +0.042 A 
ATOM     16  C   UNL     1      -0.009   1.075  -0.077  0.00  0.00    +0.196 A 
ATOM     17  O   UNL     1       1.068   1.872  -0.080  0.00  0.00    -0.458 OA
ENDBRANCH  11  13
ENDBRANCH   2   5
BRANCH   1  20
ATOM     18  C   UNL     1       5.791   9.872   1.703  0.00  0.00    +0.267 C 
ATOM     19  O   UNL     1       4.605  10.123   1.736  0.00  0.00    -0.271 OA
ATOM     20  N   UNL     1       6.207   8.593   1.620  0.00  0.00    -0.232 N 
ATOM     21  H   UNL     1       7.282   8.365   1.590  0.00  0.00    +0.173 HD
BRANCH  18  22
ATOM     22  C   UNL     1       6.800  10.991   1.756  0.00  0.00    +0.326 C 
BRANCH  22  23
ATOM     23  O   UNL     1       6.118  12.243   1.842  0.00  0.00    -0.482 OA
BRANCH  23  29
ATOM     24  C   UNL     1      10.553  14.280   1.898  0.00  0.00    +0.044 C 
ATOM     25  C   UNL     1       9.051  14.395   1.928  0.00  0.00    -0.047 A 
ATOM     26  C   UNL     1       8.454  15.639   2.012  0.00  0.00    +0.004 A 
ATOM     27  C   UNL     1       7.076  15.748   2.039  0.00  0.00    +0.007 A 
ATOM     28  C   UNL     1       6.292  14.612   1.977  0.00  0.00    -0.009 A 
ATOM     29  C   UNL     1       6.888  13.362   1.898  0.00  0.00    +0.124 A 
ATOM     30  C   UNL     1       8.271  13.256   1.871  0.00  0.00    +0.049 A 
ATOM     31  C   UNL     1       4.790  14.731   2.000  0.00  0.00    +0.047 C 
ENDBRANCH  23  29
ENDBRANCH  22  23
ENDBRANCH  18  22
ENDBRANCH   1  20
TORSDOF 6
