REMARK  Name = ZINC13134976
REMARK  6 active torsions:
REMARK  status: ('A' for Active; 'I' for Inactive)
REMARK    1  A    between atoms: C_5  and  N_7
REMARK    2  A    between atoms: N_7  and  S_8
REMARK    3  A    between atoms: S_8  and  C_11
REMARK    4  A    between atoms: C_15  and  C_17
REMARK    5  A    between atoms: N_19  and  N_20
REMARK    6  A    between atoms: C_21  and  C_23
REMARK                            x       y       z     vdW  Elec       q    Type
REMARK                         _______ _______ _______ _____ _____    ______ ____
ROOT
ATOM      1  C   UNL     1       7.350   1.683   0.283  0.00  0.00    +0.260 C 
ATOM      2  O   UNL     1       7.304   0.469   0.264  0.00  0.00    -0.269 OA
ATOM      3  N   UNL     1       6.211   2.399   0.378  0.00  0.00    -0.230 N 
ATOM      4  H   UNL     1       6.247   3.368   0.393  0.00  0.00    +0.173 HD
ENDROOT
BRANCH   1   9
ATOM      5  C   UNL     1      11.047   2.290   0.024  0.00  0.00    +0.109 A 
ATOM      6  C   UNL     1      11.095   3.673   0.045  0.00  0.00    +0.029 A 
ATOM      7  C   UNL     1       9.928   4.410   0.143  0.00  0.00    +0.003 A 
ATOM      8  C   UNL     1       8.708   3.770   0.216  0.00  0.00    +0.013 A 
ATOM      9  C   UNL     1       8.653   2.376   0.200  0.00  0.00    +0.040 A 
ATOM     10  C   UNL     1       9.834   1.638   0.101  0.00  0.00    +0.042 A 
BRANCH   5  11
ATOM     11  S   UNL     1      12.539   1.361  -0.101  0.00  0.00    +0.072 S 
ATOM     12  O   UNL     1      13.579   2.195   0.390  0.00  0.00    -0.150 OA
ATOM     13  O   UNL     1      12.266   0.079   0.448  0.00  0.00    -0.150 OA
BRANCH  11  14
ATOM     14  N   UNL     1      12.838   1.130  -1.714  0.00  0.00    -0.215 N 
ATOM     15  H   UNL     1      12.883   0.231  -2.075  0.00  0.00    +0.174 HD
BRANCH  14  20
ATOM     16  C   UNL     1      13.864   4.448  -2.917  0.00  0.00    +0.002 A 
ATOM     17  C   UNL     1      13.395   4.412  -4.218  0.00  0.00    +0.002 A 
ATOM     18  C   UNL     1      12.742   3.288  -4.689  0.00  0.00    +0.022 A 
ATOM     19  C   UNL     1      12.555   2.197  -3.861  0.00  0.00    +0.063 A 
ATOM     20  C   UNL     1      13.025   2.231  -2.554  0.00  0.00    +0.066 A 
ATOM     21  C   UNL     1      13.676   3.364  -2.083  0.00  0.00    +0.026 A 
ATOM     22 CL   UNL     1      11.734   0.787  -4.454  0.00  0.00    -0.082 Cl
ENDBRANCH  14  20
ENDBRANCH  11  14
ENDBRANCH   5  11
ENDBRANCH   1   9
BRANCH   3  23
ATOM     23  N   UNL     1       4.976   1.742   0.457  0.00  0.00    -0.230 N 
ATOM     24  C   UNL     1       3.838   2.458   0.552  0.00  0.00    +0.260 C 
ATOM     25  O   UNL     1       3.883   3.673   0.571  0.00  0.00    -0.269 OA
ATOM     26  H   UNL     1       4.940   0.773   0.442  0.00  0.00    +0.173 HD
BRANCH  24  27
ATOM     27  C   UNL     1       2.537   1.767   0.634  0.00  0.00    +0.040 A 
ATOM     28  C   UNL     1       2.487   0.370   0.613  0.00  0.00    +0.014 A 
ATOM     29  C   UNL     1       1.271  -0.272   0.692  0.00  0.00    +0.017 A 
ATOM     30  C   UNL     1       0.100   0.466   0.793  0.00  0.00    +0.030 A 
ATOM     31  C   UNL     1       0.135   1.865   0.812  0.00  0.00    +0.048 A 
ATOM     32  C   UNL     1       1.359   2.510   0.734  0.00  0.00    +0.037 A 
ATOM     33  N   UNL     1      -1.031   2.621   0.901  0.00  0.00    -0.284 N 
ATOM     34  C   UNL     1      -2.204   2.207   1.374  0.00  0.00    +0.227 C 
ATOM     35  O   UNL     1      -3.125   2.996   1.395  0.00  0.00    -0.275 OA
ATOM     36  C   UNL     1      -2.450   0.814   1.885  0.00  0.00    +0.170 C 
ATOM     37  S   UNL     1      -1.460  -0.354   0.903  0.00  0.00    -0.114 S 
ATOM     38  H   UNL     1      -0.984   3.538   0.589  0.00  0.00    +0.155 HD
ENDBRANCH  24  27
ENDBRANCH   3  23
TORSDOF 6
