REMARK  Name = ZINC00538110
REMARK  6 active torsions:
REMARK  status: ('A' for Active; 'I' for Inactive)
REMARK    1  A    between atoms: C_3  and  N_12
REMARK    2  A    between atoms: C_6  and  C_7
REMARK    3  A    between atoms: C_13  and  C_15
REMARK    4  A    between atoms: C_18  and  C_22
REMARK    5  A    between atoms: N_24  and  C_25
REMARK    6  A    between atoms: C_28  and  C_31
REMARK                            x       y       z     vdW  Elec       q    Type
REMARK                         _______ _______ _______ _____ _____    ______ ____
ROOT
ATOM      1  C   UNL     1       6.039   2.208   0.339  0.00  0.00    +0.038 A 
ATOM      2  C   UNL     1       6.018   3.595   0.173  0.00  0.00    +0.014 A 
ATOM      3  C   UNL     1       7.185   4.319   0.270  0.00  0.00    +0.015 A 
ATOM      4  C   UNL     1       8.392   3.667   0.534  0.00  0.00    +0.055 A 
ATOM      5  C   UNL     1       8.414   2.280   0.700  0.00  0.00    +0.054 A 
ATOM      6  C   UNL     1       7.242   1.556   0.608  0.00  0.00    +0.033 A 
ATOM      7 CL   UNL     1       9.913   1.468   1.028  0.00  0.00    -0.083 Cl
ENDROOT
BRANCH   1   9
ATOM      8  N   UNL     1       3.621   2.062  -0.025  0.00  0.00    -0.282 N 
ATOM      9  C   UNL     1       4.783   1.431   0.235  0.00  0.00    +0.248 C 
ATOM     10  O   UNL     1       4.801   0.226   0.384  0.00  0.00    -0.270 OA
ATOM     11  H   UNL     1       3.616   3.014  -0.210  0.00  0.00    +0.155 HD
BRANCH   8  14
ATOM     12  C   UNL     1       1.220  -0.673  -0.506  0.00  0.00    +0.013 A 
ATOM     13  C   UNL     1       2.400   0.038  -0.503  0.00  0.00    +0.024 A 
ATOM     14  C   UNL     1       2.425   1.345  -0.027  0.00  0.00    +0.034 A 
ATOM     15  C   UNL     1       1.259   1.938   0.447  0.00  0.00    +0.024 A 
ATOM     16  C   UNL     1       0.077   1.233   0.446  0.00  0.00    +0.013 A 
ATOM     17  C   UNL     1       0.048  -0.080  -0.031  0.00  0.00    +0.013 A 
BRANCH  17  18
ATOM     18  C   UNL     1      -1.219  -0.839  -0.034  0.00  0.00    +0.100 C 
ATOM     19  N   UNL     1      -1.486  -1.782  -0.923  0.00  0.00    -0.371 N 
ATOM     20  C   UNL     1      -2.820  -2.341  -0.652  0.00  0.00    +0.132 C 
ATOM     21  C   UNL     1      -3.300  -1.544   0.578  0.00  0.00    +0.124 C 
ATOM     22  N   UNL     1      -2.177  -0.635   0.857  0.00  0.00    -0.329 N 
ATOM     23  H   UNL     1      -2.144   0.013   1.578  0.00  0.00    +0.147 HD
ATOM     24  H   UNL     1      -0.895  -2.061  -1.640  0.00  0.00    +0.161 HD
ENDBRANCH  17  18
ENDBRANCH   8  14
ENDBRANCH   1   9
BRANCH   4  25
ATOM     25  C   UNL     1       9.646   4.444   0.637  0.00  0.00    +0.250 C 
ATOM     26  O   UNL     1      10.695   3.876   0.867  0.00  0.00    -0.270 OA
ATOM     27  N   UNL     1       9.624   5.782   0.476  0.00  0.00    -0.281 N 
ATOM     28  H   UNL     1       8.778   6.244   0.366  0.00  0.00    +0.155 HD
BRANCH  27  29
ATOM     29  C   UNL     1      10.818   6.502   0.467  0.00  0.00    +0.034 A 
ATOM     30  C   UNL     1      11.969   5.932  -0.067  0.00  0.00    +0.024 A 
ATOM     31  C   UNL     1      13.149   6.640  -0.076  0.00  0.00    +0.013 A 
ATOM     32  C   UNL     1      13.190   7.933   0.450  0.00  0.00    +0.013 A 
ATOM     33  C   UNL     1      12.033   8.504   0.985  0.00  0.00    +0.013 A 
ATOM     34  C   UNL     1      10.854   7.792   0.988  0.00  0.00    +0.024 A 
BRANCH  32  35
ATOM     35  C   UNL     1      14.455   8.696   0.442  0.00  0.00    +0.100 C 
ATOM     36  N   UNL     1      15.642   8.114   0.509  0.00  0.00    -0.371 N 
ATOM     37  C   UNL     1      16.691   9.146   0.479  0.00  0.00    +0.132 C 
ATOM     38  C   UNL     1      15.896  10.463   0.380  0.00  0.00    +0.124 C 
ATOM     39  N   UNL     1      14.494  10.017   0.361  0.00  0.00    -0.329 N 
ATOM     40  H   UNL     1      13.720  10.598   0.301  0.00  0.00    +0.147 HD
ATOM     41  H   UNL     1      15.796   7.158   0.569  0.00  0.00    +0.161 HD
ENDBRANCH  32  35
ENDBRANCH  27  29
ENDBRANCH   4  25
TORSDOF 6
