REMARK  Name = ZINC04494650
REMARK  13 active torsions:
REMARK  status: ('A' for Active; 'I' for Inactive)
REMARK    1  A    between atoms: C_1  and  C_2
REMARK    2  A    between atoms: C_2  and  C_3
REMARK    3  A    between atoms: C_2  and  C_4
REMARK    4  A    between atoms: C_2  and  C_5
REMARK    5  A    between atoms: C_12  and  N_30
REMARK    6  A    between atoms: C_13  and  C_28
REMARK    7  A    between atoms: C_14  and  C_16
REMARK    8  A    between atoms: C_18  and  O_26
REMARK    9  A    between atoms: C_19  and  O_24
REMARK   10  A    between atoms: C_21  and  O_22
REMARK   11  A    between atoms: O_22  and  C_23
REMARK   12  A    between atoms: O_24  and  C_25
REMARK   13  A    between atoms: O_26  and  C_27
REMARK                            x       y       z     vdW  Elec       q    Type
REMARK                         _______ _______ _______ _____ _____    ______ ____
ROOT
ATOM      1  C   UNL     1       0.781  -0.679  -1.780  0.00  0.00    +0.076 A 
ATOM      2  C   UNL     1       0.864  -2.064  -1.836  0.00  0.00    +0.050 A 
ATOM      3  C   UNL     1       1.581  -2.400  -2.950  0.00  0.00    +0.222 A 
ATOM      4  N   UNL     1       1.931  -1.260  -3.567  0.00  0.00    -0.246 N 
ATOM      5  H   UNL     1       2.446  -1.189  -4.386  0.00  0.00    +0.192 HD
ATOM      6  N   UNL     1       1.415  -0.191  -2.819  0.00  0.00    -0.175 NA
ATOM      7  O   UNL     1       1.845  -3.687  -3.291  0.00  0.00    -0.423 OA
ATOM      8  C   UNL     1       1.619  -4.637  -2.361  0.00  0.00    +0.200 C 
ATOM      9  C   UNL     1       0.915  -4.429  -1.227  0.00  0.00    +0.098 C 
ATOM     10  C   UNL     1       0.299  -3.093  -0.891  0.00  0.00    +0.105 C 
ENDROOT
BRANCH  10  11
ATOM     11  C   UNL     1      -1.197  -3.166  -1.054  0.00  0.00    +0.011 A 
ATOM     12  C   UNL     1      -1.747  -3.346  -2.309  0.00  0.00    +0.057 A 
ATOM     13  C   UNL     1      -3.122  -3.414  -2.461  0.00  0.00    +0.162 A 
ATOM     14  C   UNL     1      -3.951  -3.301  -1.349  0.00  0.00    +0.165 A 
ATOM     15  C   UNL     1      -3.398  -3.121  -0.091  0.00  0.00    +0.095 A 
ATOM     16  C   UNL     1      -2.020  -3.059   0.057  0.00  0.00    +0.128 A 
BRANCH  16  17
ATOM     17  O   UNL     1      -1.477  -2.888   1.292  0.00  0.00    -0.495 OA
ATOM     18  C   UNL     1      -2.384  -2.784   2.391  0.00  0.00    +0.277 C 
ENDBRANCH  16  17
BRANCH  14  19
ATOM     19  O   UNL     1      -5.301  -3.367  -1.496  0.00  0.00    -0.491 OA
ATOM     20  C   UNL     1      -6.090  -3.243  -0.311  0.00  0.00    +0.277 C 
ENDBRANCH  14  19
BRANCH  13  21
ATOM     21  O   UNL     1      -3.663  -3.591  -3.697  0.00  0.00    -0.491 OA
ATOM     22  C   UNL     1      -2.753  -3.698  -4.794  0.00  0.00    +0.277 C 
ENDBRANCH  13  21
ENDBRANCH  10  11
BRANCH   1  24
ATOM     23  C   UNL     1       0.419   1.604  -0.883  0.00  0.00    +0.017 C 
ATOM     24  C   UNL     1       0.079   0.122  -0.714  0.00  0.00    +0.007 C 
ATOM     25  C   UNL     1       0.538  -0.352   0.667  0.00  0.00    +0.017 C 
ATOM     26  C   UNL     1      -1.433  -0.072  -0.842  0.00  0.00    +0.017 C 
ENDBRANCH   1  24
BRANCH   8  27
ATOM     27  N   UNL     1       2.136  -5.890  -2.580  0.00  0.00    -0.328 N 
ATOM     28  H   UNL     1       2.647  -6.071  -3.385  0.00  0.00    +0.145 HD
ATOM     29  H   UNL     1       1.991  -6.595  -1.930  0.00  0.00    +0.145 HD
ENDBRANCH   8  27
BRANCH   9  30
ATOM     30  C   UNL     1       0.746  -5.516  -0.311  0.00  0.00    +0.101 C 
ATOM     31  N   UNL     1       0.612  -6.379   0.416  0.00  0.00    -0.191 NA
ENDBRANCH   9  30
TORSDOF 7
