REMARK  Name = ZINC05194064
REMARK  4 active torsions:
REMARK  status: ('A' for Active; 'I' for Inactive)
REMARK    1  A    between atoms: C_1  and  C_2
REMARK    2  A    between atoms: C_5  and  N_8
REMARK    3  A    between atoms: C_10  and  N_15
REMARK    4  A    between atoms: C_16  and  C_18
REMARK                            x       y       z     vdW  Elec       q    Type
REMARK                         _______ _______ _______ _____ _____    ______ ____
ROOT
ATOM      1  N   UNL     1       1.917  -1.541  -0.348  0.00  0.00    -0.306 N 
ATOM      2  C   UNL     1       1.668  -2.779   0.123  0.00  0.00    +0.251 C 
ATOM      3  O   UNL     1       1.060  -2.921   1.167  0.00  0.00    -0.270 OA
ATOM      4  H   UNL     1       2.403  -1.427  -1.180  0.00  0.00    +0.149 HD
ENDROOT
BRANCH   2   5
ATOM      5  C   UNL     1       2.133  -3.959  -0.625  0.00  0.00    +0.122 A 
ATOM      6  C   UNL     1       2.826  -3.811  -1.814  0.00  0.00    +0.031 A 
ATOM      7  C   UNL     1       3.255  -4.975  -2.502  0.00  0.00    +0.018 A 
ATOM      8  C   UNL     1       3.960  -4.862  -3.709  0.00  0.00    +0.011 A 
ATOM      9  C   UNL     1       4.370  -5.986  -4.366  0.00  0.00    +0.001 A 
ATOM     10  C   UNL     1       4.093  -7.244  -3.847  0.00  0.00    +0.004 A 
ATOM     11  C   UNL     1       3.402  -7.379  -2.662  0.00  0.00    +0.047 A 
ATOM     12  C   UNL     1       2.975  -6.248  -1.974  0.00  0.00    +0.139 A 
ATOM     13  O   UNL     1       2.297  -6.383  -0.814  0.00  0.00    -0.422 OA
ATOM     14  C   UNL     1       1.874  -5.312  -0.121  0.00  0.00    +0.350 A 
ATOM     15  O   UNL     1       1.271  -5.466   0.924  0.00  0.00    -0.244 OA
ENDBRANCH   2   5
BRANCH   1  18
ATOM     16  N   UNL     1       1.237   1.988   0.001  0.00  0.00    -0.270 N 
ATOM     17  C   UNL     1       2.223   0.901  -0.039  0.00  0.00    +0.136 C 
ATOM     18  C   UNL     1       1.455  -0.367   0.396  0.00  0.00    +0.100 C 
ATOM     19  C   UNL     1       0.002  -0.004   0.011  0.00  0.00    +0.120 C 
ATOM     20  C   UNL     1      -0.018   1.508   0.024  0.00  0.00    +0.222 C 
ATOM     21  O   UNL     1      -1.022   2.189   0.047  0.00  0.00    -0.275 OA
BRANCH  16  26
ATOM     22  C   UNL     1       2.558   7.505   0.049  0.00  0.00    +0.044 C 
ATOM     23  C   UNL     1       2.207   6.040   0.036  0.00  0.00    -0.050 A 
ATOM     24  C   UNL     1       3.209   5.090   0.118  0.00  0.00    +0.005 A 
ATOM     25  C   UNL     1       2.890   3.746   0.107  0.00  0.00    +0.024 A 
ATOM     26  C   UNL     1       1.563   3.349   0.013  0.00  0.00    +0.036 A 
ATOM     27  C   UNL     1       0.560   4.305  -0.074  0.00  0.00    +0.024 A 
ATOM     28  C   UNL     1       0.884   5.647  -0.057  0.00  0.00    +0.005 A 
ENDBRANCH  16  26
ENDBRANCH   1  18
TORSDOF 3
