REMARK  Name = ZINC21250421
REMARK  10 active torsions:
REMARK  status: ('A' for Active; 'I' for Inactive)
REMARK    1  A    between atoms: C_1  and  C_2
REMARK    2  A    between atoms: C_2  and  C_3
REMARK    3  A    between atoms: C_3  and  O_4
REMARK    4  A    between atoms: O_4  and  C_5
REMARK    5  A    between atoms: C_8  and  C_11
REMARK    6  A    between atoms: C_16  and  C_26
REMARK    7  A    between atoms: C_31  and  O_32
REMARK    8  A    between atoms: O_32  and  C_33
REMARK    9  A    between atoms: C_33  and  C_34
REMARK   10  A    between atoms: C_33  and  C_35
REMARK                            x       y       z     vdW  Elec       q    Type
REMARK                         _______ _______ _______ _____ _____    ______ ____
ROOT
ATOM      1  C   UNL     1      -4.600  -0.312  -0.700  0.00  0.00    +0.032 C 
ATOM      2  C   UNL     1      -3.072  -0.280  -0.719  0.00  0.00    +0.059 C 
ATOM      3  C   UNL     1      -2.584   1.154  -0.593  0.00  0.00    +0.017 C 
ATOM      4  C   UNL     1      -3.295   2.163  -1.123  0.00  0.00    +0.037 C 
ATOM      5  C   UNL     1      -2.916   3.624  -1.096  0.00  0.00    +0.139 C 
ATOM      6  N   UNL     1      -1.814   3.944  -0.199  0.00  0.00    -0.331 N 
ATOM      7  C   UNL     1      -0.533   3.447  -0.436  0.00  0.00    +0.049 A 
ATOM      8  C   UNL     1       0.517   4.282  -0.778  0.00  0.00    +0.025 A 
ATOM      9  C   UNL     1       1.750   3.733  -1.087  0.00  0.00    +0.002 A 
ATOM     10  C   UNL     1       1.932   2.362  -1.056  0.00  0.00    +0.002 A 
ATOM     11  C   UNL     1       0.888   1.526  -0.698  0.00  0.00    +0.025 A 
ATOM     12  C   UNL     1      -0.342   2.075  -0.378  0.00  0.00    +0.052 A 
ATOM     13  N   UNL     1      -1.407   1.299   0.065  0.00  0.00    -0.316 N 
ATOM     14  C   UNL     1      -4.524   1.903  -1.775  0.00  0.00    +0.163 C 
ATOM     15  O   UNL     1      -5.136   2.833  -2.263  0.00  0.00    -0.292 OA
ATOM     16  C   UNL     1      -5.098   0.523  -1.885  0.00  0.00    +0.088 C 
ATOM     17  H   UNL     1      -1.988   4.585   0.678  0.00  0.00    +0.147 HD
ATOM     18  H   UNL     1      -1.244   0.783   1.023  0.00  0.00    +0.152 HD
ENDROOT
BRANCH   1  22
ATOM     19  C   UNL     1      -5.969  -4.342  -1.084  0.00  0.00    +0.121 A 
ATOM     20  C   UNL     1      -6.300  -3.600   0.040  0.00  0.00    +0.046 A 
ATOM     21  C   UNL     1      -5.856  -2.297   0.162  0.00  0.00    +0.007 A 
ATOM     22  C   UNL     1      -5.082  -1.733  -0.836  0.00  0.00    -0.043 A 
ATOM     23  C   UNL     1      -4.756  -2.469  -1.960  0.00  0.00    +0.007 A 
ATOM     24  C   UNL     1      -5.192  -3.773  -2.084  0.00  0.00    +0.046 A 
BRANCH  19  25
ATOM     25  O   UNL     1      -6.404  -5.623  -1.206  0.00  0.00    -0.492 OA
BRANCH  25  26
ATOM     26  C   UNL     1      -6.025  -6.327  -2.391  0.00  0.00    +0.229 C 
BRANCH  26  28
ATOM     27  C   UNL     1      -6.197  -8.497  -3.618  0.00  0.00    +0.007 C 
ATOM     28  C   UNL     1      -6.603  -7.743  -2.350  0.00  0.00    +0.038 C 
ENDBRANCH  26  28
ENDBRANCH  25  26
ENDBRANCH  19  25
ENDBRANCH   1  22
BRANCH   5  29
ATOM     29  C   UNL     1      -2.535   4.044  -2.493  0.00  0.00    +0.019 A 
ATOM     30  C   UNL     1      -2.237   3.089  -3.445  0.00  0.00    +0.009 A 
ATOM     31  C   UNL     1      -1.893   3.474  -4.728  0.00  0.00    +0.001 A 
ATOM     32  C   UNL     1      -1.836   4.815  -5.058  0.00  0.00    +0.004 A 
ATOM     33  C   UNL     1      -2.128   5.774  -4.108  0.00  0.00    +0.046 A 
ATOM     34  C   UNL     1      -2.479   5.391  -2.821  0.00  0.00    +0.126 A 
BRANCH  34  35
ATOM     35  O   UNL     1      -2.767   6.333  -1.885  0.00  0.00    -0.489 OA
BRANCH  35  36
ATOM     36  C   UNL     1      -2.582   7.699  -2.261  0.00  0.00    +0.167 C 
ATOM     37  C   UNL     1      -3.831   8.202  -2.987  0.00  0.00    +0.051 C 
ATOM     38  C   UNL     1      -2.344   8.545  -1.008  0.00  0.00    +0.051 C 
ENDBRANCH  35  36
ENDBRANCH  34  35
ENDBRANCH   5  29
TORSDOF 7
