REMARK  Name = ZINC19799808
REMARK  7 active torsions:
REMARK  status: ('A' for Active; 'I' for Inactive)
REMARK    1  A    between atoms: C_3  and  C_6
REMARK    2  A    between atoms: N_8  and  C_9
REMARK    3  A    between atoms: C_9  and  C_11
REMARK    4  A    between atoms: C_9  and  N_15
REMARK    5  A    between atoms: N_15  and  C_16
REMARK    6  A    between atoms: C_16  and  N_18
REMARK    7  A    between atoms: N_18  and  C_19
REMARK                            x       y       z     vdW  Elec       q    Type
REMARK                         _______ _______ _______ _____ _____    ______ ____
ROOT
ATOM      1  N   UNL     1      -4.743   3.888  -0.428  0.00  0.00    -0.305 N 
ATOM      2  H   UNL     1      -4.766   4.958  -0.176  0.00  0.00    +0.150 HD
ENDROOT
BRANCH   1   3
ATOM      3  C   UNL     1      -3.587   3.200  -0.346  0.00  0.00    +0.136 C 
ATOM      4  S   UNL     1      -3.551   1.535  -0.739  0.00  0.00    -0.019 S 
BRANCH   3   5
ATOM      5  N   UNL     1      -2.458   3.825   0.045  0.00  0.00    -0.295 N 
ATOM      6  H   UNL     1      -2.496   4.873   0.375  0.00  0.00    +0.154 HD
BRANCH   5   7
ATOM      7  C   UNL     1      -1.238   3.139   0.032  0.00  0.00    +0.070 A 
ATOM      8  C   UNL     1      -0.446   3.150  -1.110  0.00  0.00    +0.065 A 
ATOM      9  C   UNL     1       0.756   2.467  -1.122  0.00  0.00    +0.042 A 
ATOM     10  C   UNL     1       1.176   1.782   0.005  0.00  0.00    +0.044 A 
ATOM     11  C   UNL     1       0.392   1.774   1.145  0.00  0.00    +0.042 A 
ATOM     12  C   UNL     1      -0.813   2.451   1.162  0.00  0.00    +0.065 A 
ATOM     13 CL   UNL     1      -1.796   2.440   2.592  0.00  0.00    -0.082 Cl
ATOM     14 CL   UNL     1       2.690   0.932  -0.012  0.00  0.00    -0.083 Cl
ATOM     15 CL   UNL     1      -0.968   4.015  -2.522  0.00  0.00    -0.082 Cl
ENDBRANCH   5   7
ENDBRANCH   3   5
ENDBRANCH   1   3
BRANCH   1  16
ATOM     16  C   UNL     1      -5.970   3.209  -0.854  0.00  0.00    +0.211 C 
BRANCH  16  19
ATOM     17  C   UNL     1      -6.940   1.748   0.838  0.00  0.00    +0.281 C 
ATOM     18  O   UNL     1      -6.322   0.821   0.350  0.00  0.00    -0.267 OA
ATOM     19  N   UNL     1      -6.832   2.983   0.309  0.00  0.00    -0.287 N 
ATOM     20  H   UNL     1      -7.390   3.822   0.751  0.00  0.00    +0.151 HD
BRANCH  17  23
ATOM     21  C   UNL     1      -8.896   0.574   3.688  0.00  0.00    +0.042 A 
ATOM     22  C   UNL     1      -8.003   0.328   2.634  0.00  0.00    +0.054 A 
ATOM     23  C   UNL     1      -7.803   1.522   2.002  0.00  0.00    +0.189 A 
ATOM     24  O   UNL     1      -8.534   2.459   2.641  0.00  0.00    -0.458 OA
ATOM     25  C   UNL     1      -9.198   1.890   3.655  0.00  0.00    +0.196 A 
ENDBRANCH  17  23
ENDBRANCH  16  19
BRANCH  16  26
ATOM     26  C   UNL     1      -6.707   4.079  -1.874  0.00  0.00    +0.225 C 
ATOM     27 CL   UNL     1      -5.646   4.357  -3.305  0.00  0.00    -0.080 Cl
ATOM     28 CL   UNL     1      -8.217   3.244  -2.397  0.00  0.00    -0.080 Cl
ATOM     29 CL   UNL     1      -7.127   5.663  -1.120  0.00  0.00    -0.080 Cl
ENDBRANCH  16  26
ENDBRANCH   1  16
TORSDOF 7
