REMARK  Name = ZINC20719635
REMARK  11 active torsions:
REMARK  status: ('A' for Active; 'I' for Inactive)
REMARK    1  A    between atoms: C_1  and  C_2
REMARK    2  A    between atoms: C_2  and  N_3
REMARK    3  A    between atoms: N_3  and  C_4
REMARK    4  A    between atoms: N_3  and  C_6
REMARK    5  A    between atoms: C_4  and  C_5
REMARK    6  A    between atoms: C_6  and  C_7
REMARK    7  A    between atoms: C_7  and  N_8
REMARK    8  A    between atoms: C_9  and  C_11
REMARK    9  A    between atoms: C_24  and  C_27
REMARK   10  A    between atoms: C_36  and  O_37
REMARK   11  A    between atoms: O_37  and  C_38
REMARK                            x       y       z     vdW  Elec       q    Type
REMARK                         _______ _______ _______ _____ _____    ______ ____
ROOT
ATOM      1  C   UNL     1      -4.434   3.991  -0.551  0.00  0.00    +0.037 A 
ATOM      2  C   UNL     1      -3.515   5.012  -0.809  0.00  0.00    +0.015 A 
ATOM      3  C   UNL     1      -2.202   4.868  -0.428  0.00  0.00    +0.024 A 
ATOM      4  C   UNL     1      -1.775   3.709   0.216  0.00  0.00    +0.031 A 
ATOM      5  C   UNL     1      -2.700   2.690   0.484  0.00  0.00    -0.019 A 
ATOM      6  C   UNL     1      -4.012   2.829   0.101  0.00  0.00    +0.019 A 
ATOM      7  C   UNL     1      -2.205   1.486   1.189  0.00  0.00    +0.049 C 
ATOM      8  C   UNL     1      -2.867   0.168   1.011  0.00  0.00    -0.023 C 
ATOM      9  C   UNL     1      -1.950  -0.786   1.127  0.00  0.00    -0.030 C 
ATOM     10  C   UNL     1      -0.572  -0.161   1.352  0.00  0.00    +0.033 C 
ATOM     11  C   UNL     1      -0.749   1.218   0.704  0.00  0.00    +0.029 C 
ATOM     12  C   UNL     1       0.080   2.361   1.261  0.00  0.00    +0.109 C 
ATOM     13  N   UNL     1      -0.429   3.580   0.558  0.00  0.00    -0.336 N 
ATOM     14  H   UNL     1       0.262   4.396   0.302  0.00  0.00    +0.147 HD
ENDROOT
BRANCH  12  15
ATOM     15  C   UNL     1       1.538   2.151   0.943  0.00  0.00    +0.022 A 
ATOM     16  C   UNL     1       2.428   1.737   1.948  0.00  0.00    -0.009 A 
ATOM     17  C   UNL     1       1.987   1.512   3.264  0.00  0.00    +0.009 A 
ATOM     18  C   UNL     1       2.877   1.112   4.213  0.00  0.00    +0.001 A 
ATOM     19  C   UNL     1       4.222   0.923   3.901  0.00  0.00    +0.001 A 
ATOM     20  C   UNL     1       4.682   1.121   2.635  0.00  0.00    +0.008 A 
ATOM     21  C   UNL     1       3.794   1.540   1.630  0.00  0.00    -0.017 A 
ATOM     22  C   UNL     1       4.238   1.771   0.316  0.00  0.00    +0.012 A 
ATOM     23  C   UNL     1       3.353   2.176  -0.633  0.00  0.00    +0.046 A 
ATOM     24  C   UNL     1       2.002   2.366  -0.323  0.00  0.00    +0.126 A 
BRANCH  24  25
ATOM     25  O   UNL     1       1.141   2.771  -1.293  0.00  0.00    -0.495 OA
ATOM     26  C   UNL     1       1.686   2.979  -2.598  0.00  0.00    +0.277 C 
ENDBRANCH  24  25
ENDBRANCH  12  15
BRANCH   1  28
ATOM     27  N   UNL     1      -6.246   5.261  -1.592  0.00  0.00    -0.313 N 
ATOM     28  C   UNL     1      -5.843   4.139  -0.964  0.00  0.00    +0.244 C 
ATOM     29  O   UNL     1      -6.639   3.249  -0.737  0.00  0.00    -0.270 OA
ATOM     30  H   UNL     1      -5.525   6.066  -1.796  0.00  0.00    +0.149 HD
BRANCH  27  31
ATOM     31  C   UNL     1      -7.645   5.408  -2.002  0.00  0.00    +0.086 C 
BRANCH  31  32
ATOM     32  C   UNL     1      -7.835   6.763  -2.688  0.00  0.00    -0.060 C 
BRANCH  32  33
ATOM     33  N   UNL     1      -9.238   6.910  -3.099  0.00  0.00    +0.380 N 
ATOM     34  H   UNL     1      -9.871   6.706  -2.222  0.00  0.00    -0.082 HD
BRANCH  33  36
ATOM     35  C   UNL     1      -9.619   9.203  -2.327  0.00  0.00    -0.017 C 
ATOM     36  C   UNL     1      -9.514   8.283  -3.544  0.00  0.00    -0.082 C 
ENDBRANCH  33  36
BRANCH  33  37
ATOM     37  C   UNL     1      -9.585   5.938  -4.143  0.00  0.00    -0.082 C 
ATOM     38  C   UNL     1     -11.108   5.841  -4.264  0.00  0.00    -0.017 C 
ENDBRANCH  33  37
ENDBRANCH  32  33
ENDBRANCH  31  32
ENDBRANCH  27  31
ENDBRANCH   1  28
TORSDOF 8
