REMARK  Name = ZINC46974663
REMARK  5 active torsions:
REMARK  status: ('A' for Active; 'I' for Inactive)
REMARK    1  A    between atoms: C_1  and  C_2
REMARK    2  A    between atoms: C_2  and  C_4
REMARK    3  A    between atoms: C_2  and  N_15
REMARK    4  A    between atoms: C_21  and  C_24
REMARK    5  A    between atoms: C_24  and  O_25
REMARK                            x       y       z     vdW  Elec       q    Type
REMARK                         _______ _______ _______ _____ _____    ______ ____
ROOT
ATOM      1  C   UNL     1      -0.021   1.528   0.011  0.00  0.00    +0.033 C 
ATOM      2  C   UNL     1       0.001  -0.002   0.002  0.00  0.00    +0.102 C 
ENDROOT
BRANCH   2   3
ATOM      3  C   UNL     1       0.707  -0.487  -1.238  0.00  0.00    -0.025 A 
ATOM      4  C   UNL     1       0.035  -0.518  -2.446  0.00  0.00    +0.009 A 
ATOM      5  C   UNL     1       0.676  -0.960  -3.589  0.00  0.00    +0.048 A 
ATOM      6  C   UNL     1       1.995  -1.374  -3.523  0.00  0.00    +0.142 A 
ATOM      7  C   UNL     1       2.672  -1.344  -2.305  0.00  0.00    +0.076 A 
ATOM      8  C   UNL     1       2.027  -0.894  -1.165  0.00  0.00    +0.032 A 
ATOM      9  N   UNL     1       4.007  -1.768  -2.252  0.00  0.00    -0.280 N 
ATOM     10  C   UNL     1       4.700  -1.894  -3.405  0.00  0.00    +0.255 C 
ATOM     11  O   UNL     1       5.847  -2.290  -3.386  0.00  0.00    -0.272 OA
ATOM     12  C   UNL     1       4.043  -1.541  -4.715  0.00  0.00    +0.325 C 
ATOM     13  O   UNL     1       2.641  -1.811  -4.637  0.00  0.00    -0.481 OA
ATOM     14  H   UNL     1       4.427  -1.968  -1.401  0.00  0.00    +0.155 HD
ENDBRANCH   2   3
BRANCH   2  15
ATOM     15  N   UNL     1      -1.373  -0.510   0.012  0.00  0.00    -0.293 N 
ATOM     16  C   UNL     1      -2.029  -0.655   1.181  0.00  0.00    +0.303 C 
ATOM     17  O   UNL     1      -1.451  -0.452   2.231  0.00  0.00    -0.253 OA
ATOM     18  N   UNL     1      -3.325  -1.025   1.185  0.00  0.00    -0.286 N 
ATOM     19  C   UNL     1      -4.004  -1.386  -0.067  0.00  0.00    +0.109 C 
ATOM     20  C   UNL     1      -5.276  -0.544  -0.199  0.00  0.00    +0.025 C 
ATOM     21  C   UNL     1      -6.134  -0.723   1.056  0.00  0.00    +0.017 C 
ATOM     22  C   UNL     1      -5.357  -0.236   2.281  0.00  0.00    +0.025 C 
ATOM     23  C   UNL     1      -4.084  -1.081   2.441  0.00  0.00    +0.109 C 
ATOM     24  H   UNL     1      -1.810  -0.743  -0.822  0.00  0.00    +0.151 HD
BRANCH  21  25
ATOM     25  C   UNL     1      -7.422   0.090   0.913  0.00  0.00    +0.159 C 
BRANCH  25  26
ATOM     26  O   UNL     1      -8.275  -0.168   2.030  0.00  0.00    -0.395 OA
ATOM     27  H   UNL     1      -9.112   0.315   2.006  0.00  0.00    +0.209 HD
ENDBRANCH  25  26
ENDBRANCH  21  25
ENDBRANCH   2  15
TORSDOF 4
