REMARK  Name = ZINC34896537
REMARK  5 active torsions:
REMARK  status: ('A' for Active; 'I' for Inactive)
REMARK    1  A    between atoms: C_3  and  C_6
REMARK    2  A    between atoms: C_16  and  C_18
REMARK    3  A    between atoms: C_23  and  C_25
REMARK    4  A    between atoms: C_25  and  N_26
REMARK    5  A    between atoms: C_30  and  C_33
REMARK                            x       y       z     vdW  Elec       q    Type
REMARK                         _______ _______ _______ _____ _____    ______ ____
ROOT
ATOM      1  C   UNL     1       3.734   1.803  -0.024  0.00  0.00    +0.020 C 
ATOM      2  C   UNL     1       4.761   0.921  -0.039  0.00  0.00    -0.023 C 
ATOM      3  C   UNL     1       4.471  -0.549  -0.050  0.00  0.00    +0.037 C 
ATOM      4  C   UNL     1       5.698  -1.427   0.094  0.00  0.00    +0.005 C 
ATOM      5  C   UNL     1       6.951  -0.826  -0.540  0.00  0.00    +0.012 C 
ATOM      6  C   UNL     1       7.279   0.476   0.192  0.00  0.00    +0.067 C 
ATOM      7  C   UNL     1       6.089   1.400  -0.049  0.00  0.00    +0.068 C 
ATOM      8  N   UNL     1       6.540   2.589  -0.263  0.00  0.00    -0.181 NA
ATOM      9  N   UNL     1       7.930   2.637  -0.429  0.00  0.00    -0.186 N 
ATOM     10  C   UNL     1       8.435   1.236  -0.480  0.00  0.00    +0.146 C 
ATOM     11  C   UNL     1       8.682   3.752  -0.511  0.00  0.00    +0.219 C 
ATOM     12  O   UNL     1       9.884   3.663  -0.656  0.00  0.00    -0.276 OA
ENDROOT
BRANCH   1  15
ATOM     13  C   UNL     1      -0.016   1.355   0.009  0.00  0.00    +0.008 A 
ATOM     14  C   UNL     1       1.172   2.045   0.002  0.00  0.00    +0.015 A 
ATOM     15  C   UNL     1       2.354   1.319  -0.013  0.00  0.00    +0.012 A 
ATOM     16  S   UNL     1       1.751  -0.362  -0.017  0.00  0.00    -0.097 S 
ATOM     17  C   UNL     1       0.002  -0.004   0.002  0.00  0.00    +0.046 A 
ENDBRANCH   1  15
BRANCH  10  18
ATOM     18  C   UNL     1       8.614   0.794  -1.910  0.00  0.00    +0.013 A 
ATOM     19  C   UNL     1       9.514  -0.077  -2.427  0.00  0.00    +0.013 A 
ATOM     20  C   UNL     1       9.492  -0.336  -3.785  0.00  0.00    +0.008 A 
ATOM     21  C   UNL     1       8.572   0.290  -4.559  0.00  0.00    +0.045 A 
ATOM     22  S   UNL     1       7.690   1.275  -3.360  0.00  0.00    -0.100 S 
ENDBRANCH  10  18
BRANCH  11  23
ATOM     23  C   UNL     1       8.032   5.108  -0.421  0.00  0.00    +0.021 C 
BRANCH  23  24
ATOM     24  N   UNL     1       9.059   6.152  -0.536  0.00  0.00    +0.386 N 
ATOM     25  C   UNL     1       9.968   6.071   0.614  0.00  0.00    -0.078 C 
ATOM     26  C   UNL     1      11.087   7.103   0.459  0.00  0.00    -0.018 C 
ATOM     27  C   UNL     1      10.475   8.505   0.388  0.00  0.00    +0.009 C 
ATOM     28  C   UNL     1       9.473   8.556  -0.769  0.00  0.00    +0.058 C 
ATOM     29  C   UNL     1       8.414   7.470  -0.568  0.00  0.00    -0.065 C 
ATOM     30  H   UNL     1       9.584   6.015  -1.387  0.00  0.00    -0.081 HD
BRANCH  28  31
ATOM     31  C   UNL     1       8.809   9.909  -0.800  0.00  0.00    +0.212 C 
ATOM     32  O   UNL     1       7.605   9.996  -0.678  0.00  0.00    -0.276 OA
ATOM     33  N   UNL     1       9.552  11.021  -0.964  0.00  0.00    -0.329 N 
ATOM     34  H   UNL     1      10.514  10.951  -1.062  0.00  0.00    +0.145 HD
ATOM     35  H   UNL     1       9.124  11.891  -0.984  0.00  0.00    +0.145 HD
ENDBRANCH  28  31
ENDBRANCH  23  24
ENDBRANCH  11  23
TORSDOF 5
