REMARK  Name = ZINC64352683
REMARK  7 active torsions:
REMARK  status: ('A' for Active; 'I' for Inactive)
REMARK    1  A    between atoms: C_1  and  C_2
REMARK    2  A    between atoms: C_7  and  N_12
REMARK    3  A    between atoms: C_13  and  C_15
REMARK    4  A    between atoms: C_15  and  C_17
REMARK    5  A    between atoms: C_15  and  N_27
REMARK    6  A    between atoms: C_17  and  C_18
REMARK    7  A    between atoms: C_28  and  C_30
REMARK                            x       y       z     vdW  Elec       q    Type
REMARK                         _______ _______ _______ _____ _____    ______ ____
ROOT
ATOM      1  C   UNL     1      -4.398  -5.016   5.105  0.00  0.00    +0.163 C 
ENDROOT
BRANCH   1   3
ATOM      2  N   UNL     1      -3.455  -3.408   3.479  0.00  0.00    -0.284 N 
ATOM      3  C   UNL     1      -3.277  -4.149   4.591  0.00  0.00    +0.238 C 
ATOM      4  O   UNL     1      -2.216  -4.119   5.177  0.00  0.00    -0.273 OA
ATOM      5  H   UNL     1      -4.326  -3.372   3.054  0.00  0.00    +0.155 HD
BRANCH   2  11
ATOM      6  C   UNL     1       2.678  -2.130   0.489  0.00  0.00    +0.074 C 
ATOM      7  C   UNL     1       1.979  -1.636   1.757  0.00  0.00    +0.257 C 
ATOM      8  N   UNL     1       1.344  -2.761   2.457  0.00  0.00    -0.307 N 
ATOM      9  C   UNL     1      -0.028  -2.477   2.495  0.00  0.00    +0.074 A 
ATOM     10  C   UNL     1      -1.091  -3.191   3.030  0.00  0.00    +0.050 A 
ATOM     11  C   UNL     1      -2.381  -2.688   2.938  0.00  0.00    +0.035 A 
ATOM     12  C   UNL     1      -2.606  -1.471   2.310  0.00  0.00    +0.027 A 
ATOM     13  C   UNL     1      -1.549  -0.760   1.776  0.00  0.00    +0.049 A 
ATOM     14  C   UNL     1      -0.254  -1.257   1.865  0.00  0.00    +0.144 A 
ATOM     15  O   UNL     1       0.922  -0.734   1.418  0.00  0.00    -0.469 OA
ATOM     16  H   UNL     1       1.787  -3.545   2.820  0.00  0.00    +0.150 HD
ENDBRANCH   2  11
ENDBRANCH   1   3
BRANCH   1  17
ATOM     17  N   UNL     1      -3.850  -6.049   5.987  0.00  0.00    -0.299 N 
ATOM     18  C   UNL     1      -3.175  -5.697   7.099  0.00  0.00    +0.251 C 
ATOM     19  O   UNL     1      -3.019  -4.521   7.370  0.00  0.00    -0.270 OA
ATOM     20  H   UNL     1      -3.974  -6.987   5.771  0.00  0.00    +0.150 HD
BRANCH  18  21
ATOM     21  C   UNL     1      -2.627  -6.731   7.982  0.00  0.00    +0.074 A 
ATOM     22  C   UNL     1      -1.914  -6.585   9.162  0.00  0.00    +0.021 A 
ATOM     23  C   UNL     1      -1.528  -7.753   9.775  0.00  0.00    +0.008 A 
ATOM     24  C   UNL     1      -1.858  -8.937   9.204  0.00  0.00    +0.046 A 
ATOM     25  S   UNL     1      -2.710  -8.505   7.822  0.00  0.00    -0.092 S 
ENDBRANCH  18  21
ENDBRANCH   1  17
BRANCH   1  26
ATOM     26  C   UNL     1      -5.393  -4.154   5.885  0.00  0.00    +0.065 C 
BRANCH  26  27
ATOM     27  C   UNL     1      -6.574  -4.996   6.293  0.00  0.00    -0.039 C 
ATOM     28  C   UNL     1      -6.753  -5.626   7.477  0.00  0.00    -0.001 A 
ATOM     29  C   UNL     1      -5.932  -5.713   8.691  0.00  0.00    +0.010 A 
ATOM     30  C   UNL     1      -6.387  -6.436   9.739  0.00  0.00    +0.001 A 
ATOM     31  C   UNL     1      -7.619  -7.104   9.695  0.00  0.00    +0.002 A 
ATOM     32  C   UNL     1      -8.428  -7.071   8.616  0.00  0.00    +0.026 A 
ATOM     33  C   UNL     1      -8.050  -6.339   7.456  0.00  0.00    +0.043 A 
ATOM     34  N   UNL     1      -8.649  -6.158   6.305  0.00  0.00    -0.380 N 
ATOM     35  C   UNL     1      -7.802  -5.303   5.466  0.00  0.00    +0.144 C 
ATOM     36  H   UNL     1      -9.511  -6.524   6.051  0.00  0.00    +0.160 HD
ENDBRANCH  26  27
ENDBRANCH   1  26
TORSDOF 6
