REMARK  Name = ZINC06732429
REMARK  7 active torsions:
REMARK  status: ('A' for Active; 'I' for Inactive)
REMARK    1  A    between atoms: C_1  and  C_2
REMARK    2  A    between atoms: C_3  and  C_28
REMARK    3  A    between atoms: C_4  and  C_21
REMARK    4  A    between atoms: C_9  and  C_11
REMARK    5  A    between atoms: C_14  and  N_17
REMARK    6  A    between atoms: N_17  and  C_18
REMARK    7  A    between atoms: N_17  and  C_19
REMARK                            x       y       z     vdW  Elec       q    Type
REMARK                         _______ _______ _______ _____ _____    ______ ____
ROOT
ATOM      1  C   UNL     1      -5.121   2.376   2.522  0.00  0.00    +0.061 C 
ATOM      2  C   UNL     1      -4.411   2.078   1.226  0.00  0.00    +0.018 C 
ATOM      3  C   UNL     1      -3.303   1.325   1.253  0.00  0.00    +0.060 C 
ATOM      4  C   UNL     1      -2.514   0.979   0.019  0.00  0.00    +0.177 C 
ATOM      5  N   UNL     1      -3.290   1.328  -1.168  0.00  0.00    -0.220 N 
ATOM      6  C   UNL     1      -4.414   2.088  -1.133  0.00  0.00    +0.219 A 
ATOM      7  N   UNL     1      -4.856   2.217  -2.353  0.00  0.00    -0.193 NA
ATOM      8  C   UNL     1      -4.047   1.551  -3.196  0.00  0.00    +0.183 A 
ATOM      9  N   UNL     1      -3.075   0.992  -2.504  0.00  0.00    -0.147 NA
ATOM     10  N   UNL     1      -4.922   2.588   0.058  0.00  0.00    -0.287 N 
ATOM     11  H   UNL     1      -5.611   3.271   0.065  0.00  0.00    +0.155 HD
ENDROOT
BRANCH   4  12
ATOM     12  C   UNL     1      -1.219   1.750   0.017  0.00  0.00    -0.018 A 
ATOM     13  C   UNL     1      -0.013   1.076   0.008  0.00  0.00    +0.007 A 
ATOM     14  C   UNL     1       1.175   1.783   0.000  0.00  0.00    +0.020 A 
ATOM     15  C   UNL     1       1.156   3.166   0.008  0.00  0.00    +0.041 A 
ATOM     16  C   UNL     1      -0.052   3.841   0.023  0.00  0.00    +0.020 A 
ATOM     17  C   UNL     1      -1.239   3.133   0.031  0.00  0.00    +0.007 A 
ATOM     18 CL   UNL     1       2.647   4.055  -0.002  0.00  0.00    -0.084 Cl
ENDBRANCH   4  12
BRANCH   8  19
ATOM     19  C   UNL     1      -4.221   1.461  -4.667  0.00  0.00    +0.021 A 
ATOM     20  C   UNL     1      -3.308   0.741  -5.435  0.00  0.00    +0.013 A 
ATOM     21  C   UNL     1      -3.474   0.653  -6.800  0.00  0.00    +0.024 A 
ATOM     22  C   UNL     1      -4.547   1.291  -7.413  0.00  0.00    +0.029 A 
ATOM     23  C   UNL     1      -5.456   2.014  -6.649  0.00  0.00    +0.024 A 
ATOM     24  C   UNL     1      -5.296   2.100  -5.283  0.00  0.00    +0.013 A 
BRANCH  22  25
ATOM     25  N   UNL     1      -4.711   1.206  -8.796  0.00  0.00    -0.336 N 
ATOM     26  C   UNL     1      -5.841   1.878  -9.443  0.00  0.00    +0.129 C 
ATOM     27  C   UNL     1      -3.753   0.444  -9.602  0.00  0.00    +0.129 C 
ENDBRANCH  22  25
ENDBRANCH   8  19
BRANCH   3  28
ATOM     28  C   UNL     1      -2.853   0.831   2.501  0.00  0.00    +0.241 C 
ATOM     29  O   UNL     1      -3.470   1.093   3.518  0.00  0.00    -0.271 OA
ATOM     30  N   UNL     1      -1.743   0.070   2.564  0.00  0.00    -0.325 N 
ATOM     31  H   UNL     1      -1.252  -0.139   1.754  0.00  0.00    +0.145 HD
ATOM     32  H   UNL     1      -1.435  -0.269   3.419  0.00  0.00    +0.145 HD
ENDBRANCH   3  28
TORSDOF 4
