REMARK  Name = ZINC31223446
REMARK  9 active torsions:
REMARK  status: ('A' for Active; 'I' for Inactive)
REMARK    1  A    between atoms: C_1  and  C_2
REMARK    2  A    between atoms: C_5  and  C_7
REMARK    3  A    between atoms: C_9  and  C_29
REMARK    4  A    between atoms: C_10  and  C_12
REMARK    5  A    between atoms: N_14  and  N_15
REMARK    6  A    between atoms: C_16  and  C_18
REMARK    7  A    between atoms: C_18  and  C_20
REMARK    8  A    between atoms: C_18  and  O_21
REMARK    9  A    between atoms: O_21  and  C_22
REMARK                            x       y       z     vdW  Elec       q    Type
REMARK                         _______ _______ _______ _____ _____    ______ ____
ROOT
ATOM      1  C   UNL     1      -0.029   0.050  -0.565  0.00  0.00    +0.269 C 
ATOM      2  O   UNL     1       1.008  -0.566  -0.407  0.00  0.00    -0.268 OA
ATOM      3  N   UNL     1      -0.027   1.397  -0.517  0.00  0.00    -0.230 N 
ATOM      4  H   UNL     1      -0.965   1.954  -0.660  0.00  0.00    +0.173 HD
ENDROOT
BRANCH   1   8
ATOM      5  C   UNL     1      -3.745  -1.620  -1.263  0.00  0.00    +0.144 A 
ATOM      6  N   UNL     1      -2.725  -2.464  -1.117  0.00  0.00    -0.240 NA
ATOM      7  C   UNL     1      -1.514  -2.039  -0.893  0.00  0.00    +0.058 A 
ATOM      8  C   UNL     1      -1.280  -0.672  -0.805  0.00  0.00    +0.098 A 
ATOM      9  S   UNL     1      -2.934  -0.039  -1.060  0.00  0.00    -0.059 S 
ATOM     10  C   UNL     1      -0.380  -3.018  -0.732  0.00  0.00    +0.067 C 
BRANCH   5  15
ATOM     11  C   UNL     1      -7.988  -4.155  -2.082  0.00  0.00    +0.086 C 
ATOM     12  C   UNL     1      -7.024  -3.015  -1.877  0.00  0.00    +0.103 A 
ATOM     13  C   UNL     1      -7.345  -1.704  -1.886  0.00  0.00    +0.045 A 
ATOM     14  C   UNL     1      -6.157  -0.987  -1.657  0.00  0.00    +0.052 A 
ATOM     15  C   UNL     1      -5.162  -1.910  -1.517  0.00  0.00    +0.160 A 
ATOM     16  O   UNL     1      -5.706  -3.135  -1.660  0.00  0.00    -0.458 OA
ENDBRANCH   5  15
ENDBRANCH   1   8
BRANCH   3  17
ATOM     17  N   UNL     1       1.170   2.088  -0.287  0.00  0.00    -0.231 N 
ATOM     18  C   UNL     1       1.172   3.435  -0.240  0.00  0.00    +0.270 C 
ATOM     19  O   UNL     1       0.138   4.049  -0.397  0.00  0.00    -0.270 OA
ATOM     20  H   UNL     1       2.108   1.531  -0.145  0.00  0.00    +0.173 HD
BRANCH  18  21
ATOM     21  C   UNL     1       2.460   4.178   0.008  0.00  0.00    +0.257 C 
ATOM     22  C   UNL     1       3.417   3.944  -1.163  0.00  0.00    +0.062 C 
BRANCH  21  23
ATOM     23  O   UNL     1       2.188   5.575   0.129  0.00  0.00    -0.480 OA
BRANCH  23  24
ATOM     24  C   UNL     1       3.078   6.319   0.838  0.00  0.00    +0.122 A 
ATOM     25  C   UNL     1       4.243   5.737   1.316  0.00  0.00    +0.048 A 
ATOM     26  C   UNL     1       5.149   6.495   2.031  0.00  0.00    +0.042 A 
ATOM     27  C   UNL     1       4.890   7.831   2.282  0.00  0.00    +0.124 A 
ATOM     28  C   UNL     1       3.725   8.412   1.811  0.00  0.00    +0.042 A 
ATOM     29  C   UNL     1       2.819   7.658   1.090  0.00  0.00    +0.048 A 
ATOM     30  F   UNL     1       5.775   8.570   2.986  0.00  0.00    -0.205 F 
ENDBRANCH  23  24
ENDBRANCH  21  23
ENDBRANCH  18  21
ENDBRANCH   3  17
TORSDOF 6
