REMARK  Name = ZINC39634781
REMARK  12 active torsions:
REMARK  status: ('A' for Active; 'I' for Inactive)
REMARK    1  A    between atoms: C_1  and  C_2
REMARK    2  A    between atoms: C_6  and  C_9
REMARK    3  A    between atoms: C_13  and  C_22
REMARK    4  A    between atoms: N_24  and  C_25
REMARK    5  A    between atoms: C_25  and  C_26
REMARK    6  A    between atoms: C_26  and  N_27
REMARK    7  A    between atoms: N_27  and  C_28
REMARK    8  A    between atoms: N_27  and  C_31
REMARK    9  A    between atoms: C_28  and  C_29
REMARK   10  A    between atoms: C_28  and  C_30
REMARK   11  A    between atoms: C_31  and  C_32
REMARK   12  A    between atoms: C_31  and  C_33
REMARK                            x       y       z     vdW  Elec       q    Type
REMARK                         _______ _______ _______ _____ _____    ______ ____
ROOT
ATOM      1  C   UNL     1       0.202  -4.528   1.098  0.00  0.00    +0.252 C 
ATOM      2  O   UNL     1       1.251  -4.962   1.535  0.00  0.00    -0.270 OA
ATOM      3  N   UNL     1      -0.926  -4.632   1.828  0.00  0.00    -0.296 N 
ATOM      4  C   UNL     1      -2.288  -4.173   1.466  0.00  0.00    +0.121 C 
ATOM      5  C   UNL     1      -3.226  -5.284   1.986  0.00  0.00    +0.100 C 
ATOM      6  C   UNL     1      -2.433  -5.974   3.108  0.00  0.00    -0.004 C 
ATOM      7  C   UNL     1      -1.087  -5.237   3.172  0.00  0.00    +0.115 C 
ATOM      8  C   UNL     1      -2.207  -7.444   2.769  0.00  0.00    -0.010 C 
ATOM      9  C   UNL     1      -1.465  -8.122   3.925  0.00  0.00    -0.082 C 
ATOM     10  N   UNL     1      -2.257  -7.999   5.155  0.00  0.00    +0.379 N 
ATOM     11  C   UNL     1      -2.391  -6.585   5.525  0.00  0.00    -0.082 C 
ATOM     12  C   UNL     1      -3.171  -5.842   4.437  0.00  0.00    -0.010 C 
ATOM     13  H   UNL     1      -3.173  -8.394   5.005  0.00  0.00    -0.086 HD
ATOM     14  H   UNL     1      -1.796  -8.498   5.901  0.00  0.00    -0.086 HD
ENDROOT
BRANCH   1  20
ATOM     15  C   UNL     1       0.572  -0.434  -1.737  0.00  0.00    +0.047 C 
ATOM     16  C   UNL     1       0.342  -1.918  -1.602  0.00  0.00    -0.014 A 
ATOM     17  C   UNL     1       0.095  -2.683  -2.727  0.00  0.00    +0.009 A 
ATOM     18  C   UNL     1      -0.117  -4.045  -2.615  0.00  0.00    +0.039 A 
ATOM     19  C   UNL     1      -0.084  -4.653  -1.374  0.00  0.00    +0.138 A 
ATOM     20  C   UNL     1       0.165  -3.887  -0.230  0.00  0.00    +0.107 A 
ATOM     21  C   UNL     1       0.385  -2.511  -0.354  0.00  0.00    +0.141 A 
ATOM     22  F   UNL     1       0.632  -1.763   0.744  0.00  0.00    -0.204 F 
ATOM     23  F   UNL     1      -0.292  -5.984  -1.266  0.00  0.00    -0.205 F 
ENDBRANCH   1  20
BRANCH   5  24
ATOM     24  C   UNL     1      -4.497  -4.685   2.531  0.00  0.00    +0.218 C 
ATOM     25  O   UNL     1      -4.472  -3.603   3.079  0.00  0.00    -0.275 OA
ATOM     26  N   UNL     1      -5.662  -5.352   2.410  0.00  0.00    -0.317 N 
ATOM     27  H   UNL     1      -5.683  -6.217   1.972  0.00  0.00    +0.149 HD
BRANCH  26  28
ATOM     28  C   UNL     1      -6.898  -4.769   2.940  0.00  0.00    +0.085 C 
BRANCH  28  29
ATOM     29  C   UNL     1      -8.065  -5.722   2.673  0.00  0.00    -0.059 C 
BRANCH  29  30
ATOM     30  N   UNL     1      -9.319  -5.094   3.111  0.00  0.00    +0.384 N 
ATOM     31  H   UNL     1      -9.420  -4.196   2.663  0.00  0.00    -0.081 HD
BRANCH  30  32
ATOM     32  C   UNL     1     -10.452  -5.954   2.745  0.00  0.00    -0.074 C 
ATOM     33  C   UNL     1     -11.764  -5.236   3.070  0.00  0.00    -0.014 C 
ATOM     34  C   UNL     1     -10.396  -6.261   1.247  0.00  0.00    -0.014 C 
ENDBRANCH  30  32
BRANCH  30  35
ATOM     35  C   UNL     1      -9.293  -4.913   4.569  0.00  0.00    -0.074 C 
ATOM     36  C   UNL     1      -8.508  -6.059   5.211  0.00  0.00    -0.014 C 
ATOM     37  C   UNL     1      -8.619  -3.582   4.906  0.00  0.00    -0.014 C 
ENDBRANCH  30  35
ENDBRANCH  29  30
ENDBRANCH  28  29
ENDBRANCH  26  28
ENDBRANCH   5  24
TORSDOF 7
