REMARK  Name = ZINC39883414
REMARK  8 active torsions:
REMARK  status: ('A' for Active; 'I' for Inactive)
REMARK    1  A    between atoms: C_1  and  C_2
REMARK    2  A    between atoms: C_8  and  C_11
REMARK    3  A    between atoms: C_11  and  C_12
REMARK    4  A    between atoms: N_14  and  C_15
REMARK    5  A    between atoms: C_18  and  S_21
REMARK    6  A    between atoms: S_21  and  N_24
REMARK    7  A    between atoms: N_24  and  C_25
REMARK    8  A    between atoms: C_29  and  C_31
REMARK                            x       y       z     vdW  Elec       q    Type
REMARK                         _______ _______ _______ _____ _____    ______ ____
ROOT
ATOM      1  C   UNL     1      -2.934  -2.444   5.916  0.00  0.00    +0.034 A 
ATOM      2  C   UNL     1      -3.956  -2.606   4.990  0.00  0.00    +0.025 A 
ATOM      3  C   UNL     1      -5.274  -2.538   5.400  0.00  0.00    +0.031 A 
ATOM      4  C   UNL     1      -5.574  -2.309   6.730  0.00  0.00    +0.111 A 
ATOM      5  C   UNL     1      -4.559  -2.146   7.654  0.00  0.00    +0.031 A 
ATOM      6  C   UNL     1      -3.239  -2.219   7.252  0.00  0.00    +0.025 A 
ENDROOT
BRANCH   1   9
ATOM      7  C   UNL     1      -0.669  -3.055   6.316  0.00  0.00    +0.222 C 
ATOM      8  O   UNL     1      -0.974  -3.408   7.436  0.00  0.00    -0.275 OA
ATOM      9  N   UNL     1      -1.598  -2.512   5.504  0.00  0.00    -0.285 N 
ATOM     10  H   UNL     1      -1.341  -2.169   4.634  0.00  0.00    +0.155 HD
BRANCH   7  11
ATOM     11  C   UNL     1       0.748  -3.224   5.833  0.00  0.00    +0.135 C 
BRANCH  11  19
ATOM     12  C   UNL     1       0.966  -8.921   6.576  0.00  0.00    +0.044 C 
ATOM     13  C   UNL     1       1.532  -7.661   7.179  0.00  0.00    -0.050 A 
ATOM     14  C   UNL     1       2.395  -7.743   8.263  0.00  0.00    +0.007 A 
ATOM     15  C   UNL     1       2.924  -6.603   8.829  0.00  0.00    +0.047 A 
ATOM     16  C   UNL     1       2.592  -5.357   8.312  0.00  0.00    +0.135 A 
ATOM     17  C   UNL     1       1.718  -5.281   7.215  0.00  0.00    +0.024 A 
ATOM     18  C   UNL     1       1.198  -6.445   6.652  0.00  0.00    +0.015 A 
ATOM     19  C   UNL     1       1.579  -3.849   6.923  0.00  0.00    +0.007 A 
ATOM     20  C   UNL     1       2.341  -3.209   7.822  0.00  0.00    +0.200 A 
ATOM     21  O   UNL     1       2.936  -4.095   8.639  0.00  0.00    -0.463 OA
ENDBRANCH  11  19
ENDBRANCH   7  11
ENDBRANCH   1   9
BRANCH   4  22
ATOM     22  S   UNL     1      -7.256  -2.223   7.249  0.00  0.00    +0.094 S 
ATOM     23  O   UNL     1      -7.274  -1.457   8.445  0.00  0.00    -0.148 OA
ATOM     24  O   UNL     1      -8.017  -1.864   6.103  0.00  0.00    -0.148 OA
BRANCH  22  25
ATOM     25  N   UNL     1      -7.720  -3.758   7.662  0.00  0.00    -0.058 NA
BRANCH  25  26
ATOM     26  C   UNL     1      -9.008  -3.994   8.112  0.00  0.00    +0.258 A 
ATOM     27  N   UNL     1      -9.858  -2.982   8.200  0.00  0.00    -0.220 NA
ATOM     28  C   UNL     1     -11.096  -3.174   8.625  0.00  0.00    +0.116 A 
ATOM     29  C   UNL     1     -11.498  -4.452   8.981  0.00  0.00    +0.043 A 
ATOM     30  C   UNL     1     -10.583  -5.487   8.877  0.00  0.00    +0.043 A 
ATOM     31  N   UNL     1      -9.362  -5.228   8.439  0.00  0.00    -0.217 NA
ATOM     32  C   UNL     1     -10.977  -6.893   9.252  0.00  0.00    +0.066 C 
ENDBRANCH  25  26
ENDBRANCH  22  25
ENDBRANCH   4  22
TORSDOF 6
