REMARK  Name = ZINC67269231
REMARK  6 active torsions:
REMARK  status: ('A' for Active; 'I' for Inactive)
REMARK    1  A    between atoms: C_1  and  C_2
REMARK    2  A    between atoms: C_2  and  C_4
REMARK    3  A    between atoms: C_2  and  C_21
REMARK    4  A    between atoms: C_4  and  N_5
REMARK    5  A    between atoms: N_5  and  C_6
REMARK    6  A    between atoms: C_7  and  C_9
REMARK                            x       y       z     vdW  Elec       q    Type
REMARK                         _______ _______ _______ _____ _____    ______ ____
ROOT
ATOM      1  C   UNL     1      -3.553   1.362  -2.561  0.00  0.00    +0.075 C 
ATOM      2  C   UNL     1      -2.627   1.275  -3.776  0.00  0.00    +0.015 C 
ATOM      3  C   UNL     1      -3.418   1.607  -5.043  0.00  0.00    +0.036 C 
ATOM      4  C   UNL     1      -4.003   3.011  -4.928  0.00  0.00    +0.112 C 
ATOM      5  C   UNL     1      -4.909   3.120  -3.707  0.00  0.00    +0.036 C 
ATOM      6  C   UNL     1      -4.112   2.782  -2.445  0.00  0.00    +0.015 C 
ATOM      7  C   UNL     1      -2.897   4.039  -4.859  0.00  0.00    +0.244 C 
ATOM      8  O   UNL     1      -2.037   4.137  -4.010  0.00  0.00    -0.273 OA
ATOM      9  N   UNL     1      -3.069   4.826  -5.941  0.00  0.00    -0.238 N 
ATOM     10  C   UNL     1      -4.121   4.436  -6.673  0.00  0.00    +0.307 C 
ATOM     11  O   UNL     1      -4.476   4.990  -7.695  0.00  0.00    -0.252 OA
ATOM     12  N   UNL     1      -4.741   3.362  -6.148  0.00  0.00    -0.285 N 
ATOM     13  H   UNL     1      -2.502   5.581  -6.162  0.00  0.00    +0.159 HD
ATOM     14  H   UNL     1      -5.520   2.909  -6.506  0.00  0.00    +0.151 HD
ENDROOT
BRANCH   1  17
ATOM     15  N   UNL     1      -2.431  -0.255  -1.062  0.00  0.00    -0.303 N 
ATOM     16  C   UNL     1      -2.719  -1.299  -2.048  0.00  0.00    +0.132 C 
ATOM     17  C   UNL     1      -2.779   1.023  -1.313  0.00  0.00    +0.218 C 
ATOM     18  O   UNL     1      -2.468   1.900  -0.535  0.00  0.00    -0.275 OA
BRANCH  15  19
ATOM     19  C   UNL     1      -1.765  -0.599   0.196  0.00  0.00    +0.125 C 
BRANCH  19  21
ATOM     20  C   UNL     1       0.129   0.967  -0.255  0.00  0.00    +0.025 C 
ATOM     21  C   UNL     1      -0.249  -0.490   0.018  0.00  0.00    +0.106 C 
BRANCH  21  22
ATOM     22  C   UNL     1       0.424  -0.950   1.243  0.00  0.00    +0.067 C 
ATOM     23  N   UNL     1       0.943  -1.305   2.189  0.00  0.00    -0.196 NA
ENDBRANCH  21  22
ENDBRANCH  19  21
ENDBRANCH  15  19
ENDBRANCH   1  17
TORSDOF 4
