REMARK  Name = ZINC18209178
REMARK  7 active torsions:
REMARK  status: ('A' for Active; 'I' for Inactive)
REMARK    1  A    between atoms: C_1  and  C_2
REMARK    2  A    between atoms: C_7  and  C_9
REMARK    3  A    between atoms: C_9  and  C_11
REMARK    4  A    between atoms: C_9  and  C_17
REMARK    5  A    between atoms: C_17  and  C_19
REMARK    6  A    between atoms: C_17  and  C_21
REMARK    7  A    between atoms: C_26  and  C_29
REMARK                            x       y       z     vdW  Elec       q    Type
REMARK                         _______ _______ _______ _____ _____    ______ ____
ROOT
ATOM      1  C   UNL     1       0.526   2.179   0.649  0.00  0.00    +0.063 C 
ATOM      2  C   UNL     1       0.543   0.720   0.269  0.00  0.00    +0.047 C 
ATOM      3  N   UNL     1       0.621   0.247  -0.913  0.00  0.00    -0.179 NA
ATOM      4  N   UNL     1       0.614  -1.144  -0.947  0.00  0.00    -0.135 N 
ATOM      5  C   UNL     1       0.526  -1.661   0.297  0.00  0.00    +0.250 C 
ATOM      6  O   UNL     1       0.498  -2.832   0.610  0.00  0.00    -0.273 OA
ATOM      7  C   UNL     1       0.477  -0.457   1.219  0.00  0.00    +0.132 C 
ATOM      8  C   UNL     1       0.688  -1.903  -2.110  0.00  0.00    +0.188 A 
ATOM      9  N   UNL     1       0.782  -1.502  -3.364  0.00  0.00    -0.223 NA
ATOM     10  C   UNL     1       0.843  -2.372  -4.361  0.00  0.00    +0.080 A 
ATOM     11  C   UNL     1       0.809  -3.711  -4.087  0.00  0.00    +0.077 A 
ATOM     12  S   UNL     1       0.691  -3.680  -2.303  0.00  0.00    -0.058 S 
ENDROOT
BRANCH  10  13
ATOM     13  C   UNL     1       0.947  -1.897  -5.763  0.00  0.00    +0.001 A 
ATOM     14  C   UNL     1       1.005  -2.815  -6.810  0.00  0.00    +0.010 A 
ATOM     15  C   UNL     1       1.102  -2.368  -8.112  0.00  0.00    +0.001 A 
ATOM     16  C   UNL     1       1.142  -1.011  -8.379  0.00  0.00    +0.000 A 
ATOM     17  C   UNL     1       1.084  -0.096  -7.343  0.00  0.00    +0.001 A 
ATOM     18  C   UNL     1       0.981  -0.531  -6.038  0.00  0.00    +0.010 A 
ENDBRANCH  10  13
BRANCH   7  19
ATOM     19  C   UNL     1       1.678  -0.452   2.166  0.00  0.00    +0.062 C 
BRANCH  19  20
ATOM     20  C   UNL     1       2.953  -0.473   1.362  0.00  0.00    -0.042 A 
ATOM     21  C   UNL     1       3.208  -1.521   0.498  0.00  0.00    +0.004 A 
ATOM     22  C   UNL     1       4.377  -1.540  -0.240  0.00  0.00    +0.000 A 
ATOM     23  C   UNL     1       5.290  -0.510  -0.113  0.00  0.00    +0.000 A 
ATOM     24  C   UNL     1       5.035   0.538   0.750  0.00  0.00    +0.000 A 
ATOM     25  C   UNL     1       3.864   0.559   1.485  0.00  0.00    +0.004 A 
ENDBRANCH  19  20
BRANCH  19  26
ATOM     26  C   UNL     1       1.623  -1.688   3.066  0.00  0.00    +0.185 C 
BRANCH  26  27
ATOM     27  C   UNL     1       0.426  -1.593   3.977  0.00  0.00    +0.228 C 
ATOM     28  O   UNL     1       0.580  -1.385   5.162  0.00  0.00    -0.275 OA
ATOM     29  N   UNL     1      -0.816  -1.741   3.475  0.00  0.00    -0.328 N 
ATOM     30  H   UNL     1      -0.937  -1.970   2.540  0.00  0.00    +0.145 HD
ATOM     31  H   UNL     1      -1.589  -1.618   4.048  0.00  0.00    +0.145 HD
ENDBRANCH  26  27
BRANCH  26  32
ATOM     32  C   UNL     1       2.851  -1.761   3.876  0.00  0.00    +0.076 C 
ATOM     33  N   UNL     1       3.798  -1.817   4.500  0.00  0.00    -0.196 NA
ENDBRANCH  26  32
ENDBRANCH  19  26
ENDBRANCH   7  19
TORSDOF 6
