REMARK  Name = ZINC48853649
REMARK  6 active torsions:
REMARK  status: ('A' for Active; 'I' for Inactive)
REMARK    1  A    between atoms: C_3  and  C_6
REMARK    2  A    between atoms: C_6  and  C_8
REMARK    3  A    between atoms: C_6  and  N_23
REMARK    4  A    between atoms: C_8  and  N_9
REMARK    5  A    between atoms: C_10  and  C_12
REMARK    6  A    between atoms: N_14  and  C_15
REMARK                            x       y       z     vdW  Elec       q    Type
REMARK                         _______ _______ _______ _____ _____    ______ ____
ROOT
ATOM      1  N   UNL     1       3.510   2.674  -2.312  0.00  0.00    -0.309 N 
ATOM      2  C   UNL     1       3.737   2.691  -3.640  0.00  0.00    +0.299 C 
ATOM      3  O   UNL     1       4.640   2.030  -4.110  0.00  0.00    -0.265 OA
ATOM      4  H   UNL     1       2.789   3.202  -1.936  0.00  0.00    +0.149 HD
ENDROOT
BRANCH   2   5
ATOM      5  C   UNL     1       2.877   3.522  -4.534  0.00  0.00    +0.303 C 
ATOM      6  O   UNL     1       1.974   4.183  -4.065  0.00  0.00    -0.265 OA
ATOM      7  N   UNL     1       3.104   3.538  -5.863  0.00  0.00    -0.276 N 
ATOM      8  H   UNL     1       3.859   3.054  -6.232  0.00  0.00    +0.155 HD
BRANCH   7   9
ATOM      9  C   UNL     1       2.250   4.253  -6.709  0.00  0.00    +0.052 A 
ATOM     10  C   UNL     1       1.671   5.438  -6.274  0.00  0.00    +0.027 A 
ATOM     11  C   UNL     1       0.828   6.142  -7.111  0.00  0.00    +0.040 A 
ATOM     12  C   UNL     1       0.559   5.667  -8.384  0.00  0.00    +0.125 A 
ATOM     13  C   UNL     1       1.135   4.486  -8.821  0.00  0.00    +0.060 A 
ATOM     14  C   UNL     1       1.984   3.781  -7.989  0.00  0.00    +0.065 A 
ATOM     15 CL   UNL     1       2.712   2.305  -8.540  0.00  0.00    -0.082 Cl
ATOM     16  F   UNL     1      -0.266   6.358  -9.201  0.00  0.00    -0.205 F 
ENDBRANCH   7   9
ENDBRANCH   2   5
BRANCH   1  17
ATOM     17  C   UNL     1       4.354   1.859  -1.435  0.00  0.00    +0.094 C 
BRANCH  17  18
ATOM     18  C   UNL     1       3.811   1.918  -0.005  0.00  0.00    -0.013 C 
BRANCH  18  19
ATOM     19  N   UNL     1       4.697   1.158   0.887  0.00  0.00    +0.386 N 
ATOM     20  C   UNL     1       4.125   1.130   2.250  0.00  0.00    -0.078 C 
ATOM     21  C   UNL     1       5.351   1.207   3.194  0.00  0.00    -0.020 C 
ATOM     22  C   UNL     1       6.283   2.176   2.420  0.00  0.00    -0.020 C 
ATOM     23  C   UNL     1       6.019   1.808   0.945  0.00  0.00    -0.078 C 
ATOM     24  H   UNL     1       4.798   0.214   0.543  0.00  0.00    -0.081 HD
ENDBRANCH  18  19
BRANCH  18  27
ATOM     25  C   UNL     1       0.073   1.189   0.075  0.00  0.00    +0.008 A 
ATOM     26  C   UNL     1       1.227   1.949   0.039  0.00  0.00    +0.009 A 
ATOM     27  C   UNL     1       2.428   1.321   0.032  0.00  0.00    -0.022 A 
ATOM     28  S   UNL     1       1.946  -0.397   0.078  0.00  0.00    -0.103 S 
ATOM     29  C   UNL     1       0.177  -0.162   0.103  0.00  0.00    +0.045 A 
ENDBRANCH  18  27
ENDBRANCH  17  18
ENDBRANCH   1  17
TORSDOF 6
