REMARK  Name = ZINC39667146
REMARK  7 active torsions:
REMARK  status: ('A' for Active; 'I' for Inactive)
REMARK    1  A    between atoms: C_1  and  C_2
REMARK    2  A    between atoms: C_5  and  C_9
REMARK    3  A    between atoms: C_6  and  C_8
REMARK    4  A    between atoms: C_9  and  C_10
REMARK    5  A    between atoms: C_10  and  N_11
REMARK    6  A    between atoms: C_12  and  C_14
REMARK    7  A    between atoms: C_25  and  C_27
REMARK                            x       y       z     vdW  Elec       q    Type
REMARK                         _______ _______ _______ _____ _____    ______ ____
ROOT
ATOM      1  C   UNL     1      -2.423  -8.837   0.620  0.00  0.00    +0.100 C 
ATOM      2  C   UNL     1      -1.986  -9.161  -0.827  0.00  0.00    +0.121 C 
ATOM      3  N   UNL     1      -2.860 -10.284  -1.240  0.00  0.00    -0.296 N 
ATOM      4  C   UNL     1      -4.185  -9.951  -0.665  0.00  0.00    +0.115 C 
ATOM      5  C   UNL     1      -3.867  -9.357   0.722  0.00  0.00    -0.004 C 
ATOM      6  C   UNL     1      -4.821  -8.208   1.034  0.00  0.00    -0.010 C 
ATOM      7  C   UNL     1      -6.242  -8.758   1.189  0.00  0.00    -0.082 C 
ATOM      8  N   UNL     1      -6.269  -9.752   2.269  0.00  0.00    +0.379 N 
ATOM      9  C   UNL     1      -5.420 -10.897   1.918  0.00  0.00    -0.082 C 
ATOM     10  C   UNL     1      -3.965 -10.437   1.794  0.00  0.00    -0.010 C 
ATOM     11  C   UNL     1      -2.525 -11.365  -1.972  0.00  0.00    +0.248 C 
ATOM     12  O   UNL     1      -3.381 -12.161  -2.309  0.00  0.00    -0.270 OA
ATOM     13  H   UNL     1      -5.928  -9.331   3.120  0.00  0.00    -0.086 HD
ATOM     14  H   UNL     1      -7.217 -10.068   2.410  0.00  0.00    -0.086 HD
ENDROOT
BRANCH  11  15
ATOM     15  C   UNL     1      -1.126 -11.583  -2.361  0.00  0.00    +0.052 A 
ATOM     16  C   UNL     1      -0.307 -10.537  -2.644  0.00  0.00    +0.059 A 
ATOM     17  S   UNL     1       1.173 -11.223  -3.036  0.00  0.00    -0.096 S 
ATOM     18  C   UNL     1       0.783 -12.940  -2.845  0.00  0.00    +0.020 A 
ATOM     19  C   UNL     1      -0.569 -12.935  -2.453  0.00  0.00    +0.001 A 
ATOM     20  C   UNL     1      -1.177 -14.182  -2.215  0.00  0.00    +0.010 A 
ATOM     21  C   UNL     1      -0.460 -15.344  -2.361  0.00  0.00    +0.001 A 
ATOM     22  C   UNL     1       0.873 -15.322  -2.744  0.00  0.00    +0.001 A 
ATOM     23  C   UNL     1       1.492 -14.113  -2.995  0.00  0.00    +0.015 A 
ENDBRANCH  11  15
BRANCH   1  25
ATOM     24  N   UNL     1      -2.149  -6.874   2.099  0.00  0.00    -0.315 N 
ATOM     25  C   UNL     1      -2.382  -7.350   0.860  0.00  0.00    +0.218 C 
ATOM     26  O   UNL     1      -2.559  -6.582  -0.061  0.00  0.00    -0.275 OA
ATOM     27  H   UNL     1      -2.007  -7.489   2.836  0.00  0.00    +0.149 HD
BRANCH  24  28
ATOM     28  C   UNL     1      -2.109  -5.429   2.333  0.00  0.00    +0.109 C 
BRANCH  28  29
ATOM     29  C   UNL     1      -1.829  -5.159   3.813  0.00  0.00    +0.054 C 
BRANCH  29  34
ATOM     30  C   UNL     1      -1.673   0.544   4.732  0.00  0.00    +0.044 C 
ATOM     31  C   UNL     1      -1.714  -0.943   4.492  0.00  0.00    -0.050 A 
ATOM     32  C   UNL     1      -0.542  -1.638   4.262  0.00  0.00    +0.003 A 
ATOM     33  C   UNL     1      -0.579  -3.002   4.043  0.00  0.00    +0.004 A 
ATOM     34  C   UNL     1      -1.789  -3.672   4.053  0.00  0.00    -0.043 A 
ATOM     35  C   UNL     1      -2.961  -2.977   4.284  0.00  0.00    -0.047 A 
ATOM     36  C   UNL     1      -2.923  -1.613   4.508  0.00  0.00    +0.007 A 
ATOM     37  C   UNL     1      -4.279  -3.706   4.295  0.00  0.00    +0.044 C 
ENDBRANCH  29  34
ENDBRANCH  28  29
ENDBRANCH  24  28
ENDBRANCH   1  25
TORSDOF 5
