REMARK  Name = ZINC40170598
REMARK  10 active torsions:
REMARK  status: ('A' for Active; 'I' for Inactive)
REMARK    1  A    between atoms: C_1  and  C_2
REMARK    2  A    between atoms: C_4  and  C_37
REMARK    3  A    between atoms: C_8  and  C_36
REMARK    4  A    between atoms: C_12  and  S_15
REMARK    5  A    between atoms: S_15  and  C_16
REMARK    6  A    between atoms: C_16  and  C_18
REMARK    7  A    between atoms: C_16  and  C_19
REMARK    8  A    between atoms: N_21  and  C_22
REMARK    9  A    between atoms: C_25  and  S_28
REMARK   10  A    between atoms: S_28  and  N_31
REMARK                            x       y       z     vdW  Elec       q    Type
REMARK                         _______ _______ _______ _____ _____    ______ ____
ROOT
ATOM      1  C   UNL     1       2.493  -6.370  -2.886  0.00  0.00    +0.137 C 
ATOM      2  C   UNL     1       1.226  -7.109  -3.321  0.00  0.00    +0.029 C 
ENDROOT
BRANCH   1   3
ATOM      3  C   UNL     1       3.427  -6.240  -4.062  0.00  0.00    +0.230 C 
ATOM      4  O   UNL     1       3.482  -5.198  -4.680  0.00  0.00    -0.274 OA
ATOM      5  N   UNL     1       4.200  -7.282  -4.427  0.00  0.00    -0.285 N 
ATOM      6  H   UNL     1       4.205  -8.092  -3.894  0.00  0.00    +0.155 HD
BRANCH   5   7
ATOM      7  C   UNL     1       4.994  -7.195  -5.576  0.00  0.00    +0.034 A 
ATOM      8  C   UNL     1       5.194  -8.316  -6.370  0.00  0.00    +0.025 A 
ATOM      9  C   UNL     1       5.979  -8.228  -7.503  0.00  0.00    +0.030 A 
ATOM     10  C   UNL     1       6.565  -7.024  -7.847  0.00  0.00    +0.106 A 
ATOM     11  C   UNL     1       6.369  -5.905  -7.058  0.00  0.00    +0.030 A 
ATOM     12  C   UNL     1       5.580  -5.986  -5.927  0.00  0.00    +0.025 A 
BRANCH  10  13
ATOM     13  S   UNL     1       7.566  -6.914  -9.293  0.00  0.00    +0.061 S 
ATOM     14  O   UNL     1       8.444  -5.814  -9.098  0.00  0.00    -0.153 OA
ATOM     15  O   UNL     1       8.039  -8.227  -9.560  0.00  0.00    -0.153 OA
BRANCH  13  16
ATOM     16  N   UNL     1       6.567  -6.506 -10.550  0.00  0.00    -0.177 NA
ATOM     17  C   UNL     1       5.851  -7.452 -11.418  0.00  0.00    +0.109 C 
ATOM     18  C   UNL     1       5.070  -6.621 -12.457  0.00  0.00    +0.018 C 
ATOM     19  C   UNL     1       5.837  -5.272 -12.470  0.00  0.00    +0.018 C 
ATOM     20  C   UNL     1       6.244  -5.133 -10.979  0.00  0.00    +0.109 C 
ENDBRANCH  13  16
ENDBRANCH  10  13
ENDBRANCH   5   7
ENDBRANCH   1   3
BRANCH   1  21
ATOM     21  S   UNL     1       2.053  -4.718  -2.279  0.00  0.00    -0.073 S 
BRANCH  21  33
ATOM     22  C   UNL     1      -0.023   1.509  -0.009  0.00  0.00    +0.044 C 
ATOM     23  C   UNL     1       0.002   0.004  -0.011  0.00  0.00    -0.050 A 
ATOM     24  C   UNL     1      -0.043  -0.693  -1.206  0.00  0.00    +0.008 A 
ATOM     25  C   UNL     1       0.028  -2.074  -1.221  0.00  0.00    -0.026 A 
ATOM     26  C   UNL     1       0.218  -2.780  -0.045  0.00  0.00    +0.061 A 
ATOM     27  C   UNL     1       0.081  -2.080   1.177  0.00  0.00    +0.002 A 
ATOM     28  C   UNL     1       0.031  -0.685   1.182  0.00  0.00    +0.013 A 
ATOM     29  C   UNL     1      -0.073  -2.843   2.419  0.00  0.00    -0.038 A 
ATOM     30  C   UNL     1      -0.017  -4.193   2.372  0.00  0.00    +0.052 A 
ATOM     31  C   UNL     1       0.271  -4.849   1.157  0.00  0.00    +0.162 A 
ATOM     32  N   UNL     1       0.514  -4.130   0.001  0.00  0.00    -0.270 N 
ATOM     33  C   UNL     1       1.093  -5.037  -0.836  0.00  0.00    +0.197 A 
ATOM     34  N   UNL     1       0.853  -6.235  -0.340  0.00  0.00    -0.122 NA
ATOM     35  N   UNL     1       0.331  -6.126   0.826  0.00  0.00    -0.129 NA
ATOM     36  C   UNL     1      -0.296  -2.150   3.739  0.00  0.00    +0.044 C 
ATOM     37  C   UNL     1      -0.193  -2.773  -2.539  0.00  0.00    +0.046 C 
ENDBRANCH  21  33
ENDBRANCH   1  21
TORSDOF 6
