REMARK  Name = ZINC39693420
REMARK  12 active torsions:
REMARK  status: ('A' for Active; 'I' for Inactive)
REMARK    1  A    between atoms: C_1  and  C_2
REMARK    2  A    between atoms: C_2  and  C_3
REMARK    3  A    between atoms: C_2  and  C_4
REMARK    4  A    between atoms: C_2  and  O_5
REMARK    5  A    between atoms: O_5  and  C_6
REMARK    6  A    between atoms: N_8  and  C_9
REMARK    7  A    between atoms: C_9  and  C_10
REMARK    8  A    between atoms: C_10  and  N_11
REMARK    9  A    between atoms: C_12  and  C_14
REMARK   10  A    between atoms: C_25  and  C_27
REMARK   11  A    between atoms: C_30  and  O_33
REMARK   12  A    between atoms: O_33  and  C_34
REMARK                            x       y       z     vdW  Elec       q    Type
REMARK                         _______ _______ _______ _____ _____    ______ ____
ROOT
ATOM      1  C   UNL     1       7.595   0.092  -5.718  0.00  0.00    +0.100 C 
ATOM      2  C   UNL     1       7.973   1.590  -5.773  0.00  0.00    +0.121 C 
ATOM      3  N   UNL     1       9.096   1.658  -6.737  0.00  0.00    -0.296 N 
ATOM      4  C   UNL     1       8.724   0.699  -7.805  0.00  0.00    +0.115 C 
ATOM      5  C   UNL     1       8.089  -0.488  -7.054  0.00  0.00    -0.004 C 
ATOM      6  C   UNL     1       6.916  -1.050  -7.852  0.00  0.00    -0.010 C 
ATOM      7  C   UNL     1       7.439  -1.674  -9.149  0.00  0.00    -0.082 C 
ATOM      8  N   UNL     1       8.396  -2.741  -8.830  0.00  0.00    +0.379 N 
ATOM      9  C   UNL     1       9.565  -2.176  -8.144  0.00  0.00    -0.082 C 
ATOM     10  C   UNL     1       9.132  -1.574  -6.805  0.00  0.00    -0.010 C 
ATOM     11  C   UNL     1      10.206   2.419  -6.660  0.00  0.00    +0.247 C 
ATOM     12  O   UNL     1      10.432   3.064  -5.654  0.00  0.00    -0.270 OA
ATOM     13  H   UNL     1       7.952  -3.421  -8.231  0.00  0.00    -0.086 HD
ATOM     14  H   UNL     1       8.693  -3.191  -9.683  0.00  0.00    -0.086 HD
ENDROOT
BRANCH  11  15
ATOM     15  C   UNL     1      11.146   2.469  -7.796  0.00  0.00    +0.037 A 
ATOM     16  C   UNL     1      10.717   2.112  -9.077  0.00  0.00    +0.016 A 
ATOM     17  C   UNL     1      11.598   2.161 -10.134  0.00  0.00    +0.047 A 
ATOM     18  C   UNL     1      12.912   2.564  -9.929  0.00  0.00    +0.130 A 
ATOM     19  C   UNL     1      13.343   2.920  -8.656  0.00  0.00    +0.047 A 
ATOM     20  C   UNL     1      12.467   2.880  -7.594  0.00  0.00    +0.016 A 
BRANCH  18  21
ATOM     21  O   UNL     1      13.777   2.610 -10.973  0.00  0.00    -0.406 OA
BRANCH  21  22
ATOM     22  C   UNL     1      15.113   3.033 -10.692  0.00  0.00    +0.575 C 
ATOM     23  F   UNL     1      15.692   2.163  -9.762  0.00  0.00    -0.133 F 
ATOM     24  F   UNL     1      15.864   3.022 -11.872  0.00  0.00    -0.133 F 
ATOM     25  F   UNL     1      15.090   4.329 -10.165  0.00  0.00    -0.133 F 
ENDBRANCH  21  22
ENDBRANCH  18  21
ENDBRANCH  11  15
BRANCH   1  27
ATOM     26  N   UNL     1       5.588  -1.135  -4.953  0.00  0.00    -0.314 N 
ATOM     27  C   UNL     1       6.101  -0.068  -5.597  0.00  0.00    +0.218 C 
ATOM     28  O   UNL     1       5.361   0.763  -6.078  0.00  0.00    -0.275 OA
ATOM     29  H   UNL     1       6.181  -1.800  -4.568  0.00  0.00    +0.149 HD
BRANCH  26  30
ATOM     30  C   UNL     1       4.137  -1.291  -4.835  0.00  0.00    +0.123 C 
BRANCH  30  31
ATOM     31  C   UNL     1       3.822  -2.576  -4.066  0.00  0.00    +0.126 C 
BRANCH  31  34
ATOM     32  C   UNL     1       1.858  -3.799  -3.304  0.00  0.00    +0.401 C 
ATOM     33  O   UNL     1       2.599  -4.632  -2.822  0.00  0.00    -0.226 OA
ATOM     34  N   UNL     1       2.371  -2.732  -3.948  0.00  0.00    -0.280 N 
ATOM     35  H   UNL     1       1.778  -2.067  -4.333  0.00  0.00    +0.152 HD
BRANCH  32  36
ATOM     36  O   UNL     1       0.523  -3.942  -3.196  0.00  0.00    -0.445 OA
BRANCH  36  38
ATOM     37  C   UNL     1       0.579  -5.082  -1.065  0.00  0.00    +0.055 C 
ATOM     38  C   UNL     1       0.049  -5.097  -2.501  0.00  0.00    +0.107 C 
ATOM     39  C   UNL     1       0.542  -6.359  -3.213  0.00  0.00    +0.055 C 
ATOM     40  C   UNL     1      -1.480  -5.088  -2.480  0.00  0.00    +0.055 C 
ENDBRANCH  36  38
ENDBRANCH  32  36
ENDBRANCH  31  34
ENDBRANCH  30  31
ENDBRANCH  26  30
ENDBRANCH   1  27
TORSDOF 9
