REMARK  Name = ZINC36578020
REMARK  18 active torsions:
REMARK  status: ('A' for Active; 'I' for Inactive)
REMARK    1  A    between atoms: C_1  and  C_2
REMARK    2  A    between atoms: C_2  and  C_3
REMARK    3  A    between atoms: C_3  and  N_4
REMARK    4  A    between atoms: N_4  and  C_5
REMARK    5  A    between atoms: C_5  and  C_7
REMARK    6  A    between atoms: C_5  and  C_19
REMARK    7  A    between atoms: C_16  and  O_17
REMARK    8  A    between atoms: O_17  and  C_18
REMARK    9  A    between atoms: N_21  and  C_22
REMARK   10  A    between atoms: C_22  and  C_23
REMARK   11  A    between atoms: C_22  and  C_24
REMARK   12  A    between atoms: C_22  and  C_25
REMARK   13  A    between atoms: C_25  and  C_26
REMARK   14  A    between atoms: C_26  and  C_27
REMARK   15  A    between atoms: C_26  and  C_28
REMARK   16  A    between atoms: C_26  and  C_29
REMARK   17  A    between atoms: C_30  and  C_32
REMARK   18  A    between atoms: C_35  and  N_38
REMARK                            x       y       z     vdW  Elec       q    Type
REMARK                         _______ _______ _______ _____ _____    ______ ____
ROOT
ATOM      1  C   UNL     1      -0.883  -3.133  -1.673  0.00  0.00    +0.196 C 
ENDROOT
BRANCH   1   2
ATOM      2  C   UNL     1      -1.238  -3.113  -3.138  0.00  0.00    +0.031 A 
ATOM      3  C   UNL     1      -2.031  -4.134  -3.687  0.00  0.00    -0.009 A 
ATOM      4  C   UNL     1      -2.511  -5.190  -2.893  0.00  0.00    +0.009 A 
ATOM      5  C   UNL     1      -3.278  -6.162  -3.458  0.00  0.00    +0.001 A 
ATOM      6  C   UNL     1      -3.596  -6.128  -4.814  0.00  0.00    +0.001 A 
ATOM      7  C   UNL     1      -3.149  -5.121  -5.613  0.00  0.00    +0.008 A 
ATOM      8  C   UNL     1      -2.355  -4.099  -5.066  0.00  0.00    -0.017 A 
ATOM      9  C   UNL     1      -1.876  -3.043  -5.861  0.00  0.00    +0.012 A 
ATOM     10  C   UNL     1      -1.110  -2.070  -5.300  0.00  0.00    +0.046 A 
ATOM     11  C   UNL     1      -0.793  -2.099  -3.938  0.00  0.00    +0.126 A 
BRANCH  11  12
ATOM     12  O   UNL     1      -0.030  -1.109  -3.405  0.00  0.00    -0.495 OA
ATOM     13  C   UNL     1       0.313  -0.021  -4.265  0.00  0.00    +0.277 C 
ENDBRANCH  11  12
ENDBRANCH   1   2
BRANCH   1  14
ATOM     14  C   UNL     1      -1.692  -2.089  -0.947  0.00  0.00    +0.239 C 
ATOM     15  O   UNL     1      -1.139  -1.127  -0.456  0.00  0.00    -0.273 OA
ATOM     16  N   UNL     1      -3.029  -2.225  -0.842  0.00  0.00    -0.308 N 
ATOM     17  H   UNL     1      -3.470  -2.994  -1.234  0.00  0.00    +0.149 HD
BRANCH  16  18
ATOM     18  C   UNL     1      -3.815  -1.210  -0.136  0.00  0.00    +0.030 C 
ATOM     19  C   UNL     1      -3.381  -1.159   1.331  0.00  0.00    +0.031 C 
ATOM     20  C   UNL     1      -3.584   0.156  -0.783  0.00  0.00    +0.031 C 
BRANCH  18  21
ATOM     21  C   UNL     1      -5.300  -1.569  -0.216  0.00  0.00    +0.031 C 
BRANCH  21  22
ATOM     22  C   UNL     1      -5.748  -1.560  -1.679  0.00  0.00    -0.036 C 
ATOM     23  C   UNL     1      -4.664  -2.199  -2.549  0.00  0.00    +0.010 C 
ATOM     24  C   UNL     1      -7.048  -2.354  -1.819  0.00  0.00    +0.010 C 
ATOM     25  C   UNL     1      -5.981  -0.117  -2.132  0.00  0.00    +0.010 C 
ENDBRANCH  21  22
ENDBRANCH  18  21
ENDBRANCH  16  18
ENDBRANCH   1  14
BRANCH   1  26
ATOM     26  N   UNL     1       0.544  -2.844  -1.512  0.00  0.00    -0.282 N 
ATOM     27  C   UNL     1       1.020  -2.447  -0.316  0.00  0.00    +0.247 C 
ATOM     28  O   UNL     1       2.180  -2.099  -0.208  0.00  0.00    -0.270 OA
BRANCH  27  29
ATOM     29  C   UNL     1       0.133  -2.436   0.867  0.00  0.00    +0.037 A 
ATOM     30  C   UNL     1      -1.062  -3.157   0.853  0.00  0.00    +0.015 A 
ATOM     31  C   UNL     1      -1.886  -3.143   1.960  0.00  0.00    +0.033 A 
ATOM     32  C   UNL     1      -1.529  -2.416   3.081  0.00  0.00    +0.126 A 
ATOM     33  C   UNL     1      -0.346  -1.698   3.101  0.00  0.00    +0.033 A 
ATOM     34  C   UNL     1       0.489  -1.709   2.004  0.00  0.00    +0.015 A 
BRANCH  32  35
ATOM     35  N   UNL     1      -2.418  -2.405   4.265  0.00  0.00    +0.056 N 
ATOM     36  O   UNL     1      -3.453  -3.030   4.250  0.00  0.00    -0.126 OA
ATOM     37  O   UNL     1      -2.110  -1.770   5.247  0.00  0.00    -0.126 OA
ENDBRANCH  32  35
ENDBRANCH  27  29
BRANCH  26  38
ATOM     38  C   UNL     1       1.454  -2.987  -2.652  0.00  0.00    +0.109 C 
BRANCH  38  40
ATOM     39  C   UNL     1       3.405  -4.263  -3.551  0.00  0.00    +0.005 C 
ATOM     40  C   UNL     1       2.375  -4.187  -2.422  0.00  0.00    +0.016 C 
ENDBRANCH  38  40
ENDBRANCH  26  38
ENDBRANCH   1  26
TORSDOF 11
