REMARK  Name = ZINC04125166
REMARK  7 active torsions:
REMARK  status: ('A' for Active; 'I' for Inactive)
REMARK    1  A    between atoms: C_1  and  C_2
REMARK    2  A    between atoms: C_3  and  C_18
REMARK    3  A    between atoms: N_10  and  C_11
REMARK    4  A    between atoms: C_11  and  C_12
REMARK    5  A    between atoms: C_29  and  C_30
REMARK    6  A    between atoms: C_29  and  N_68
REMARK    7  A    between atoms: C_36  and  O_38
REMARK                            x       y       z     vdW  Elec       q    Type
REMARK                         _______ _______ _______ _____ _____    ______ ____
ROOT
ATOM      1  C   UNL     1      -2.349   5.842  -4.036  0.00  0.00    +0.226 C 
ATOM      2  N   UNL     1      -1.653   6.303  -2.820  0.00  0.00    -0.313 N 
ATOM      3  C   UNL     1      -1.369   5.343  -1.879  0.00  0.00    +0.080 A 
ATOM      4  C   UNL     1      -1.244   3.986  -2.205  0.00  0.00    +0.067 A 
ATOM      5  C   UNL     1      -0.932   3.098  -1.103  0.00  0.00    -0.027 A 
ATOM      6  C   UNL     1      -0.804   3.689   0.110  0.00  0.00    -0.021 A 
ATOM      7  S   UNL     1      -1.089   5.412  -0.192  0.00  0.00    -0.080 S 
ATOM      8  C   UNL     1      -0.491   3.007   1.404  0.00  0.00    -0.035 C 
ATOM      9  C   UNL     1      -0.013   1.086   0.008  0.00  0.00    -0.073 C 
ATOM     10  C   UNL     1      -0.748   1.590  -1.237  0.00  0.00    +0.018 C 
ATOM     11  C   UNL     1      -1.427   3.611  -3.631  0.00  0.00    +0.220 C 
ATOM     12  N   UNL     1      -1.899   4.517  -4.443  0.00  0.00    -0.223 NA
ATOM     13  H   UNL     1      -1.408   7.233  -2.692  0.00  0.00    +0.149 HD
ATOM     14  N   UNL     1      -0.721   1.554   1.217  0.00  0.00    +0.386 N 
ATOM     15  H   UNL     1      -1.728   1.387   1.100  0.00  0.00    -0.081 HD
ENDROOT
BRANCH   1  18
ATOM     16  C   UNL     1      -4.389   3.912  -5.358  0.00  0.00    +0.064 C 
ATOM     17  C   UNL     1      -4.721   4.966  -4.332  0.00  0.00    +0.024 A 
ATOM     18  C   UNL     1      -3.831   5.797  -3.766  0.00  0.00    +0.023 A 
ATOM     19  C   UNL     1      -4.575   6.655  -2.841  0.00  0.00    +0.007 A 
ATOM     20  C   UNL     1      -4.218   7.697  -1.983  0.00  0.00    +0.010 A 
ATOM     21  C   UNL     1      -5.176   8.314  -1.229  0.00  0.00    +0.001 A 
ATOM     22  C   UNL     1      -6.503   7.914  -1.310  0.00  0.00    +0.002 A 
ATOM     23  C   UNL     1      -6.878   6.888  -2.150  0.00  0.00    +0.026 A 
ATOM     24  C   UNL     1      -5.918   6.246  -2.927  0.00  0.00    +0.050 A 
ATOM     25  N   UNL     1      -5.972   5.216  -3.839  0.00  0.00    -0.339 N 
BRANCH  25  26
ATOM     26  C   UNL     1      -7.189   4.498  -4.227  0.00  0.00    +0.157 C 
BRANCH  26  27
ATOM     27  C   UNL     1      -7.825   5.189  -5.405  0.00  0.00    -0.028 A 
ATOM     28  C   UNL     1      -8.762   6.184  -5.199  0.00  0.00    +0.005 A 
ATOM     29  C   UNL     1      -9.343   6.821  -6.280  0.00  0.00    +0.000 A 
ATOM     30  C   UNL     1      -8.993   6.457  -7.567  0.00  0.00    +0.000 A 
ATOM     31  C   UNL     1      -8.060   5.458  -7.773  0.00  0.00    +0.000 A 
ATOM     32  C   UNL     1      -7.476   4.824  -6.692  0.00  0.00    +0.005 A 
ENDBRANCH  26  27
ENDBRANCH  25  26
ENDBRANCH   1  18
BRANCH  11  33
ATOM     33  O   UNL     1      -1.113   2.372  -4.074  0.00  0.00    -0.492 OA
ATOM     34  H   UNL     1      -1.272   2.240  -5.019  0.00  0.00    +0.294 HD
ENDBRANCH  11  33
BRANCH  14  35
ATOM     35  C   UNL     1      -0.244   0.811   2.403  0.00  0.00    -0.043 C 
BRANCH  35  36
ATOM     36  C   UNL     1      -0.772   1.475   3.648  0.00  0.00    -0.064 A 
ATOM     37  C   UNL     1      -0.028   2.456   4.277  0.00  0.00    +0.002 A 
ATOM     38  C   UNL     1      -0.515   3.068   5.417  0.00  0.00    +0.000 A 
ATOM     39  C   UNL     1      -1.741   2.693   5.934  0.00  0.00    +0.000 A 
ATOM     40  C   UNL     1      -2.482   1.709   5.308  0.00  0.00    +0.000 A 
ATOM     41  C   UNL     1      -1.998   1.099   4.165  0.00  0.00    +0.002 A 
ENDBRANCH  35  36
ENDBRANCH  14  35
TORSDOF 6
