REMARK  Name = ZINC27305343
REMARK  6 active torsions:
REMARK  status: ('A' for Active; 'I' for Inactive)
REMARK    1  A    between atoms: C_1  and  N_2
REMARK    2  A    between atoms: N_2  and  S_3
REMARK    3  A    between atoms: S_3  and  C_6
REMARK    4  A    between atoms: C_10  and  C_12
REMARK    5  A    between atoms: C_12  and  N_13
REMARK    6  A    between atoms: C_14  and  C_16
REMARK                            x       y       z     vdW  Elec       q    Type
REMARK                         _______ _______ _______ _____ _____    ______ ____
ROOT
ATOM      1  N   UNL     1      -3.383  -2.980  -5.033  0.00  0.00    -0.311 N 
ATOM      2  C   UNL     1      -3.352  -3.885  -6.031  0.00  0.00    +0.216 C 
ATOM      3  O   UNL     1      -2.527  -3.785  -6.915  0.00  0.00    -0.276 OA
ATOM      4  H   UNL     1      -4.131  -3.071  -4.231  0.00  0.00    +0.149 HD
ENDROOT
BRANCH   2   5
ATOM      5  C   UNL     1      -4.341  -5.022  -6.048  0.00  0.00    +0.078 C 
ATOM      6  C   UNL     1      -4.172  -5.867  -4.782  0.00  0.00    +0.032 C 
ATOM      7  C   UNL     1      -5.136  -7.054  -4.835  0.00  0.00    +0.110 C 
ATOM      8  N   UNL     1      -4.854  -7.864  -6.027  0.00  0.00    -0.285 N 
ATOM      9  C   UNL     1      -5.056  -7.087  -7.257  0.00  0.00    +0.110 C 
ATOM     10  C   UNL     1      -4.089  -5.901  -7.277  0.00  0.00    +0.032 C 
ATOM     11  C   UNL     1      -5.616  -9.010  -6.037  0.00  0.00    +0.291 A 
ATOM     12  N   UNL     1      -5.646  -9.899  -5.078  0.00  0.00    -0.195 NA
ATOM     13  C   UNL     1      -6.507 -10.893  -5.430  0.00  0.00    +0.111 A 
ATOM     14  C   UNL     1      -6.925 -12.071  -4.810  0.00  0.00    +0.031 A 
ATOM     15  C   UNL     1      -7.835 -12.890  -5.441  0.00  0.00    +0.002 A 
ATOM     16  C   UNL     1      -8.337 -12.551  -6.688  0.00  0.00    +0.004 A 
ATOM     17  C   UNL     1      -7.932 -11.389  -7.313  0.00  0.00    +0.048 A 
ATOM     18  C   UNL     1      -7.018 -10.553  -6.692  0.00  0.00    +0.157 A 
ATOM     19  O   UNL     1      -6.444  -9.376  -7.032  0.00  0.00    -0.424 OA
ENDBRANCH   2   5
BRANCH   1  20
ATOM     20  C   UNL     1      -2.422  -1.875  -5.016  0.00  0.00    +0.139 C 
BRANCH  20  25
ATOM     21  C   UNL     1      -2.247  -0.499  -1.505  0.00  0.00    +0.106 A 
ATOM     22  C   UNL     1      -3.126   0.566  -1.582  0.00  0.00    +0.028 A 
ATOM     23  C   UNL     1      -3.771   0.845  -2.772  0.00  0.00    +0.002 A 
ATOM     24  C   UNL     1      -3.544   0.054  -3.883  0.00  0.00    +0.005 A 
ATOM     25  C   UNL     1      -2.669  -1.013  -3.805  0.00  0.00    -0.028 A 
ATOM     26  C   UNL     1      -2.021  -1.290  -2.615  0.00  0.00    +0.033 A 
BRANCH  21  27
ATOM     27  S   UNL     1      -1.421  -0.852   0.011  0.00  0.00    +0.058 S 
ATOM     28  O   UNL     1      -1.073  -2.229  -0.027  0.00  0.00    -0.153 OA
ATOM     29  O   UNL     1      -2.218  -0.295   1.047  0.00  0.00    -0.153 OA
BRANCH  27  31
ATOM     30  C   UNL     1      -0.018   1.461   0.010  0.00  0.00    +0.127 C 
ATOM     31  N   UNL     1       0.002  -0.004   0.002  0.00  0.00    -0.193 NA
ATOM     32  H   UNL     1       0.946  -0.540  -0.175  0.00  0.00    +0.148 HD
ENDBRANCH  27  31
ENDBRANCH  21  27
ENDBRANCH  20  25
ENDBRANCH   1  20
TORSDOF 5
