REMARK  Name = ZINC44719454
REMARK  6 active torsions:
REMARK  status: ('A' for Active; 'I' for Inactive)
REMARK    1  A    between atoms: C_1  and  C_2
REMARK    2  A    between atoms: C_3  and  C_25
REMARK    3  A    between atoms: C_8  and  C_10
REMARK    4  A    between atoms: C_10  and  C_11
REMARK    5  A    between atoms: C_11  and  N_12
REMARK    6  A    between atoms: C_13  and  C_15
REMARK                            x       y       z     vdW  Elec       q    Type
REMARK                         _______ _______ _______ _____ _____    ______ ____
ROOT
ATOM      1  N   UNL     1       0.086  -3.486   7.058  0.00  0.00    -0.314 N 
ATOM      2  C   UNL     1       0.086  -3.006   8.317  0.00  0.00    +0.219 C 
ATOM      3  O   UNL     1       0.070  -1.808   8.509  0.00  0.00    -0.275 OA
ATOM      4  H   UNL     1       0.098  -4.444   6.905  0.00  0.00    +0.149 HD
ENDROOT
BRANCH   2   5
ATOM      5  C   UNL     1       0.105  -3.956   9.487  0.00  0.00    +0.048 C 
ATOM      6  C   UNL     1      -1.133  -4.854   9.434  0.00  0.00    +0.019 C 
ATOM      7  C   UNL     1      -1.114  -5.819  10.621  0.00  0.00    -0.009 C 
ATOM      8  C   UNL     1      -1.118  -5.021  11.927  0.00  0.00    +0.007 C 
ATOM      9  C   UNL     1       0.119  -4.122  11.980  0.00  0.00    -0.009 C 
ATOM     10  C   UNL     1       0.100  -3.158  10.792  0.00  0.00    +0.019 C 
ATOM     11  C   UNL     1       1.380  -4.987  11.914  0.00  0.00    +0.007 C 
ATOM     12  C   UNL     1       1.385  -5.785  10.609  0.00  0.00    -0.009 C 
ATOM     13  C   UNL     1       0.147  -6.683  10.556  0.00  0.00    +0.007 C 
ATOM     14  C   UNL     1       1.365  -4.820   9.421  0.00  0.00    +0.019 C 
ENDBRANCH   2   5
BRANCH   1  15
ATOM     15  C   UNL     1       0.068  -2.563   5.921  0.00  0.00    +0.113 C 
BRANCH  15  16
ATOM     16  C   UNL     1       0.072  -3.361   4.616  0.00  0.00    +0.115 C 
BRANCH  16  24
ATOM     17  C   UNL     1      -0.018   1.503   0.010  0.00  0.00    +0.066 C 
ATOM     18  C   UNL     1       0.002  -0.004   0.002  0.00  0.00    +0.050 A 
ATOM     19  C   UNL     1       0.006  -0.706  -1.158  0.00  0.00    +0.011 A 
ATOM     20  S   UNL     1       0.032  -2.379  -0.535  0.00  0.00    -0.057 S 
ATOM     21  C   UNL     1       0.036  -2.015   1.108  0.00  0.00    +0.165 A 
ATOM     22  N   UNL     1       0.023  -0.700   1.124  0.00  0.00    -0.230 NA
ATOM     23  N   UNL     1       0.053  -2.891   2.187  0.00  0.00    -0.265 N 
ATOM     24  C   UNL     1       0.053  -2.410   3.446  0.00  0.00    +0.220 C 
ATOM     25  O   UNL     1       0.038  -1.213   3.638  0.00  0.00    -0.275 OA
ATOM     26  C   UNL     1      -0.009  -0.210  -2.581  0.00  0.00    +0.053 C 
ATOM     27  H   UNL     1       0.065  -3.849   2.034  0.00  0.00    +0.157 HD
ENDBRANCH  16  24
ENDBRANCH  15  16
ENDBRANCH   1  15
TORSDOF 4
