REMARK  Name = ZINC57084036
REMARK  5 active torsions:
REMARK  status: ('A' for Active; 'I' for Inactive)
REMARK    1  A    between atoms: C_4  and  C_7
REMARK    2  A    between atoms: C_7  and  N_8
REMARK    3  A    between atoms: C_16  and  C_25
REMARK    4  A    between atoms: C_16  and  C_29
REMARK    5  A    between atoms: C_18  and  C_20
REMARK                            x       y       z     vdW  Elec       q    Type
REMARK                         _______ _______ _______ _____ _____    ______ ____
ROOT
ATOM      1  N   UNL     1       3.565  -1.018   1.276  0.00  0.00    -0.275 N 
ATOM      2  C   UNL     1       3.433  -2.210   1.961  0.00  0.00    +0.128 A 
ATOM      3  C   UNL     1       3.960  -2.307   3.241  0.00  0.00    +0.098 A 
ATOM      4  C   UNL     1       4.583  -1.195   3.812  0.00  0.00    +0.262 A 
ATOM      5  N   UNL     1       4.669  -0.049   3.107  0.00  0.00    -0.275 N 
ATOM      6  C   UNL     1       4.177   0.030   1.858  0.00  0.00    +0.331 A 
ATOM      7  O   UNL     1       4.284   1.073   1.242  0.00  0.00    -0.246 OA
ATOM      8  O   UNL     1       5.045  -1.260   4.939  0.00  0.00    -0.267 OA
ATOM      9  C   UNL     1       3.868  -3.614   3.987  0.00  0.00    +0.258 C 
ATOM     10  N   UNL     1       2.706  -4.351   3.464  0.00  0.00    -0.305 N 
ATOM     11  C   UNL     1       2.470  -4.318   2.107  0.00  0.00    +0.113 C 
ATOM     12  N   UNL     1       2.817  -3.256   1.399  0.00  0.00    -0.328 N 
ATOM     13  H   UNL     1       2.619  -3.235   0.450  0.00  0.00    +0.168 HD
ATOM     14  H   UNL     1       5.094   0.727   3.504  0.00  0.00    +0.173 HD
ATOM     15  H   UNL     1       2.122  -4.847   4.059  0.00  0.00    +0.149 HD
ENDROOT
BRANCH  11  16
ATOM     16  C   UNL     1       1.835  -5.460   1.448  0.00  0.00    +0.050 A 
ATOM     17  C   UNL     1       1.024  -5.481   0.322  0.00  0.00    +0.019 A 
ATOM     18  C   UNL     1       0.572  -6.719  -0.065  0.00  0.00    +0.008 A 
ATOM     19  C   UNL     1       0.936  -7.809   0.657  0.00  0.00    +0.046 A 
ATOM     20  S   UNL     1       1.909  -7.189   1.878  0.00  0.00    -0.094 S 
ENDBRANCH  11  16
BRANCH   9  21
ATOM     21  C   UNL     1       5.143  -4.429   3.763  0.00  0.00    +0.424 C 
ATOM     22  F   UNL     1       6.246  -3.707   4.229  0.00  0.00    -0.168 F 
ATOM     23  F   UNL     1       5.050  -5.640   4.458  0.00  0.00    -0.168 F 
ATOM     24  F   UNL     1       5.297  -4.687   2.397  0.00  0.00    -0.168 F 
ENDBRANCH   9  21
BRANCH   9  25
ATOM     25  C   UNL     1       3.680  -3.344   5.482  0.00  0.00    +0.424 C 
ATOM     26  F   UNL     1       2.734  -2.329   5.657  0.00  0.00    -0.168 F 
ATOM     27  F   UNL     1       3.235  -4.511   6.113  0.00  0.00    -0.168 F 
ATOM     28  F   UNL     1       4.899  -2.947   6.041  0.00  0.00    -0.168 F 
ENDBRANCH   9  25
BRANCH   1  29
ATOM     29  C   UNL     1       3.043  -0.896  -0.088  0.00  0.00    +0.163 C 
BRANCH  29  33
ATOM     30  C   UNL     1      -1.006   0.458   0.051  0.00  0.00    +0.000 A 
ATOM     31  C   UNL     1       0.027   1.374  -0.013  0.00  0.00    +0.000 A 
ATOM     32  C   UNL     1       1.337   0.936  -0.058  0.00  0.00    +0.005 A 
ATOM     33  C   UNL     1       1.615  -0.418  -0.038  0.00  0.00    -0.028 A 
ATOM     34  C   UNL     1       0.581  -1.334   0.028  0.00  0.00    +0.005 A 
ATOM     35  C   UNL     1      -0.729  -0.896   0.071  0.00  0.00    +0.000 A 
ENDBRANCH  29  33
ENDBRANCH   1  29
TORSDOF 5
