REMARK  Name = ZINC08719861
REMARK  9 active torsions:
REMARK  status: ('A' for Active; 'I' for Inactive)
REMARK    1  A    between atoms: C_1  and  C_2
REMARK    2  A    between atoms: C_2  and  C_3
REMARK    3  A    between atoms: C_2  and  C_4
REMARK    4  A    between atoms: C_4  and  C_6
REMARK    5  A    between atoms: C_4  and  N_21
REMARK    6  A    between atoms: N_8  and  C_9
REMARK    7  A    between atoms: C_9  and  C_10
REMARK    8  A    between atoms: C_10  and  C_11
REMARK    9  A    between atoms: C_22  and  C_24
REMARK                            x       y       z     vdW  Elec       q    Type
REMARK                         _______ _______ _______ _____ _____    ______ ____
ROOT
ATOM      1  C   UNL     1      -0.909   1.824   3.662  0.00  0.00    +0.161 C 
ENDROOT
BRANCH   1   2
ATOM      2  C   UNL     1      -0.324   1.210   2.417  0.00  0.00    +0.234 C 
ATOM      3  O   UNL     1       0.861   0.959   2.363  0.00  0.00    -0.274 OA
ATOM      4  N   UNL     1      -1.118   0.939   1.362  0.00  0.00    -0.313 N 
ATOM      5  H   UNL     1      -2.076   1.076   1.428  0.00  0.00    +0.149 HD
BRANCH   4   6
ATOM      6  C   UNL     1      -0.534   0.437   0.115  0.00  0.00    +0.112 C 
BRANCH   6   7
ATOM      7  C   UNL     1      -1.644   0.213  -0.914  0.00  0.00    +0.093 C 
BRANCH   7   8
ATOM      8  C   UNL     1      -1.044  -0.303  -2.196  0.00  0.00    +0.110 A 
ATOM      9  N   UNL     1      -1.418  -1.450  -2.825  0.00  0.00    -0.342 N 
ATOM     10  H   UNL     1      -2.127  -2.087  -2.524  0.00  0.00    +0.167 HD
ATOM     11  C   UNL     1      -0.637  -1.570  -3.958  0.00  0.00    +0.066 A 
ATOM     12  C   UNL     1      -0.553  -2.506  -4.979  0.00  0.00    +0.028 A 
ATOM     13  C   UNL     1       0.362  -2.328  -5.995  0.00  0.00    +0.002 A 
ATOM     14  C   UNL     1       1.197  -1.220  -6.003  0.00  0.00    +0.002 A 
ATOM     15  C   UNL     1       1.128  -0.288  -5.007  0.00  0.00    +0.030 A 
ATOM     16  C   UNL     1       0.209  -0.448  -3.966  0.00  0.00    +0.089 A 
ATOM     17  N   UNL     1      -0.096   0.285  -2.865  0.00  0.00    -0.232 NA
ENDBRANCH   7   8
ENDBRANCH   6   7
ENDBRANCH   4   6
ENDBRANCH   1   2
BRANCH   1  18
ATOM     18  N   UNL     1      -0.107   1.431   4.823  0.00  0.00    -0.303 N 
ATOM     19  C   UNL     1      -0.663   1.411   6.051  0.00  0.00    +0.220 C 
ATOM     20  O   UNL     1      -1.828   1.717   6.194  0.00  0.00    -0.275 OA
ATOM     21  H   UNL     1       0.825   1.187   4.709  0.00  0.00    +0.149 HD
BRANCH  19  22
ATOM     22  C   UNL     1       0.162   1.007   7.245  0.00  0.00    +0.048 C 
ATOM     23  C   UNL     1       1.347   1.963   7.393  0.00  0.00    +0.019 C 
ATOM     24  C   UNL     1       2.185   1.553   8.606  0.00  0.00    -0.009 C 
ATOM     25  C   UNL     1       1.320   1.614   9.867  0.00  0.00    +0.007 C 
ATOM     26  C   UNL     1       0.135   0.658   9.719  0.00  0.00    -0.009 C 
ATOM     27  C   UNL     1      -0.703   1.068   8.506  0.00  0.00    +0.019 C 
ATOM     28  C   UNL     1       0.652  -0.769   9.523  0.00  0.00    +0.007 C 
ATOM     29  C   UNL     1       1.516  -0.830   8.262  0.00  0.00    -0.009 C 
ATOM     30  C   UNL     1       2.701   0.126   8.410  0.00  0.00    +0.007 C 
ATOM     31  C   UNL     1       0.678  -0.420   7.050  0.00  0.00    +0.019 C 
ENDBRANCH  19  22
ENDBRANCH   1  18
BRANCH   1  33
ATOM     32  C   UNL     1      -1.781   3.761   2.346  0.00  0.00    +0.009 C 
ATOM     33  C   UNL     1      -0.904   3.348   3.530  0.00  0.00    +0.012 C 
ATOM     34  C   UNL     1      -1.453   3.974   4.814  0.00  0.00    +0.009 C 
ENDBRANCH   1  33
TORSDOF 7
