REMARK  Name = ZINC38703346
REMARK  6 active torsions:
REMARK  status: ('A' for Active; 'I' for Inactive)
REMARK    1  A    between atoms: C_1  and  C_2
REMARK    2  A    between atoms: C_2  and  O_3
REMARK    3  A    between atoms: O_3  and  C_4
REMARK    4  A    between atoms: C_7  and  C_10
REMARK    5  A    between atoms: C_16  and  C_27
REMARK    6  A    between atoms: C_18  and  C_26
REMARK                            x       y       z     vdW  Elec       q    Type
REMARK                         _______ _______ _______ _____ _____    ______ ____
ROOT
ATOM      1  C   UNL     1      -2.001  -6.092  -0.011  0.00  0.00    +0.141 C 
ATOM      2  C   UNL     1      -2.335  -6.565  -1.387  0.00  0.00    +0.072 A 
ATOM      3  C   UNL     1      -1.593  -6.469  -2.649  0.00  0.00    +0.199 A 
ATOM      4  O   UNL     1      -0.434  -6.099  -2.715  0.00  0.00    -0.287 OA
ATOM      5  C   UNL     1      -2.389  -6.866  -3.838  0.00  0.00    +0.067 A 
ATOM      6  C   UNL     1      -1.897  -6.643  -5.124  0.00  0.00    -0.036 A 
ATOM      7  C   UNL     1      -2.644  -7.010  -6.209  0.00  0.00    +0.007 A 
ATOM      8  C   UNL     1      -3.887  -7.601  -6.033  0.00  0.00    -0.047 A 
ATOM      9  C   UNL     1      -4.388  -7.830  -4.771  0.00  0.00    +0.050 A 
ATOM     10  C   UNL     1      -3.643  -7.468  -3.648  0.00  0.00    +0.140 A 
ATOM     11  O   UNL     1      -4.150  -7.711  -2.418  0.00  0.00    -0.450 OA
ATOM     12  C   UNL     1      -3.560  -7.167  -1.335  0.00  0.00    +0.199 A 
ATOM     13  C   UNL     1      -4.050  -7.097   0.053  0.00  0.00    +0.281 C 
ATOM     14  O   UNL     1      -5.114  -7.539   0.438  0.00  0.00    -0.267 OA
ATOM     15  N   UNL     1      -3.144  -6.472   0.835  0.00  0.00    -0.298 N 
ATOM     16  C   UNL     1      -4.700  -7.997  -7.239  0.00  0.00    +0.044 C 
ATOM     17  C   UNL     1      -0.548  -6.000  -5.317  0.00  0.00    +0.044 C 
ATOM     18  H   UNL     1      -3.231  -6.302   1.786  0.00  0.00    +0.150 HD
ENDROOT
BRANCH   1  22
ATOM     19  C   UNL     1      -1.498  -1.848   0.006  0.00  0.00    +0.121 A 
ATOM     20  C   UNL     1      -0.388  -2.679  -0.003  0.00  0.00    +0.046 A 
ATOM     21  C   UNL     1      -0.553  -4.051  -0.008  0.00  0.00    +0.009 A 
ATOM     22  C   UNL     1      -1.823  -4.596  -0.005  0.00  0.00    -0.022 A 
ATOM     23  C   UNL     1      -2.932  -3.769   0.004  0.00  0.00    +0.009 A 
ATOM     24  C   UNL     1      -2.772  -2.397   0.016  0.00  0.00    +0.046 A 
BRANCH  19  25
ATOM     25  O   UNL     1      -1.339  -0.499   0.012  0.00  0.00    -0.492 OA
BRANCH  25  27
ATOM     26  C   UNL     1      -0.019   1.526   0.010  0.00  0.00    +0.048 C 
ATOM     27  C   UNL     1       0.002  -0.004   0.002  0.00  0.00    +0.225 C 
ENDBRANCH  25  27
ENDBRANCH  19  25
ENDBRANCH   1  22
TORSDOF 3
