REMARK  Name = ZINC12347209
REMARK  6 active torsions:
REMARK  status: ('A' for Active; 'I' for Inactive)
REMARK    1  A    between atoms: C_1  and  S_2
REMARK    2  A    between atoms: S_2  and  C_3
REMARK    3  A    between atoms: C_6  and  C_9
REMARK    4  A    between atoms: N_14  and  C_17
REMARK    5  A    between atoms: C_17  and  C_18
REMARK    6  A    between atoms: C_18  and  C_19
REMARK                            x       y       z     vdW  Elec       q    Type
REMARK                         _______ _______ _______ _____ _____    ______ ____
ROOT
ATOM      1  C   UNL     1       2.490   1.044  -0.017  0.00  0.00    +0.142 C 
ATOM      2  C   UNL     1       3.006   1.042  -1.441  0.00  0.00    +0.058 C 
ATOM      3  C   UNL     1       4.218   1.585  -1.670  0.00  0.00    +0.039 C 
ATOM      4  C   UNL     1       4.474   1.447  -3.154  0.00  0.00    +0.159 C 
ATOM      5  N   UNL     1       3.277   0.777  -3.683  0.00  0.00    -0.292 N 
ATOM      6  C   UNL     1       2.449   0.561  -2.644  0.00  0.00    +0.247 C 
ATOM      7  O   UNL     1       1.361   0.022  -2.732  0.00  0.00    -0.270 OA
ATOM      8  N   UNL     1       4.957   2.120  -0.653  0.00  0.00    -0.271 N 
ATOM      9  C   UNL     1       4.551   2.148   0.623  0.00  0.00    +0.304 C 
ATOM     10  O   UNL     1       5.278   2.645   1.461  0.00  0.00    -0.252 OA
ATOM     11  N   UNL     1       3.361   1.645   1.007  0.00  0.00    -0.288 N 
ATOM     12  H   UNL     1       5.824   2.500  -0.867  0.00  0.00    +0.156 HD
ATOM     13  H   UNL     1       3.086   1.677   1.937  0.00  0.00    +0.151 HD
ENDROOT
BRANCH   1  17
ATOM     14  C   UNL     1      -1.236   3.139   0.030  0.00  0.00    +0.008 A 
ATOM     15  C   UNL     1      -1.218   1.749   0.017  0.00  0.00    +0.015 A 
ATOM     16  C   UNL     1      -0.013   1.076   0.008  0.00  0.00    +0.007 A 
ATOM     17  C   UNL     1       1.176   1.783   0.000  0.00  0.00    -0.022 A 
ATOM     18  C   UNL     1       1.162   3.166   0.008  0.00  0.00    +0.007 A 
ATOM     19  C   UNL     1      -0.040   3.846   0.023  0.00  0.00    +0.015 A 
BRANCH  14  21
ATOM     20  C   UNL     1      -4.017   2.683   0.054  0.00  0.00    +0.090 C 
ATOM     21  S   UNL     1      -2.772   4.002   0.050  0.00  0.00    -0.129 S 
ENDBRANCH  14  21
ENDBRANCH   1  17
BRANCH   5  22
ATOM     22  C   UNL     1       3.031   0.412  -5.080  0.00  0.00    +0.113 C 
BRANCH  22  23
ATOM     23  C   UNL     1       2.327   1.568  -5.793  0.00  0.00    +0.054 C 
BRANCH  23  24
ATOM     24  C   UNL     1       2.074   1.193  -7.230  0.00  0.00    -0.046 A 
ATOM     25  C   UNL     1       3.018   1.484  -8.197  0.00  0.00    +0.004 A 
ATOM     26  C   UNL     1       2.788   1.136  -9.515  0.00  0.00    +0.000 A 
ATOM     27  C   UNL     1       1.610   0.505  -9.867  0.00  0.00    +0.000 A 
ATOM     28  C   UNL     1       0.663   0.218  -8.902  0.00  0.00    +0.000 A 
ATOM     29  C   UNL     1       0.895   0.562  -7.583  0.00  0.00    +0.004 A 
ENDBRANCH  23  24
ENDBRANCH  22  23
ENDBRANCH   5  22
TORSDOF 5
