REMARK  Name = ZINC04132510
REMARK  8 active torsions:
REMARK  status: ('A' for Active; 'I' for Inactive)
REMARK    1  A    between atoms: C_1  and  O_2
REMARK    2  A    between atoms: O_2  and  C_3
REMARK    3  A    between atoms: C_7  and  C_10
REMARK    4  A    between atoms: C_8  and  O_9
REMARK    5  A    between atoms: N_11  and  N_12
REMARK    6  A    between atoms: C_13  and  C_15
REMARK    7  A    between atoms: C_15  and  N_16
REMARK    8  A    between atoms: C_18  and  C_23
REMARK                            x       y       z     vdW  Elec       q    Type
REMARK                         _______ _______ _______ _____ _____    ______ ____
ROOT
ATOM      1  N   UNL     1      -1.540  -6.245   0.007  0.00  0.00    -0.206 N 
ATOM      2  C   UNL     1      -0.406  -6.973  -0.002  0.00  0.00    +0.250 C 
ATOM      3  O   UNL     1       0.672  -6.417  -0.011  0.00  0.00    -0.272 OA
ATOM      4  H   UNL     1      -2.402  -6.690   0.014  0.00  0.00    +0.177 HD
ENDROOT
BRANCH   1   6
ATOM      5  C   UNL     1      -2.567  -4.144   0.017  0.00  0.00    +0.142 C 
ATOM      6  N   UNL     1      -1.474  -4.846   0.008  0.00  0.00    -0.188 NA
BRANCH   5  11
ATOM      7  C   UNL     1      -1.201  -0.638   0.010  0.00  0.00    +0.162 A 
ATOM      8  C   UNL     1      -2.374   0.101   0.019  0.00  0.00    +0.049 A 
ATOM      9  C   UNL     1      -3.602  -0.537   0.028  0.00  0.00    +0.004 A 
ATOM     10  C   UNL     1      -3.671  -1.914   0.028  0.00  0.00    +0.013 A 
ATOM     11  C   UNL     1      -2.497  -2.672   0.018  0.00  0.00    +0.040 A 
ATOM     12  C   UNL     1      -1.255  -2.026   0.003  0.00  0.00    +0.167 A 
BRANCH   7  14
ATOM     13  C   UNL     1      -0.017   1.425   0.010  0.00  0.00    +0.277 C 
ATOM     14  O   UNL     1       0.002  -0.004   0.002  0.00  0.00    -0.491 OA
ENDBRANCH   7  14
BRANCH  12  15
ATOM     15  O   UNL     1      -0.107  -2.754  -0.012  0.00  0.00    -0.503 OA
ATOM     16  H   UNL     1       0.233  -2.969   0.867  0.00  0.00    +0.292 HD
ENDBRANCH  12  15
ENDBRANCH   5  11
ENDBRANCH   1   6
BRANCH   2  17
ATOM     17  C   UNL     1      -0.477  -8.478  -0.003  0.00  0.00    +0.205 C 
BRANCH  17  18
ATOM     18  N   UNL     1       0.880  -9.031  -0.014  0.00  0.00    -0.292 N 
ATOM     19  C   UNL     1       1.639  -9.337  -1.232  0.00  0.00    +0.117 C 
ATOM     20  C   UNL     1       2.781 -10.274  -0.781  0.00  0.00    +0.045 C 
ATOM     21  C   UNL     1       2.941  -9.884   0.707  0.00  0.00    +0.105 C 
ATOM     22  C   UNL     1       1.591  -9.318   1.090  0.00  0.00    +0.217 C 
ATOM     23  O   UNL     1       1.206  -9.149   2.227  0.00  0.00    -0.276 OA
BRANCH  20  24
ATOM     24  C   UNL     1       4.046  -9.993  -1.552  0.00  0.00    -0.042 A 
ATOM     25  C   UNL     1       4.631  -8.743  -1.487  0.00  0.00    +0.004 A 
ATOM     26  C   UNL     1       5.791  -8.485  -2.194  0.00  0.00    +0.000 A 
ATOM     27  C   UNL     1       6.365  -9.478  -2.965  0.00  0.00    +0.000 A 
ATOM     28  C   UNL     1       5.780 -10.729  -3.029  0.00  0.00    +0.000 A 
ATOM     29  C   UNL     1       4.623 -10.988  -2.319  0.00  0.00    +0.004 A 
ENDBRANCH  20  24
ENDBRANCH  17  18
ENDBRANCH   2  17
TORSDOF 7
