REMARK  Name = ZINC13260314
REMARK  6 active torsions:
REMARK  status: ('A' for Active; 'I' for Inactive)
REMARK    1  A    between atoms: C_1  and  S_2
REMARK    2  A    between atoms: S_2  and  C_3
REMARK    3  A    between atoms: C_6  and  N_21
REMARK    4  A    between atoms: C_7  and  C_9
REMARK    5  A    between atoms: N_11  and  C_12
REMARK    6  A    between atoms: C_17  and  C_18
REMARK                            x       y       z     vdW  Elec       q    Type
REMARK                         _______ _______ _______ _____ _____    ______ ____
ROOT
ATOM      1  C   UNL     1      -2.377  -0.319   0.068  0.00  0.00    +0.251 C 
ATOM      2  O   UNL     1      -1.330  -0.917   0.225  0.00  0.00    -0.270 OA
ATOM      3  N   UNL     1      -2.377   1.026  -0.025  0.00  0.00    -0.281 N 
ATOM      4  H   UNL     1      -3.217   1.509  -0.069  0.00  0.00    +0.155 HD
ENDROOT
BRANCH   3   5
ATOM      5  C   UNL     1      -1.171   1.721  -0.059  0.00  0.00    +0.048 A 
ATOM      6  C   UNL     1      -0.066   1.172  -0.696  0.00  0.00    +0.025 A 
ATOM      7  C   UNL     1       1.126   1.865  -0.732  0.00  0.00    +0.022 A 
ATOM      8  C   UNL     1       1.234   3.110  -0.131  0.00  0.00    +0.042 A 
ATOM      9  C   UNL     1       0.148   3.669   0.510  0.00  0.00    +0.037 A 
ATOM     10  C   UNL     1      -1.066   2.979   0.555  0.00  0.00    +0.086 A 
ATOM     11 CL   UNL     1       2.741   3.969  -0.186  0.00  0.00    -0.084 Cl
BRANCH  10  12
ATOM     12  C   UNL     1      -2.230   3.570   1.238  0.00  0.00    +0.388 C 
ATOM     13  O   UNL     1      -3.307   3.009   1.199  0.00  0.00    -0.241 OA
ATOM     14  O   UNL     1      -2.100   4.734   1.906  0.00  0.00    -0.241 OA
ENDBRANCH  10  12
ENDBRANCH   3   5
BRANCH   1  19
ATOM     15  C   UNL     1      -5.676  -1.604  -1.201  0.00  0.00    +0.008 A 
ATOM     16  C   UNL     1      -6.036  -2.473  -0.176  0.00  0.00    +0.017 A 
ATOM     17  C   UNL     1      -5.209  -2.637   0.919  0.00  0.00    +0.034 A 
ATOM     18  C   UNL     1      -4.020  -1.940   1.003  0.00  0.00    +0.138 A 
ATOM     19  C   UNL     1      -3.649  -1.066  -0.020  0.00  0.00    +0.068 A 
ATOM     20  C   UNL     1      -4.486  -0.895  -1.123  0.00  0.00    +0.030 A 
BRANCH  18  21
ATOM     21  N   UNL     1      -3.139  -2.120   2.179  0.00  0.00    +0.057 N 
ATOM     22  O   UNL     1      -3.405  -2.963   3.016  0.00  0.00    -0.126 OA
ATOM     23  O   UNL     1      -2.147  -1.425   2.308  0.00  0.00    -0.126 OA
ENDBRANCH  18  21
BRANCH  15  25
ATOM     24  C   UNL     1      -8.135  -2.497  -2.247  0.00  0.00    +0.090 C 
ATOM     25  S   UNL     1      -6.735  -1.397  -2.594  0.00  0.00    -0.129 S 
ENDBRANCH  15  25
ENDBRANCH   1  19
TORSDOF 5
