REMARK  Name = ZINC57939166
REMARK  2 active torsions:
REMARK  status: ('A' for Active; 'I' for Inactive)
REMARK    1  A    between atoms: C_6  and  C_7
REMARK    2  A    between atoms: C_10  and  N_15
REMARK                            x       y       z     vdW  Elec       q    Type
REMARK                         _______ _______ _______ _____ _____    ______ ____
ROOT
ATOM      1  C   UNL     1      -1.293  -0.775   0.011  0.00  0.00    +0.209 C 
ATOM      2  C   UNL     1      -1.654  -1.228   1.451  0.00  0.00    +0.079 C 
ATOM      3  C   UNL     1      -2.503  -2.490   1.152  0.00  0.00    +0.165 C 
ATOM      4  C   UNL     1      -2.115  -2.864  -0.266  0.00  0.00    +0.325 C 
ATOM      5  O   UNL     1      -2.596  -3.766  -0.911  0.00  0.00    -0.249 OA
ATOM      6  O   UNL     1      -1.148  -2.026  -0.694  0.00  0.00    -0.455 OA
ENDROOT
BRANCH   1  12
ATOM      7  C   UNL     1      -0.017   1.378   0.010  0.00  0.00    +0.008 A 
ATOM      8  C   UNL     1       1.171   2.086   0.002  0.00  0.00    +0.020 A 
ATOM      9  C   UNL     1       2.378   1.410  -0.013  0.00  0.00    +0.041 A 
ATOM     10  C   UNL     1       2.396   0.027  -0.021  0.00  0.00    +0.020 A 
ATOM     11  C   UNL     1       1.208  -0.679  -0.013  0.00  0.00    +0.008 A 
ATOM     12  C   UNL     1       0.002  -0.004   0.002  0.00  0.00    -0.007 A 
ATOM     13 CL   UNL     1       3.870   2.298  -0.023  0.00  0.00    -0.084 Cl
ENDBRANCH   1  12
BRANCH   3  14
ATOM     14  N   UNL     1      -3.936  -2.178   1.232  0.00  0.00    -0.318 NA
ATOM     15  H   UNL     1      -4.495  -2.995   1.038  0.00  0.00    +0.119 HD
ATOM     16  H   UNL     1      -4.170  -1.784   2.131  0.00  0.00    +0.119 HD
ENDBRANCH   3  14
TORSDOF 2
