REMARK  Name = ZINC29433748
REMARK  9 active torsions:
REMARK  status: ('A' for Active; 'I' for Inactive)
REMARK    1  A    between atoms: C_4  and  S_11
REMARK    2  A    between atoms: C_6  and  C_7
REMARK    3  A    between atoms: S_11  and  N_14
REMARK    4  A    between atoms: N_14  and  C_15
REMARK    5  A    between atoms: C_17  and  N_25
REMARK    6  A    between atoms: C_20  and  N_21
REMARK    7  A    between atoms: N_21  and  C_22
REMARK    8  A    between atoms: C_22  and  C_23
REMARK    9  A    between atoms: C_23  and  O_24
REMARK                            x       y       z     vdW  Elec       q    Type
REMARK                         _______ _______ _______ _____ _____    ______ ____
ROOT
ATOM      1  N   UNL     1       4.673  -0.482  -1.480  0.00  0.00    -0.096 NA
ENDROOT
BRANCH   1   2
ATOM      2  C   UNL     1       5.925  -1.034  -1.777  0.00  0.00    +0.097 A 
ATOM      3  C   UNL     1       6.545  -1.879  -0.869  0.00  0.00    +0.061 A 
ATOM      4  C   UNL     1       7.782  -2.423  -1.164  0.00  0.00    +0.128 A 
ATOM      5  C   UNL     1       8.404  -2.126  -2.363  0.00  0.00    +0.034 A 
ATOM      6  C   UNL     1       7.793  -1.284  -3.273  0.00  0.00    +0.027 A 
ATOM      7  C   UNL     1       6.550  -0.739  -2.988  0.00  0.00    +0.052 A 
BRANCH   4   8
ATOM      8  N   UNL     1       8.442  -3.325  -0.194  0.00  0.00    +0.056 N 
ATOM      9  O   UNL     1       7.900  -3.585   0.855  0.00  0.00    -0.126 OA
ATOM     10  O   UNL     1       9.523  -3.801  -0.450  0.00  0.00    -0.126 OA
ENDBRANCH   4   8
BRANCH   7  11
ATOM     11  N   UNL     1       5.927   0.109  -3.911  0.00  0.00    -0.340 N 
ATOM     12  H   UNL     1       5.059   0.493  -3.709  0.00  0.00    +0.146 HD
BRANCH  11  13
ATOM     13  C   UNL     1       6.585   0.418  -5.183  0.00  0.00    +0.129 C 
BRANCH  13  14
ATOM     14  C   UNL     1       5.698   1.359  -6.001  0.00  0.00    +0.174 C 
BRANCH  14  15
ATOM     15  O   UNL     1       5.580   2.611  -5.323  0.00  0.00    -0.393 OA
ATOM     16  H   UNL     1       5.030   3.259  -5.786  0.00  0.00    +0.209 HD
ENDBRANCH  14  15
ENDBRANCH  13  14
ENDBRANCH  11  13
ENDBRANCH   7  11
ENDBRANCH   1   2
BRANCH   1  17
ATOM     17  S   UNL     1       3.933  -0.834  -0.041  0.00  0.00    +0.093 S 
ATOM     18  O   UNL     1       4.736  -0.257   0.980  0.00  0.00    -0.148 OA
ATOM     19  O   UNL     1       3.622  -2.220  -0.072  0.00  0.00    -0.148 OA
BRANCH  17  23
ATOM     20  C   UNL     1      -0.017   1.378   0.010  0.00  0.00    +0.014 A 
ATOM     21  C   UNL     1       1.171   2.086   0.002  0.00  0.00    +0.022 A 
ATOM     22  C   UNL     1       2.378   1.410  -0.013  0.00  0.00    +0.068 A 
ATOM     23  C   UNL     1       2.396   0.027  -0.021  0.00  0.00    +0.129 A 
ATOM     24  C   UNL     1       1.208  -0.680  -0.013  0.00  0.00    +0.042 A 
ATOM     25  C   UNL     1       0.002  -0.004   0.002  0.00  0.00    +0.057 A 
ATOM     26 CL   UNL     1       3.870   2.298  -0.023  0.00  0.00    -0.082 Cl
BRANCH  25  27
ATOM     27  C   UNL     1      -1.293  -0.775   0.011  0.00  0.00    +0.417 C 
ATOM     28  F   UNL     1      -2.368   0.120   0.026  0.00  0.00    -0.166 F 
ATOM     29  F   UNL     1      -1.367  -1.574  -1.135  0.00  0.00    -0.166 F 
ATOM     30  F   UNL     1      -1.345  -1.586   1.149  0.00  0.00    -0.166 F 
ENDBRANCH  25  27
ENDBRANCH  17  23
ENDBRANCH   1  17
TORSDOF 9
