REMARK  Name = ZINC19372483
REMARK  8 active torsions:
REMARK  status: ('A' for Active; 'I' for Inactive)
REMARK    1  A    between atoms: C_1  and  C_2
REMARK    2  A    between atoms: C_2  and  C_4
REMARK    3  A    between atoms: C_2  and  N_22
REMARK    4  A    between atoms: N_6  and  C_7
REMARK    5  A    between atoms: C_16  and  C_17
REMARK    6  A    between atoms: C_17  and  O_19
REMARK    7  A    between atoms: O_19  and  C_20
REMARK    8  A    between atoms: N_25  and  C_28
REMARK                            x       y       z     vdW  Elec       q    Type
REMARK                         _______ _______ _______ _____ _____    ______ ____
ROOT
ATOM      1  C   UNL     1       0.750   0.303   1.143  0.00  0.00    +0.234 C 
ATOM      2  O   UNL     1       0.212   0.430   2.222  0.00  0.00    -0.274 OA
ATOM      3  N   UNL     1       2.047  -0.056   1.075  0.00  0.00    -0.282 N 
ATOM      4  H   UNL     1       2.493  -0.104   0.215  0.00  0.00    +0.155 HD
ENDROOT
BRANCH   3   5
ATOM      5  C   UNL     1       2.747  -0.359   2.239  0.00  0.00    +0.073 A 
ATOM      6  C   UNL     1       2.183  -0.861   3.494  0.00  0.00    +0.023 A 
ATOM      7  C   UNL     1       0.885  -1.174   3.908  0.00  0.00    +0.027 A 
ATOM      8  C   UNL     1       0.670  -1.633   5.177  0.00  0.00    +0.019 A 
ATOM      9  C   UNL     1       1.731  -1.791   6.059  0.00  0.00    +0.017 A 
ATOM     10  C   UNL     1       3.017  -1.488   5.673  0.00  0.00    +0.027 A 
ATOM     11  C   UNL     1       3.262  -1.019   4.384  0.00  0.00    +0.049 A 
ATOM     12  N   UNL     1       4.411  -0.643   3.728  0.00  0.00    -0.348 N 
ATOM     13  H   UNL     1       5.301  -0.656   4.113  0.00  0.00    +0.166 HD
ATOM     14  C   UNL     1       4.109  -0.250   2.433  0.00  0.00    +0.147 A 
ATOM     15 BR   UNL     1      -1.087  -2.056   5.736  0.00  0.00    -0.050 Br
BRANCH  14  16
ATOM     16  C   UNL     1       5.047   0.196   1.467  0.00  0.00    +0.357 C 
ATOM     17  O   UNL     1       4.661   0.592   0.383  0.00  0.00    -0.243 OA
BRANCH  16  18
ATOM     18  O   UNL     1       6.366   0.179   1.750  0.00  0.00    -0.463 OA
ATOM     19  C   UNL     1       7.254   0.642   0.730  0.00  0.00    +0.280 C 
ENDBRANCH  16  18
ENDBRANCH  14  16
ENDBRANCH   3   5
BRANCH   1  21
ATOM     20  C   UNL     1       0.157   1.998  -0.566  0.00  0.00    +0.034 C 
ATOM     21  C   UNL     1      -0.032   0.546  -0.122  0.00  0.00    +0.140 C 
BRANCH  21  22
ATOM     22  N   UNL     1      -1.457   0.291   0.126  0.00  0.00    -0.295 NA
ATOM     23  C   UNL     1      -1.684  -1.113   0.495  0.00  0.00    +0.066 C 
ATOM     24  C   UNL     1      -3.168  -1.323   0.803  0.00  0.00    -0.063 C 
ATOM     25  N   UNL     1      -3.967  -0.975  -0.379  0.00  0.00    +0.383 N 
ATOM     26  C   UNL     1      -3.749   0.437  -0.721  0.00  0.00    -0.063 C 
ATOM     27  C   UNL     1      -2.269   0.662  -1.041  0.00  0.00    +0.066 C 
ATOM     28  H   UNL     1      -3.689  -1.556  -1.156  0.00  0.00    -0.081 HD
BRANCH  25  29
ATOM     29  C   UNL     1      -5.391  -1.194  -0.090  0.00  0.00    -0.068 C 
ATOM     30  C   UNL     1      -5.619  -2.665   0.265  0.00  0.00    -0.015 C 
ATOM     31  C   UNL     1      -7.101  -2.893   0.566  0.00  0.00    -0.002 C 
ATOM     32  C   UNL     1      -7.934  -2.530  -0.665  0.00  0.00    -0.000 C 
ATOM     33  C   UNL     1      -7.706  -1.059  -1.019  0.00  0.00    -0.002 C 
ATOM     34  C   UNL     1      -6.223  -0.831  -1.321  0.00  0.00    -0.015 C 
ENDBRANCH  25  29
ENDBRANCH  21  22
ENDBRANCH   1  21
TORSDOF 6
