REMARK  Name = ZINC39726939
REMARK  9 active torsions:
REMARK  status: ('A' for Active; 'I' for Inactive)
REMARK    1  A    between atoms: C_1  and  C_2
REMARK    2  A    between atoms: C_2  and  C_3
REMARK    3  A    between atoms: C_8  and  N_9
REMARK    4  A    between atoms: C_10  and  C_12
REMARK    5  A    between atoms: C_12  and  N_13
REMARK    6  A    between atoms: N_16  and  C_19
REMARK    7  A    between atoms: C_19  and  C_20
REMARK    8  A    between atoms: C_20  and  C_22
REMARK    9  A    between atoms: C_30  and  C_32
REMARK                            x       y       z     vdW  Elec       q    Type
REMARK                         _______ _______ _______ _____ _____    ______ ____
ROOT
ATOM      1  N   UNL     1       6.366  -0.516   0.937  0.00  0.00    +0.387 N 
ATOM      2  C   UNL     1       6.906   0.425  -0.053  0.00  0.00    -0.063 C 
ATOM      3  C   UNL     1       8.380   0.104  -0.312  0.00  0.00    +0.066 C 
ATOM      4  N   UNL     1       9.129   0.209   0.948  0.00  0.00    -0.299 NA
ATOM      5  C   UNL     1       8.584  -0.710   1.958  0.00  0.00    +0.066 C 
ATOM      6  C   UNL     1       7.108  -0.382   2.197  0.00  0.00    -0.063 C 
ATOM      7  H   UNL     1       6.459  -1.459   0.590  0.00  0.00    -0.081 HD
ENDROOT
BRANCH   1   8
ATOM      8  C   UNL     1       4.947  -0.219   1.171  0.00  0.00    +0.019 C 
BRANCH   8  10
ATOM      9  N   UNL     1       2.833  -0.268  -0.113  0.00  0.00    -0.287 N 
ATOM     10  C   UNL     1       4.165  -0.474  -0.091  0.00  0.00    +0.201 C 
ATOM     11  O   UNL     1       4.734  -0.865  -1.088  0.00  0.00    -0.278 OA
ATOM     12  H   UNL     1       2.388   0.106   0.663  0.00  0.00    +0.155 HD
BRANCH   9  18
ATOM     13  C   UNL     1       0.800  -1.084  -1.129  0.00  0.00    -0.026 A 
ATOM     14  C   UNL     1       0.070  -1.399  -2.258  0.00  0.00    +0.005 A 
ATOM     15  C   UNL     1       0.627  -1.234  -3.513  0.00  0.00    +0.000 A 
ATOM     16  C   UNL     1       1.917  -0.751  -3.641  0.00  0.00    +0.002 A 
ATOM     17  C   UNL     1       2.652  -0.433  -2.516  0.00  0.00    +0.023 A 
ATOM     18  C   UNL     1       2.093  -0.594  -1.255  0.00  0.00    +0.036 A 
BRANCH  13  20
ATOM     19  C   UNL     1      -0.422   0.058   0.702  0.00  0.00    +0.009 C 
ATOM     20  C   UNL     1       0.191  -1.265   0.238  0.00  0.00    +0.033 C 
ENDBRANCH  13  20
ENDBRANCH   9  18
ENDBRANCH   8  10
ENDBRANCH   1   8
BRANCH   4  21
ATOM     21  C   UNL     1      10.561  -0.037   0.731  0.00  0.00    +0.163 C 
BRANCH  21  22
ATOM     22  C   UNL     1      11.326   0.316   1.980  0.00  0.00    +0.176 C 
ATOM     23  O   UNL     1      10.736   0.732   2.956  0.00  0.00    -0.291 OA
BRANCH  22  24
ATOM     24  C   UNL     1      12.729   0.163   2.015  0.00  0.00    +0.032 C 
ATOM     25  C   UNL     1      13.547  -0.289   0.996  0.00  0.00    +0.007 A 
ATOM     26  C   UNL     1      13.287  -0.721  -0.327  0.00  0.00    +0.010 A 
ATOM     27  C   UNL     1      14.303  -1.119  -1.125  0.00  0.00    +0.001 A 
ATOM     28  C   UNL     1      15.640  -1.127  -0.697  0.00  0.00    +0.002 A 
ATOM     29  C   UNL     1      15.994  -0.735   0.546  0.00  0.00    +0.026 A 
ATOM     30  C   UNL     1      14.949  -0.285   1.480  0.00  0.00    +0.044 A 
ATOM     31  N   UNL     1      15.005   0.138   2.710  0.00  0.00    -0.373 N 
ATOM     32  C   UNL     1      13.653   0.465   3.174  0.00  0.00    +0.144 C 
ATOM     33  H   UNL     1      15.816   0.227   3.236  0.00  0.00    +0.161 HD
BRANCH  32  34
ATOM     34  C   UNL     1      13.566   1.925   3.540  0.00  0.00    -0.021 A 
ATOM     35  C   UNL     1      14.252   2.866   2.795  0.00  0.00    +0.006 A 
ATOM     36  C   UNL     1      14.173   4.205   3.131  0.00  0.00    +0.000 A 
ATOM     37  C   UNL     1      13.406   4.602   4.210  0.00  0.00    +0.000 A 
ATOM     38  C   UNL     1      12.720   3.661   4.954  0.00  0.00    +0.000 A 
ATOM     39  C   UNL     1      12.796   2.323   4.616  0.00  0.00    +0.006 A 
ENDBRANCH  32  34
ENDBRANCH  22  24
ENDBRANCH  21  22
ENDBRANCH   4  21
TORSDOF 8
