REMARK  Name = ZINC64131730
REMARK  5 active torsions:
REMARK  status: ('A' for Active; 'I' for Inactive)
REMARK    1  A    between atoms: C_6  and  C_10
REMARK    2  A    between atoms: C_17  and  C_19
REMARK    3  A    between atoms: C_22  and  N_25
REMARK    4  A    between atoms: C_27  and  N_30
REMARK    5  A    between atoms: C_31  and  C_33
REMARK                            x       y       z     vdW  Elec       q    Type
REMARK                         _______ _______ _______ _____ _____    ______ ____
ROOT
ATOM      1  C   UNL     1       3.396  -6.286   4.398  0.00  0.00    +0.037 A 
ATOM      2  C   UNL     1       4.768  -6.240   4.656  0.00  0.00    +0.015 A 
ATOM      3  C   UNL     1       5.277  -6.859   5.776  0.00  0.00    +0.028 A 
ATOM      4  C   UNL     1       4.428  -7.529   6.649  0.00  0.00    +0.065 A 
ATOM      5  C   UNL     1       3.062  -7.578   6.395  0.00  0.00    +0.028 A 
ATOM      6  C   UNL     1       2.544  -6.956   5.280  0.00  0.00    +0.015 A 
ENDROOT
BRANCH   1  13
ATOM      7  C   UNL     1       1.344  -6.407   0.101  0.00  0.00    +0.049 C 
ATOM      8  C   UNL     1       0.765  -7.792   0.398  0.00  0.00    +0.010 C 
ATOM      9  C   UNL     1       1.570  -8.454   1.518  0.00  0.00    +0.019 C 
ATOM     10  C   UNL     1       1.466  -7.604   2.788  0.00  0.00    +0.108 C 
ATOM     11  N   UNL     1       1.885  -6.231   2.474  0.00  0.00    -0.297 N 
ATOM     12  C   UNL     1       1.238  -5.533   1.355  0.00  0.00    +0.115 C 
ATOM     13  C   UNL     1       2.845  -5.624   3.199  0.00  0.00    +0.247 C 
ATOM     14  O   UNL     1       3.259  -4.530   2.865  0.00  0.00    -0.270 OA
BRANCH   7  20
ATOM     15  C   UNL     1       2.469  -3.905  -4.790  0.00  0.00    +0.002 A 
ATOM     16  C   UNL     1       2.171  -5.179  -5.307  0.00  0.00    +0.002 A 
ATOM     17  C   UNL     1       1.577  -6.141  -4.573  0.00  0.00    +0.027 A 
ATOM     18  C   UNL     1       1.218  -5.868  -3.174  0.00  0.00    +0.060 A 
ATOM     19  N   UNL     1       0.651  -6.588  -2.250  0.00  0.00    -0.363 N 
ATOM     20  C   UNL     1       0.559  -5.759  -1.041  0.00  0.00    +0.179 C 
ATOM     21  N   UNL     1       1.149  -4.459  -1.385  0.00  0.00    -0.363 N 
ATOM     22  C   UNL     1       1.534  -4.521  -2.627  0.00  0.00    +0.060 A 
ATOM     23  C   UNL     1       2.182  -3.551  -3.521  0.00  0.00    +0.027 A 
ATOM     24  H   UNL     1       0.345  -7.503  -2.342  0.00  0.00    +0.162 HD
ATOM     25  H   UNL     1       1.236  -3.694  -0.794  0.00  0.00    +0.162 HD
ENDBRANCH   7  20
ENDBRANCH   1  13
BRANCH   4  26
ATOM     26  N   UNL     1       4.949  -8.157   7.784  0.00  0.00    -0.238 N 
ATOM     27  C   UNL     1       4.237  -8.850   8.715  0.00  0.00    +0.137 A 
ATOM     28  C   UNL     1       5.113  -9.298   9.650  0.00  0.00    +0.072 A 
ATOM     29  C   UNL     1       6.396  -8.866   9.279  0.00  0.00    +0.158 A 
ATOM     30  N   UNL     1       6.297  -8.191   8.163  0.00  0.00    -0.173 NA
BRANCH  28  31
ATOM     31  N   UNL     1       4.792 -10.059  10.789  0.00  0.00    -0.283 N 
ATOM     32  C   UNL     1       5.764 -10.440  11.641  0.00  0.00    +0.221 C 
ATOM     33  O   UNL     1       6.916 -10.127  11.425  0.00  0.00    -0.275 OA
ATOM     34  H   UNL     1       3.871 -10.309  10.962  0.00  0.00    +0.155 HD
BRANCH  32  35
ATOM     35  C   UNL     1       5.421 -11.255  12.861  0.00  0.00    +0.080 C 
ATOM     36  C   UNL     1       4.453 -10.466  13.749  0.00  0.00    +0.041 C 
ATOM     37  C   UNL     1       4.172 -11.267  15.022  0.00  0.00    +0.160 C 
ATOM     38  O   UNL     1       5.403 -11.537  15.696  0.00  0.00    -0.380 OA
ATOM     39  C   UNL     1       6.329 -12.312  14.932  0.00  0.00    +0.160 C 
ATOM     40  C   UNL     1       6.697 -11.553  13.655  0.00  0.00    +0.041 C 
ENDBRANCH  32  35
ENDBRANCH  28  31
ENDBRANCH   4  26
TORSDOF 5
