REMARK  Name = ZINC09381759
REMARK  8 active torsions:
REMARK  status: ('A' for Active; 'I' for Inactive)
REMARK    1  A    between atoms: C_1  and  C_2
REMARK    2  A    between atoms: C_2  and  N_3
REMARK    3  A    between atoms: N_3  and  C_4
REMARK    4  A    between atoms: N_3  and  S_6
REMARK    5  A    between atoms: C_4  and  C_5
REMARK    6  A    between atoms: S_6  and  C_9
REMARK    7  A    between atoms: C_12  and  C_15
REMARK    8  A    between atoms: N_17  and  N_18
REMARK                            x       y       z     vdW  Elec       q    Type
REMARK                         _______ _______ _______ _____ _____    ______ ____
ROOT
ATOM      1  C   UNL     1      -2.056  -5.756  -0.009  0.00  0.00    +0.260 C 
ATOM      2  O   UNL     1      -1.161  -6.579  -0.022  0.00  0.00    -0.269 OA
ATOM      3  N   UNL     1      -1.762  -4.441  -0.005  0.00  0.00    -0.231 N 
ATOM      4  H   UNL     1      -2.476  -3.784   0.005  0.00  0.00    +0.173 HD
ENDROOT
BRANCH   3   5
ATOM      5  N   UNL     1      -0.425  -4.022  -0.015  0.00  0.00    -0.242 N 
ATOM      6  C   UNL     1      -0.123  -2.675  -0.011  0.00  0.00    +0.176 A 
ATOM      7  N   UNL     1       1.054  -2.095  -0.019  0.00  0.00    -0.221 NA
ATOM      8  C   UNL     1       1.201  -0.751  -0.013  0.00  0.00    +0.115 A 
ATOM      9  C   UNL     1       2.403  -0.003  -0.021  0.00  0.00    +0.150 A 
ATOM     10  C   UNL     1       2.374   1.369  -0.012  0.00  0.00    +0.040 A 
ATOM     11  C   UNL     1       1.176   2.069   0.002  0.00  0.00    +0.004 A 
ATOM     12  C   UNL     1      -0.017   1.369   0.010  0.00  0.00    +0.017 A 
ATOM     13  C   UNL     1       0.002  -0.004   0.002  0.00  0.00    +0.044 A 
ATOM     14  S   UNL     1      -1.237  -1.277   0.007  0.00  0.00    -0.051 S 
ATOM     15  F   UNL     1       3.591  -0.646  -0.035  0.00  0.00    -0.203 F 
ATOM     16  H   UNL     1       0.289  -4.679  -0.026  0.00  0.00    +0.172 HD
ENDBRANCH   3   5
BRANCH   1  20
ATOM     17  C   UNL     1      -6.109  -7.026   0.022  0.00  0.00    +0.106 A 
ATOM     18  C   UNL     1      -5.093  -7.965   0.008  0.00  0.00    +0.029 A 
ATOM     19  C   UNL     1      -3.775  -7.560  -0.002  0.00  0.00    +0.015 A 
ATOM     20  C   UNL     1      -3.467  -6.198   0.002  0.00  0.00    +0.038 A 
ATOM     21  C   UNL     1      -4.496  -5.256   0.023  0.00  0.00    +0.015 A 
ATOM     22  C   UNL     1      -5.811  -5.675   0.026  0.00  0.00    +0.029 A 
BRANCH  17  23
ATOM     23  S   UNL     1      -7.791  -7.553   0.035  0.00  0.00    +0.061 S 
ATOM     24  O   UNL     1      -8.556  -6.483  -0.503  0.00  0.00    -0.153 OA
ATOM     25  O   UNL     1      -7.811  -8.860  -0.523  0.00  0.00    -0.153 OA
BRANCH  23  26
ATOM     26  N   UNL     1      -8.243  -7.707   1.620  0.00  0.00    -0.177 NA
BRANCH  26  28
ATOM     27  C   UNL     1     -10.350  -6.646   2.268  0.00  0.00    +0.022 C 
ATOM     28  C   UNL     1      -8.823  -6.565   2.331  0.00  0.00    +0.106 C 
ENDBRANCH  26  28
BRANCH  26  29
ATOM     29  C   UNL     1      -8.065  -8.987   2.312  0.00  0.00    +0.106 C 
ATOM     30  C   UNL     1      -6.737  -8.974   3.072  0.00  0.00    +0.022 C 
ENDBRANCH  26  29
ENDBRANCH  23  26
ENDBRANCH  17  23
ENDBRANCH   1  20
TORSDOF 6
