REMARK  Name = ZINC30531701
REMARK  7 active torsions:
REMARK  status: ('A' for Active; 'I' for Inactive)
REMARK    1  A    between atoms: C_1  and  C_2
REMARK    2  A    between atoms: C_5  and  C_28
REMARK    3  A    between atoms: C_6  and  S_9
REMARK    4  A    between atoms: S_9  and  N_12
REMARK    5  A    between atoms: N_12  and  C_13
REMARK    6  A    between atoms: C_16  and  N_19
REMARK    7  A    between atoms: C_20  and  C_22
REMARK                            x       y       z     vdW  Elec       q    Type
REMARK                         _______ _______ _______ _____ _____    ______ ____
ROOT
ATOM      1  N   UNL     1      -1.314  -2.978  -4.133  0.00  0.00    -0.216 N 
ATOM      2  H   UNL     1      -1.594  -3.611  -3.279  0.00  0.00    +0.174 HD
ENDROOT
BRANCH   1   3
ATOM      3  C   UNL     1      -2.217  -2.032  -4.630  0.00  0.00    +0.048 A 
ATOM      4  C   UNL     1      -2.443  -0.854  -3.929  0.00  0.00    +0.026 A 
ATOM      5  C   UNL     1      -3.330   0.083  -4.422  0.00  0.00    +0.025 A 
ATOM      6  C   UNL     1      -4.005  -0.159  -5.611  0.00  0.00    +0.034 A 
ATOM      7  C   UNL     1      -3.783  -1.339  -6.309  0.00  0.00    +0.025 A 
ATOM      8  C   UNL     1      -2.892  -2.273  -5.819  0.00  0.00    +0.026 A 
BRANCH   6   9
ATOM      9  N   UNL     1      -4.910   0.789  -6.108  0.00  0.00    -0.283 N 
ATOM     10  C   UNL     1      -4.977   1.028  -7.433  0.00  0.00    +0.246 C 
ATOM     11  O   UNL     1      -4.316   0.363  -8.203  0.00  0.00    -0.273 OA
ATOM     12  H   UNL     1      -5.566   1.338  -5.417  0.00  0.00    +0.155 HD
BRANCH  10  13
ATOM     13  C   UNL     1      -5.872   2.120  -7.957  0.00  0.00    +0.204 C 
ATOM     14  C   UNL     1      -5.371   3.491  -7.463  0.00  0.00    +0.043 C 
ATOM     15  C   UNL     1      -5.096   4.286  -8.763  0.00  0.00    +0.031 C 
ATOM     16  C   UNL     1      -5.957   3.521  -9.800  0.00  0.00    +0.161 C 
ATOM     17  O   UNL     1      -5.827   2.142  -9.394  0.00  0.00    -0.367 OA
ENDBRANCH  10  13
ENDBRANCH   6   9
ENDBRANCH   1   3
BRANCH   1  18
ATOM     18  S   UNL     1       0.178  -3.145  -4.833  0.00  0.00    +0.074 S 
ATOM     19  O   UNL     1      -0.037  -3.206  -6.237  0.00  0.00    -0.150 OA
ATOM     20  O   UNL     1       0.848  -4.176  -4.120  0.00  0.00    -0.150 OA
BRANCH  18  26
ATOM     21  C   UNL     1       3.338  -0.219  -1.869  0.00  0.00    +0.045 C 
ATOM     22  C   UNL     1       2.519  -0.359  -3.126  0.00  0.00    -0.029 A 
ATOM     23  C   UNL     1       2.467   0.680  -4.037  0.00  0.00    +0.025 A 
ATOM     24  C   UNL     1       1.715   0.551  -5.191  0.00  0.00    +0.046 A 
ATOM     25  C   UNL     1       1.016  -0.618  -5.434  0.00  0.00    -0.004 A 
ATOM     26  C   UNL     1       1.069  -1.657  -4.524  0.00  0.00    +0.131 A 
ATOM     27  C   UNL     1       1.825  -1.530  -3.372  0.00  0.00    +0.071 A 
ATOM     28 CL   UNL     1       1.897  -2.837  -2.232  0.00  0.00    -0.081 Cl
ATOM     29  C   UNL     1       0.197  -0.759  -6.691  0.00  0.00    +0.047 C 
ATOM     30 CL   UNL     1       1.648   1.856  -6.334  0.00  0.00    -0.083 Cl
ENDBRANCH  18  26
ENDBRANCH   1  18
TORSDOF 5
