REMARK  Name = ZINC15663393
REMARK  7 active torsions:
REMARK  status: ('A' for Active; 'I' for Inactive)
REMARK    1  A    between atoms: C_9  and  C_12
REMARK    2  A    between atoms: N_14  and  N_15
REMARK    3  A    between atoms: C_16  and  C_18
REMARK    4  A    between atoms: C_18  and  C_19
REMARK    5  A    between atoms: C_19  and  S_20
REMARK    6  A    between atoms: S_20  and  C_21
REMARK    7  A    between atoms: C_21  and  C_22
REMARK                            x       y       z     vdW  Elec       q    Type
REMARK                         _______ _______ _______ _____ _____    ______ ____
ROOT
ATOM      1  N   UNL     1      -0.017   1.397   0.010  0.00  0.00    -0.234 N 
ATOM      2  C   UNL     1      -1.193   2.055   0.019  0.00  0.00    +0.230 C 
ATOM      3  O   UNL     1      -2.235   1.434   0.020  0.00  0.00    -0.274 OA
ATOM      4  H   UNL     1       0.816   1.893   0.004  0.00  0.00    +0.173 HD
ENDROOT
BRANCH   1   7
ATOM      5  C   UNL     1       1.178  -0.662  -0.013  0.00  0.00    +0.273 C 
ATOM      6  O   UNL     1       2.220  -0.041  -0.019  0.00  0.00    -0.270 OA
ATOM      7  N   UNL     1       0.002  -0.004   0.002  0.00  0.00    -0.231 N 
ATOM      8  H   UNL     1      -0.831  -0.500   0.007  0.00  0.00    +0.173 HD
BRANCH   5  17
ATOM      9  C   UNL     1       3.264  -6.619   0.660  0.00  0.00    +0.004 A 
ATOM     10  C   UNL     1       4.188  -5.876  -0.050  0.00  0.00    +0.004 A 
ATOM     11  C   UNL     1       3.944  -4.543  -0.322  0.00  0.00    +0.049 A 
ATOM     12  C   UNL     1       2.771  -3.947   0.118  0.00  0.00    +0.163 A 
ATOM     13  C   UNL     1       1.841  -4.695   0.830  0.00  0.00    +0.162 A 
ATOM     14  C   UNL     1       2.092  -6.032   1.100  0.00  0.00    +0.049 A 
ATOM     15  O   UNL     1       0.682  -4.132   1.267  0.00  0.00    -0.484 OA
ATOM     16  C   UNL     1       0.635  -2.701   1.304  0.00  0.00    +0.283 C 
ATOM     17  C   UNL     1       1.199  -2.169  -0.021  0.00  0.00    +0.297 C 
ATOM     18  O   UNL     1       2.547  -2.633  -0.154  0.00  0.00    -0.472 OA
ENDBRANCH   5  17
ENDBRANCH   1   7
BRANCH   2  19
ATOM     19  C   UNL     1      -1.214   3.562   0.027  0.00  0.00    +0.108 C 
BRANCH  19  20
ATOM     20  C   UNL     1      -2.663   4.052   0.037  0.00  0.00    +0.079 C 
BRANCH  20  21
ATOM     21  S   UNL     1      -2.688   5.866   0.047  0.00  0.00    -0.153 S 
BRANCH  21  22
ATOM     22  C   UNL     1      -4.453   6.281   0.057  0.00  0.00    +0.143 C 
BRANCH  22  23
ATOM     23  C   UNL     1      -4.617   7.779   0.066  0.00  0.00    +0.121 A 
ATOM     24  N   UNL     1      -5.866   8.312   0.075  0.00  0.00    -0.310 N 
ATOM     25  H   UNL     1      -6.635   7.721   0.076  0.00  0.00    +0.170 HD
ATOM     26  C   UNL     1      -6.058   9.645   0.082  0.00  0.00    +0.260 A 
ATOM     27  O   UNL     1      -7.185  10.110   0.089  0.00  0.00    -0.267 OA
ATOM     28  C   UNL     1      -4.913  10.506   0.082  0.00  0.00    +0.075 A 
ATOM     29  C   UNL     1      -4.885  11.976   0.088  0.00  0.00    -0.023 A 
ATOM     30  C   UNL     1      -3.674  12.560   0.089  0.00  0.00    -0.004 A 
ATOM     31  S   UNL     1      -2.514  11.213   0.076  0.00  0.00    -0.073 S 
ATOM     32  C   UNL     1      -3.667   9.866   0.073  0.00  0.00    +0.116 A 
ATOM     33  N   UNL     1      -3.555   8.540   0.071  0.00  0.00    -0.226 NA
ATOM     34  C   UNL     1      -3.768  14.062   0.101  0.00  0.00    +0.043 C 
ATOM     35  C   UNL     1      -5.219  14.357   0.542  0.00  0.00    +0.010 C 
ATOM     36  C   UNL     1      -5.949  13.076   0.091  0.00  0.00    +0.037 C 
ENDBRANCH  22  23
ENDBRANCH  21  22
ENDBRANCH  20  21
ENDBRANCH  19  20
ENDBRANCH   2  19
TORSDOF 7
