REMARK  Name = ZINC40822522
REMARK  8 active torsions:
REMARK  status: ('A' for Active; 'I' for Inactive)
REMARK    1  A    between atoms: C_1  and  C_2
REMARK    2  A    between atoms: C_6  and  C_7
REMARK    3  A    between atoms: C_12  and  C_15
REMARK    4  A    between atoms: C_15  and  O_17
REMARK    5  A    between atoms: O_17  and  C_18
REMARK    6  A    between atoms: N_23  and  N_24
REMARK    7  A    between atoms: C_25  and  C_27
REMARK    8  A    between atoms: C_30  and  C_33
REMARK                            x       y       z     vdW  Elec       q    Type
REMARK                         _______ _______ _______ _____ _____    ______ ____
ROOT
ATOM      1  C   UNL     1       0.546   1.438   0.014  0.00  0.00    +0.048 C 
ATOM      2  C   UNL     1       0.194  -0.028   0.004  0.00  0.00    +0.009 A 
ATOM      3  C   UNL     1       0.037  -0.846  -1.122  0.00  0.00    +0.042 A 
ATOM      4  C   UNL     1      -0.282  -2.107  -0.674  0.00  0.00    +0.115 A 
ATOM      5  O   UNL     1      -0.318  -2.074   0.656  0.00  0.00    -0.454 OA
ATOM      6  C   UNL     1      -0.029  -0.826   1.091  0.00  0.00    +0.193 A 
ATOM      7  C   UNL     1      -0.535  -3.268  -1.602  0.00  0.00    +0.075 C 
ATOM      8  C   UNL     1      -0.887  -2.738  -2.995  0.00  0.00    +0.014 C 
ATOM      9  C   UNL     1       0.179  -1.751  -3.483  0.00  0.00    +0.058 C 
ATOM     10  C   UNL     1       0.164  -0.539  -2.564  0.00  0.00    +0.070 C 
ATOM     11  N   UNL     1       0.254   0.675  -3.011  0.00  0.00    -0.184 NA
ENDROOT
BRANCH   6  12
ATOM     12  C   UNL     1       0.031  -0.399   2.493  0.00  0.00    +0.282 C 
ATOM     13  O   UNL     1       0.152   0.780   2.766  0.00  0.00    -0.267 OA
ATOM     14  N   UNL     1      -0.048  -1.314   3.480  0.00  0.00    -0.295 N 
ATOM     15  C   UNL     1      -0.026  -2.751   3.172  0.00  0.00    +0.109 C 
ATOM     16  C   UNL     1       1.079  -3.415   3.999  0.00  0.00    +0.033 C 
ATOM     17  C   UNL     1       0.865  -3.093   5.480  0.00  0.00    +0.101 C 
ATOM     18  C   UNL     1       0.947  -1.580   5.692  0.00  0.00    +0.033 C 
ATOM     19  C   UNL     1      -0.153  -0.894   4.884  0.00  0.00    +0.109 C 
BRANCH  17  20
ATOM     20  C   UNL     1       1.931  -3.773   6.301  0.00  0.00    +0.310 C 
ATOM     21  O   UNL     1       2.774  -4.447   5.757  0.00  0.00    -0.251 OA
BRANCH  20  22
ATOM     22  O   UNL     1       1.943  -3.631   7.636  0.00  0.00    -0.468 OA
ATOM     23  C   UNL     1       2.981  -4.304   8.350  0.00  0.00    +0.280 C 
ENDBRANCH  20  22
ENDBRANCH  17  20
ENDBRANCH   6  12
BRANCH  11  24
ATOM     24  N   UNL     1       0.372   0.908  -4.388  0.00  0.00    -0.203 N 
ATOM     25  C   UNL     1       0.466   2.169  -4.853  0.00  0.00    +0.263 C 
ATOM     26  O   UNL     1       0.449   3.106  -4.077  0.00  0.00    -0.268 OA
ATOM     27  H   UNL     1       0.386   0.161  -5.006  0.00  0.00    +0.178 HD
BRANCH  25  28
ATOM     28  C   UNL     1       0.591   2.414  -6.304  0.00  0.00    +0.038 A 
ATOM     29  C   UNL     1       0.605   1.338  -7.196  0.00  0.00    +0.014 A 
ATOM     30  C   UNL     1       0.721   1.568  -8.548  0.00  0.00    +0.009 A 
ATOM     31  C   UNL     1       0.823   2.874  -9.028  0.00  0.00    -0.018 A 
ATOM     32  C   UNL     1       0.809   3.948  -8.139  0.00  0.00    +0.009 A 
ATOM     33  C   UNL     1       0.688   3.722  -6.786  0.00  0.00    +0.014 A 
BRANCH  31  34
ATOM     34  C   UNL     1       0.948   3.119 -10.485  0.00  0.00    -0.018 A 
ATOM     35  C   UNL     1       0.958   2.048 -11.377  0.00  0.00    +0.008 A 
ATOM     36  C   UNL     1       1.074   2.283 -12.732  0.00  0.00    +0.001 A 
ATOM     37  C   UNL     1       1.182   3.578 -13.206  0.00  0.00    +0.000 A 
ATOM     38  C   UNL     1       1.173   4.645 -12.325  0.00  0.00    +0.001 A 
ATOM     39  C   UNL     1       1.051   4.423 -10.969  0.00  0.00    +0.008 A 
ENDBRANCH  31  34
ENDBRANCH  25  28
ENDBRANCH  11  24
TORSDOF 6
