REMARK  Name = ZINC65077730
REMARK  8 active torsions:
REMARK  status: ('A' for Active; 'I' for Inactive)
REMARK    1  A    between atoms: C_1  and  C_2
REMARK    2  A    between atoms: C_10  and  C_11
REMARK    3  A    between atoms: N_13  and  C_14
REMARK    4  A    between atoms: C_18  and  N_20
REMARK    5  A    between atoms: C_21  and  C_23
REMARK    6  A    between atoms: C_23  and  C_24
REMARK    7  A    between atoms: C_23  and  O_25
REMARK    8  A    between atoms: O_25  and  C_26
REMARK                            x       y       z     vdW  Elec       q    Type
REMARK                         _______ _______ _______ _____ _____    ______ ____
ROOT
ATOM      1  C   UNL     1       0.770  -2.086   3.298  0.00  0.00    +0.255 C 
ATOM      2  O   UNL     1       1.436  -2.629   4.160  0.00  0.00    -0.269 OA
ATOM      3  N   UNL     1       0.043  -0.992   3.598  0.00  0.00    -0.281 N 
ATOM      4  H   UNL     1      -0.429  -0.516   2.897  0.00  0.00    +0.155 HD
ENDROOT
BRANCH   1  14
ATOM      5  C   UNL     1       2.303  -4.524   2.345  0.00  0.00    +0.046 C 
ATOM      6  C   UNL     1       1.418  -3.707   1.440  0.00  0.00    -0.023 A 
ATOM      7  C   UNL     1       1.269  -4.067   0.089  0.00  0.00    -0.004 A 
ATOM      8  C   UNL     1       1.865  -5.155  -0.601  0.00  0.00    +0.047 A 
ATOM      9  C   UNL     1       1.614  -5.362  -1.921  0.00  0.00    +0.124 A 
ATOM     10  C   UNL     1       0.769  -4.524  -2.642  0.00  0.00    +0.039 A 
ATOM     11  C   UNL     1       0.170  -3.455  -2.009  0.00  0.00    +0.018 A 
ATOM     12  C   UNL     1       0.415  -3.232  -0.670  0.00  0.00    +0.020 A 
ATOM     13  S   UNL     1      -0.126  -2.017   0.504  0.00  0.00    -0.083 S 
ATOM     14  C   UNL     1       0.757  -2.624   1.931  0.00  0.00    +0.078 A 
ATOM     15  F   UNL     1       2.199  -6.407  -2.547  0.00  0.00    -0.205 F 
ENDBRANCH   1  14
BRANCH   3  16
ATOM     16  C   UNL     1      -0.031  -0.542   4.920  0.00  0.00    +0.035 A 
ATOM     17  C   UNL     1      -0.134   0.818   5.188  0.00  0.00    +0.023 A 
ATOM     18  C   UNL     1      -0.207   1.263   6.493  0.00  0.00    +0.004 A 
ATOM     19  C   UNL     1      -0.178   0.358   7.537  0.00  0.00    +0.023 A 
ATOM     20  C   UNL     1      -0.075  -1.002   7.277  0.00  0.00    +0.035 A 
ATOM     21  C   UNL     1      -0.007  -1.453   5.966  0.00  0.00    +0.046 A 
BRANCH  20  22
ATOM     22  N   UNL     1      -0.046  -1.918   8.335  0.00  0.00    -0.283 N 
ATOM     23  C   UNL     1      -0.777  -1.690   9.444  0.00  0.00    +0.246 C 
ATOM     24  O   UNL     1      -1.395  -0.652   9.560  0.00  0.00    -0.273 OA
ATOM     25  H   UNL     1       0.500  -2.717   8.270  0.00  0.00    +0.155 HD
BRANCH  23  26
ATOM     26  C   UNL     1      -0.827  -2.724  10.539  0.00  0.00    +0.200 C 
ATOM     27  C   UNL     1       0.564  -2.880  11.156  0.00  0.00    +0.048 C 
BRANCH  26  28
ATOM     28  O   UNL     1      -1.751  -2.306  11.546  0.00  0.00    -0.371 OA
ATOM     29  C   UNL     1      -2.390  -3.385  12.232  0.00  0.00    +0.195 C 
ENDBRANCH  26  28
ENDBRANCH  23  26
ENDBRANCH  20  22
ENDBRANCH   3  16
TORSDOF 5
