REMARK  Name = ZINC02998555
REMARK  5 active torsions:
REMARK  status: ('A' for Active; 'I' for Inactive)
REMARK    1  A    between atoms: C_8  and  C_10
REMARK    2  A    between atoms: N_12  and  C_13
REMARK    3  A    between atoms: C_13  and  N_15
REMARK    4  A    between atoms: N_15  and  C_16
REMARK    5  A    between atoms: C_23  and  C_25
REMARK                            x       y       z     vdW  Elec       q    Type
REMARK                         _______ _______ _______ _____ _____    ______ ____
ROOT
ATOM      1  N   UNL     1      -8.152   5.428   0.105  0.00  0.00    -0.297 N 
ATOM      2  H   UNL     1      -8.649   5.915  -0.572  0.00  0.00    +0.154 HD
ENDROOT
BRANCH   1   3
ATOM      3  C   UNL     1      -6.752   5.434   0.085  0.00  0.00    +0.035 A 
ATOM      4  C   UNL     1      -6.066   6.617  -0.184  0.00  0.00    +0.027 A 
ATOM      5  C   UNL     1      -4.688   6.636  -0.206  0.00  0.00    +0.050 A 
ATOM      6  C   UNL     1      -3.975   5.473   0.041  0.00  0.00    +0.156 A 
ATOM      7  C   UNL     1      -4.658   4.277   0.313  0.00  0.00    +0.112 A 
ATOM      8  C   UNL     1      -6.055   4.266   0.334  0.00  0.00    +0.054 A 
ATOM      9  N   UNL     1      -3.712   3.323   0.510  0.00  0.00    -0.209 NA
ATOM     10  C   UNL     1      -2.530   3.869   0.375  0.00  0.00    +0.230 A 
ATOM     11  O   UNL     1      -2.656   5.179   0.093  0.00  0.00    -0.435 OA
BRANCH  10  12
ATOM     12  C   UNL     1      -1.245   3.153   0.516  0.00  0.00    +0.057 A 
ATOM     13  C   UNL     1      -1.231   1.788   0.811  0.00  0.00    +0.015 A 
ATOM     14  C   UNL     1      -0.029   1.126   0.947  0.00  0.00    +0.002 A 
ATOM     15  C   UNL     1       1.164   1.808   0.781  0.00  0.00    +0.021 A 
ATOM     16  C   UNL     1       1.160   3.160   0.484  0.00  0.00    +0.060 A 
ATOM     17  C   UNL     1      -0.038   3.837   0.350  0.00  0.00    +0.071 A 
ATOM     18 CL   UNL     1      -0.043   5.532  -0.023  0.00  0.00    -0.081 Cl
ATOM     19 CL   UNL     1       2.661   4.006   0.278  0.00  0.00    -0.082 Cl
ENDBRANCH  10  12
ENDBRANCH   1   3
BRANCH   1  20
ATOM     20  C   UNL     1      -8.810   4.747   1.064  0.00  0.00    +0.141 C 
ATOM     21  S   UNL     1      -7.939   4.007   2.338  0.00  0.00    -0.018 S 
BRANCH  20  24
ATOM     22  C   UNL     1     -10.811   3.967   1.978  0.00  0.00    +0.285 C 
ATOM     23  O   UNL     1     -10.192   3.441   2.884  0.00  0.00    -0.266 OA
ATOM     24  N   UNL     1     -10.153   4.648   1.019  0.00  0.00    -0.261 N 
ATOM     25  H   UNL     1     -10.646   5.068   0.297  0.00  0.00    +0.157 HD
BRANCH  22  33
ATOM     26  C   UNL     1     -16.804   3.251   2.207  0.00  0.00    +0.001 A 
ATOM     27  C   UNL     1     -16.746   4.008   1.044  0.00  0.00    +0.004 A 
ATOM     28  C   UNL     1     -15.537   4.444   0.547  0.00  0.00    +0.047 A 
ATOM     29  C   UNL     1     -14.360   4.124   1.213  0.00  0.00    +0.136 A 
ATOM     30  C   UNL     1     -14.424   3.357   2.391  0.00  0.00    +0.021 A 
ATOM     31  C   UNL     1     -15.660   2.925   2.878  0.00  0.00    +0.011 A 
ATOM     32  C   UNL     1     -13.041   3.200   2.838  0.00  0.00    +0.063 A 
ATOM     33  C   UNL     1     -12.275   3.859   1.930  0.00  0.00    +0.191 A 
ATOM     34  O   UNL     1     -13.063   4.405   0.980  0.00  0.00    -0.450 OA
ENDBRANCH  22  33
ENDBRANCH  20  24
ENDBRANCH   1  20
TORSDOF 5
