REMARK  Name = ZINC13552803
REMARK  5 active torsions:
REMARK  status: ('A' for Active; 'I' for Inactive)
REMARK    1  A    between atoms: C_4  and  C_7
REMARK    2  A    between atoms: C_7  and  C_8
REMARK    3  A    between atoms: C_8  and  C_10
REMARK    4  A    between atoms: C_8  and  N_21
REMARK    5  A    between atoms: N_12  and  C_13
REMARK                            x       y       z     vdW  Elec       q    Type
REMARK                         _______ _______ _______ _____ _____    ______ ____
ROOT
ATOM      1  C   UNL     1       3.986  -0.903   1.493  0.00  0.00    +0.165 C 
ENDROOT
BRANCH   1   2
ATOM      2  N   UNL     1       4.456   0.343   2.105  0.00  0.00    -0.287 N 
ATOM      3  C   UNL     1       3.580   1.165   2.716  0.00  0.00    +0.308 C 
ATOM      4  O   UNL     1       2.419   0.829   2.845  0.00  0.00    -0.252 OA
ATOM      5  N   UNL     1       3.992   2.361   3.183  0.00  0.00    -0.245 N 
ATOM      6  C   UNL     1       5.410   2.748   3.133  0.00  0.00    +0.211 C 
ATOM      7  C   UNL     1       5.781   3.422   4.429  0.00  0.00    +0.235 C 
ATOM      8  O   UNL     1       6.921   3.352   4.835  0.00  0.00    -0.274 OA
ATOM      9  N   UNL     1       4.862   4.102   5.140  0.00  0.00    -0.283 N 
ATOM     10  C   UNL     1       3.528   4.156   4.721  0.00  0.00    +0.055 A 
ATOM     11  C   UNL     1       3.080   3.279   3.728  0.00  0.00    +0.059 A 
ATOM     12  C   UNL     1       1.765   3.318   3.302  0.00  0.00    +0.025 A 
ATOM     13  C   UNL     1       0.891   4.237   3.856  0.00  0.00    +0.002 A 
ATOM     14  C   UNL     1       1.330   5.113   4.831  0.00  0.00    +0.002 A 
ATOM     15  C   UNL     1       2.648   5.072   5.273  0.00  0.00    +0.025 A 
ATOM     16  H   UNL     1       5.397   0.576   2.070  0.00  0.00    +0.151 HD
ATOM     17  H   UNL     1       5.128   4.559   5.954  0.00  0.00    +0.155 HD
ENDBRANCH   1   2
BRANCH   1  18
ATOM     18  C   UNL     1       5.120  -1.894   1.439  0.00  0.00    +0.238 C 
ATOM     19  O   UNL     1       6.213  -1.589   1.868  0.00  0.00    -0.273 OA
ATOM     20  N   UNL     1       4.920  -3.119   0.913  0.00  0.00    -0.284 N 
ATOM     21  H   UNL     1       4.032  -3.387   0.632  0.00  0.00    +0.155 HD
BRANCH  20  22
ATOM     22  C   UNL     1       5.996  -4.004   0.772  0.00  0.00    +0.035 A 
ATOM     23  C   UNL     1       6.052  -4.862  -0.319  0.00  0.00    +0.026 A 
ATOM     24  C   UNL     1       7.113  -5.735  -0.457  0.00  0.00    +0.041 A 
ATOM     25  C   UNL     1       8.122  -5.755   0.492  0.00  0.00    +0.142 A 
ATOM     26  C   UNL     1       8.069  -4.901   1.581  0.00  0.00    +0.078 A 
ATOM     27  C   UNL     1       7.011  -4.022   1.719  0.00  0.00    +0.046 A 
ATOM     28 CL   UNL     1       9.334  -4.929   2.769  0.00  0.00    -0.081 Cl
ATOM     29  F   UNL     1       9.159  -6.610   0.355  0.00  0.00    -0.204 F 
ENDBRANCH  20  22
ENDBRANCH   1  18
BRANCH   1  30
ATOM     30  C   UNL     1       3.488  -0.619   0.075  0.00  0.00    +0.067 C 
BRANCH  30  34
ATOM     31  C   UNL     1       0.055   1.916   0.249  0.00  0.00    +0.000 A 
ATOM     32  C   UNL     1       1.319   2.469   0.166  0.00  0.00    +0.000 A 
ATOM     33  C   UNL     1       2.430   1.649   0.110  0.00  0.00    +0.004 A 
ATOM     34  C   UNL     1       2.277   0.275   0.137  0.00  0.00    -0.045 A 
ATOM     35  C   UNL     1       1.013  -0.278   0.222  0.00  0.00    +0.004 A 
ATOM     36  C   UNL     1      -0.098   0.542   0.276  0.00  0.00    +0.000 A 
ENDBRANCH  30  34
ENDBRANCH   1  30
TORSDOF 5
