REMARK  Name = ZINC45961879
REMARK  7 active torsions:
REMARK  status: ('A' for Active; 'I' for Inactive)
REMARK    1  A    between atoms: C_1  and  C_2
REMARK    2  A    between atoms: N_4  and  C_5
REMARK    3  A    between atoms: C_8  and  S_11
REMARK    4  A    between atoms: S_11  and  N_14
REMARK    5  A    between atoms: N_14  and  C_15
REMARK    6  A    between atoms: C_16  and  N_26
REMARK    7  A    between atoms: N_26  and  C_27
REMARK                            x       y       z     vdW  Elec       q    Type
REMARK                         _______ _______ _______ _____ _____    ______ ____
ROOT
ATOM      1  C   UNL     1      -2.367  -7.163  -2.846  0.00  0.00    +0.154 A 
ATOM      2  C   UNL     1      -1.988  -6.284  -3.845  0.00  0.00    +0.068 A 
ATOM      3  C   UNL     1      -3.044  -5.714  -4.696  0.00  0.00    +0.040 A 
ATOM      4  C   UNL     1      -2.734  -4.820  -5.724  0.00  0.00    +0.013 A 
ATOM      5  C   UNL     1      -3.745  -4.304  -6.504  0.00  0.00    +0.001 A 
ATOM      6  C   UNL     1      -5.063  -4.667  -6.273  0.00  0.00    +0.004 A 
ATOM      7  C   UNL     1      -5.382  -5.548  -5.261  0.00  0.00    +0.047 A 
ATOM      8  C   UNL     1      -4.378  -6.081  -4.463  0.00  0.00    +0.141 A 
ATOM      9  O   UNL     1      -4.677  -6.946  -3.469  0.00  0.00    -0.421 OA
ATOM     10  C   UNL     1      -3.728  -7.482  -2.685  0.00  0.00    +0.362 A 
ATOM     11  O   UNL     1      -4.055  -8.261  -1.807  0.00  0.00    -0.243 OA
ENDROOT
BRANCH   1  12
ATOM     12  N   UNL     1      -1.400  -7.738  -2.003  0.00  0.00    -0.208 N 
ATOM     13  H   UNL     1      -0.460  -7.536  -2.134  0.00  0.00    +0.174 HD
BRANCH  12  14
ATOM     14  S   UNL     1      -1.865  -8.761  -0.786  0.00  0.00    +0.073 S 
ATOM     15  O   UNL     1      -2.839  -8.065  -0.021  0.00  0.00    -0.150 OA
ATOM     16  O   UNL     1      -0.672  -9.277  -0.211  0.00  0.00    -0.150 OA
BRANCH  14  20
ATOM     17  C   UNL     1      -3.992 -12.261  -2.717  0.00  0.00    +0.033 A 
ATOM     18  C   UNL     1      -2.667 -11.992  -3.033  0.00  0.00    +0.025 A 
ATOM     19  C   UNL     1      -2.021 -10.924  -2.442  0.00  0.00    +0.030 A 
ATOM     20  C   UNL     1      -2.692 -10.122  -1.537  0.00  0.00    +0.109 A 
ATOM     21  C   UNL     1      -4.012 -10.387  -1.221  0.00  0.00    +0.030 A 
ATOM     22  C   UNL     1      -4.666 -11.450  -1.813  0.00  0.00    +0.025 A 
BRANCH  17  26
ATOM     23  C   UNL     1      -6.641 -14.374  -4.356  0.00  0.00    +0.109 C 
ATOM     24  C   UNL     1      -5.957 -13.247  -3.627  0.00  0.00    +0.214 C 
ATOM     25  O   UNL     1      -6.583 -12.254  -3.322  0.00  0.00    -0.276 OA
ATOM     26  N   UNL     1      -4.650 -13.342  -3.314  0.00  0.00    -0.286 N 
ATOM     27  H   UNL     1      -4.164 -14.161  -3.502  0.00  0.00    +0.155 HD
ENDBRANCH  17  26
ENDBRANCH  14  20
ENDBRANCH  12  14
ENDBRANCH   1  12
BRANCH   2  28
ATOM     28  N   UNL     1      -0.659  -5.952  -4.036  0.00  0.00    -0.339 N 
ATOM     29  H   UNL     1      -0.181  -5.451  -3.356  0.00  0.00    +0.146 HD
BRANCH  28  30
ATOM     30  C   UNL     1       0.028  -6.355  -5.266  0.00  0.00    +0.070 C 
ATOM     31  C   UNL     1       0.622  -7.769  -5.099  0.00  0.00    +0.022 C 
ATOM     32  C   UNL     1       1.967  -7.708  -5.863  0.00  0.00    +0.002 C 
ATOM     33  C   UNL     1       2.482  -6.285  -5.536  0.00  0.00    +0.002 C 
ATOM     34  C   UNL     1       1.211  -5.412  -5.543  0.00  0.00    +0.022 C 
ENDBRANCH  28  30
ENDBRANCH   2  28
TORSDOF 6
