REMARK  Name = ZINC01032114
REMARK  7 active torsions:
REMARK  status: ('A' for Active; 'I' for Inactive)
REMARK    1  A    between atoms: C_1  and  C_2
REMARK    2  A    between atoms: C_2  and  C_3
REMARK    3  A    between atoms: C_2  and  N_48
REMARK    4  A    between atoms: C_6  and  C_7
REMARK    5  A    between atoms: C_15  and  C_23
REMARK    6  A    between atoms: C_17  and  C_21
REMARK    7  A    between atoms: C_18  and  N_20
REMARK                            x       y       z     vdW  Elec       q    Type
REMARK                         _______ _______ _______ _____ _____    ______ ____
ROOT
ATOM      1  C   UNL     1       1.409   2.947   0.276  0.00  0.00    -0.038 C 
ATOM      2  C   UNL     1       2.842   3.431   0.347  0.00  0.00    -0.021 C 
ATOM      3  C   UNL     1       3.207   4.408   1.197  0.00  0.00    +0.013 C 
ATOM      4  C   UNL     1       3.824   2.792  -0.553  0.00  0.00    +0.130 C 
ATOM      5  C   UNL     1       3.484   1.692  -1.227  0.00  0.00    -0.031 C 
ATOM      6  C   UNL     1       2.107   1.091  -1.107  0.00  0.00    -0.042 C 
ATOM      7  C   UNL     1       4.480   1.020  -2.142  0.00  0.00    +0.092 C 
ATOM      8  C   UNL     1       5.594   1.966  -2.488  0.00  0.00    +0.098 C 
ATOM      9  C   UNL     1       5.821   3.074  -1.737  0.00  0.00    +0.199 C 
ATOM     10  O   UNL     1       5.054   3.350  -0.668  0.00  0.00    -0.441 OA
ATOM     11  N   UNL     1       1.474   1.472   0.166  0.00  0.00    +0.387 N 
ATOM     12  H   UNL     1       2.036   1.104   0.943  0.00  0.00    -0.081 HD
ENDROOT
BRANCH   3  13
ATOM     13  C   UNL     1       2.182   5.145   1.955  0.00  0.00    -0.018 A 
ATOM     14  C   UNL     1       2.481   5.739   3.231  0.00  0.00    +0.015 A 
ATOM     15  C   UNL     1       1.496   6.401   3.874  0.00  0.00    +0.046 A 
ATOM     16  S   UNL     1       0.116   6.239   2.757  0.00  0.00    -0.104 S 
ATOM     17  C   UNL     1       0.909   5.296   1.469  0.00  0.00    +0.053 A 
ENDBRANCH   3  13
BRANCH   7  18
ATOM     18  C   UNL     1       5.050  -0.191  -1.450  0.00  0.00    -0.028 A 
ATOM     19  C   UNL     1       4.878  -1.452  -1.988  0.00  0.00    +0.012 A 
ATOM     20  C   UNL     1       5.409  -2.520  -1.342  0.00  0.00    +0.045 A 
ATOM     21  S   UNL     1       6.169  -1.752   0.079  0.00  0.00    -0.105 S 
ATOM     22  C   UNL     1       5.735  -0.059  -0.287  0.00  0.00    +0.049 A 
ENDBRANCH   7  18
BRANCH  11  24
ATOM     23  C   UNL     1      -0.724   1.342  -0.959  0.00  0.00    -0.013 C 
ATOM     24  C   UNL     1       0.111   0.897   0.243  0.00  0.00    -0.074 C 
ATOM     25  C   UNL     1      -0.558   1.374   1.533  0.00  0.00    -0.013 C 
ENDBRANCH  11  24
BRANCH   9  26
ATOM     26  N   UNL     1       6.845   3.922  -2.074  0.00  0.00    -0.328 N 
ATOM     27  H   UNL     1       7.013   4.716  -1.542  0.00  0.00    +0.145 HD
ATOM     28  H   UNL     1       7.402   3.729  -2.844  0.00  0.00    +0.145 HD
ENDBRANCH   9  26
BRANCH   8  29
ATOM     29  C   UNL     1       6.427   1.696  -3.621  0.00  0.00    +0.101 C 
ATOM     30  N   UNL     1       7.088   1.482  -4.520  0.00  0.00    -0.191 NA
ENDBRANCH   8  29
TORSDOF 5
