REMARK  Name = ZINC28340936
REMARK  12 active torsions:
REMARK  status: ('A' for Active; 'I' for Inactive)
REMARK    1  A    between atoms: C_1  and  C_2
REMARK    2  A    between atoms: C_2  and  C_4
REMARK    3  A    between atoms: C_2  and  N_14
REMARK    4  A    between atoms: C_7  and  S_10
REMARK    5  A    between atoms: S_10  and  N_13
REMARK    6  A    between atoms: N_14  and  C_15
REMARK    7  A    between atoms: C_16  and  C_18
REMARK    8  A    between atoms: C_24  and  O_26
REMARK    9  A    between atoms: O_26  and  C_27
REMARK   10  A    between atoms: C_27  and  C_28
REMARK   11  A    between atoms: C_27  and  C_29
REMARK   12  A    between atoms: C_27  and  C_30
REMARK                            x       y       z     vdW  Elec       q    Type
REMARK                         _______ _______ _______ _____ _____    ______ ____
ROOT
ATOM      1  N   UNL     1       0.024   1.292   0.057  0.00  0.00    -0.297 N 
ATOM      2  C   UNL     1      -1.248   1.998  -0.119  0.00  0.00    +0.132 C 
ATOM      3  C   UNL     1       0.031  -0.034   0.297  0.00  0.00    +0.219 C 
ATOM      4  O   UNL     1       1.084  -0.619   0.439  0.00  0.00    -0.275 OA
ENDROOT
BRANCH   3   5
ATOM      5  C   UNL     1      -1.270  -0.790   0.390  0.00  0.00    +0.078 C 
ATOM      6  C   UNL     1      -2.116  -0.212   1.526  0.00  0.00    +0.032 C 
ATOM      7  C   UNL     1      -3.451  -0.959   1.595  0.00  0.00    +0.112 C 
ATOM      8  N   UNL     1      -3.181  -2.399   1.716  0.00  0.00    -0.267 N 
ATOM      9  C   UNL     1      -2.305  -3.038   0.726  0.00  0.00    +0.112 C 
ATOM     10  C   UNL     1      -0.982  -2.268   0.667  0.00  0.00    +0.032 C 
ATOM     11  C   UNL     1      -3.728  -3.118   2.716  0.00  0.00    +0.403 C 
ATOM     12  O   UNL     1      -3.497  -4.308   2.805  0.00  0.00    -0.226 OA
BRANCH  11  13
ATOM     13  O   UNL     1      -4.529  -2.519   3.617  0.00  0.00    -0.445 OA
BRANCH  13  14
ATOM     14  C   UNL     1      -5.082  -3.355   4.667  0.00  0.00    +0.107 C 
ATOM     15  C   UNL     1      -3.943  -3.975   5.479  0.00  0.00    +0.055 C 
ATOM     16  C   UNL     1      -5.960  -2.505   5.587  0.00  0.00    +0.055 C 
ATOM     17  C   UNL     1      -5.926  -4.468   4.041  0.00  0.00    +0.055 C 
ENDBRANCH  13  14
ENDBRANCH  11  13
ENDBRANCH   3   5
BRANCH   1  19
ATOM     18  C   UNL     1       1.338   2.796  -1.354  0.00  0.00    +0.033 C 
ATOM     19  C   UNL     1       1.288   2.027  -0.033  0.00  0.00    +0.103 C 
BRANCH  19  20
ATOM     20  C   UNL     1       1.389   2.996   1.117  0.00  0.00    -0.027 A 
ATOM     21  C   UNL     1       0.421   3.968   1.288  0.00  0.00    +0.007 A 
ATOM     22  C   UNL     1       0.511   4.854   2.345  0.00  0.00    +0.029 A 
ATOM     23  C   UNL     1       1.574   4.775   3.225  0.00  0.00    +0.105 A 
ATOM     24  C   UNL     1       2.544   3.806   3.051  0.00  0.00    +0.029 A 
ATOM     25  C   UNL     1       2.452   2.917   1.997  0.00  0.00    +0.007 A 
BRANCH  23  26
ATOM     26  S   UNL     1       1.692   5.909   4.569  0.00  0.00    +0.056 S 
ATOM     27  O   UNL     1       0.373   6.370   4.828  0.00  0.00    -0.153 OA
ATOM     28  O   UNL     1       2.489   5.279   5.563  0.00  0.00    -0.153 OA
BRANCH  26  29
ATOM     29  N   UNL     1       2.553   7.217   4.030  0.00  0.00    -0.204 NA
ATOM     30  H   UNL     1       2.650   7.952   4.843  0.00  0.00    +0.144 HD
ATOM     31  H   UNL     1       2.028   7.678   3.181  0.00  0.00    +0.144 HD
ENDBRANCH  26  29
ENDBRANCH  23  26
ENDBRANCH  19  20
ENDBRANCH   1  19
TORSDOF 7
