REMARK  Name = ZINC35747688
REMARK  10 active torsions:
REMARK  status: ('A' for Active; 'I' for Inactive)
REMARK    1  A    between atoms: C_1  and  C_2
REMARK    2  A    between atoms: C_5  and  C_9
REMARK    3  A    between atoms: C_6  and  C_8
REMARK    4  A    between atoms: C_18  and  C_20
REMARK    5  A    between atoms: C_20  and  N_21
REMARK    6  A    between atoms: N_21  and  C_22
REMARK    7  A    between atoms: N_21  and  C_27
REMARK    8  A    between atoms: C_22  and  C_23
REMARK    9  A    between atoms: C_23  and  C_25
REMARK   10  A    between atoms: C_23  and  O_26
REMARK                            x       y       z     vdW  Elec       q    Type
REMARK                         _______ _______ _______ _____ _____    ______ ____
ROOT
ATOM      1  C   UNL     1      -0.614  -4.225  -0.781  0.00  0.00    +0.004 A 
ATOM      2  C   UNL     1       0.437  -4.852  -1.361  0.00  0.00    +0.056 A 
ATOM      3  S   UNL     1       0.158  -6.569  -0.974  0.00  0.00    -0.076 S 
ATOM      4  C   UNL     1      -1.349  -6.407  -0.051  0.00  0.00    +0.116 A 
ATOM      5  C   UNL     1      -1.597  -5.024  -0.059  0.00  0.00    +0.080 A 
ATOM      6  C   UNL     1      -2.776  -4.602   0.634  0.00  0.00    +0.260 A 
ATOM      7  O   UNL     1      -3.078  -3.422   0.678  0.00  0.00    -0.267 OA
ATOM      8  N   UNL     1      -3.546  -5.527   1.236  0.00  0.00    -0.312 N 
ATOM      9  H   UNL     1      -4.346  -5.247   1.707  0.00  0.00    +0.170 HD
ATOM     10  C   UNL     1      -3.224  -6.846   1.196  0.00  0.00    +0.094 A 
ATOM     11  N   UNL     1      -2.161  -7.263   0.563  0.00  0.00    -0.229 NA
ENDROOT
BRANCH   1  16
ATOM     12  C   UNL     1      -1.179   1.495  -1.136  0.00  0.00    +0.044 C 
ATOM     13  C   UNL     1      -1.031  -0.002  -1.043  0.00  0.00    -0.050 A 
ATOM     14  C   UNL     1      -1.115  -0.775  -2.187  0.00  0.00    +0.004 A 
ATOM     15  C   UNL     1      -0.980  -2.146  -2.108  0.00  0.00    +0.009 A 
ATOM     16  C   UNL     1      -0.759  -2.752  -0.872  0.00  0.00    -0.014 A 
ATOM     17  C   UNL     1      -0.675  -1.968   0.277  0.00  0.00    -0.042 A 
ATOM     18  C   UNL     1      -0.806  -0.597   0.185  0.00  0.00    +0.007 A 
ATOM     19  C   UNL     1      -0.437  -2.615   1.617  0.00  0.00    +0.044 C 
ENDBRANCH   1  16
BRANCH  10  20
ATOM     20  C   UNL     1      -4.117  -7.846   1.885  0.00  0.00    -0.003 C 
BRANCH  20  21
ATOM     21  N   UNL     1      -3.568  -9.197   1.705  0.00  0.00    +0.388 N 
ATOM     22  H   UNL     1      -3.446  -9.382   0.721  0.00  0.00    -0.081 HD
BRANCH  21  23
ATOM     23  C   UNL     1      -4.495 -10.182   2.277  0.00  0.00    -0.068 C 
ATOM     24  C   UNL     1      -3.866 -11.575   2.208  0.00  0.00    -0.015 C 
ATOM     25  C   UNL     1      -4.831 -12.602   2.804  0.00  0.00    -0.002 C 
ATOM     26  C   UNL     1      -6.139 -12.593   2.010  0.00  0.00    -0.000 C 
ATOM     27  C   UNL     1      -6.768 -11.200   2.079  0.00  0.00    -0.002 C 
ATOM     28  C   UNL     1      -5.803 -10.173   1.483  0.00  0.00    -0.015 C 
ENDBRANCH  21  23
BRANCH  21  29
ATOM     29  C   UNL     1      -2.270  -9.293   2.386  0.00  0.00    -0.046 C 
BRANCH  29  30
ATOM     30  C   UNL     1      -2.477  -9.172   3.897  0.00  0.00    +0.095 C 
ATOM     31  C   UNL     1      -1.162  -9.478   4.618  0.00  0.00    +0.035 C 
BRANCH  30  32
ATOM     32  O   UNL     1      -2.897  -7.844   4.216  0.00  0.00    -0.394 OA
ATOM     33  H   UNL     1      -2.300  -7.155   3.894  0.00  0.00    +0.210 HD
ENDBRANCH  30  32
ENDBRANCH  29  30
ENDBRANCH  21  29
ENDBRANCH  20  21
ENDBRANCH  10  20
TORSDOF 7
