REMARK  Name = ZINC39777013
REMARK  8 active torsions:
REMARK  status: ('A' for Active; 'I' for Inactive)
REMARK    1  A    between atoms: C_7  and  C_10
REMARK    2  A    between atoms: C_13  and  S_19
REMARK    3  A    between atoms: N_15  and  C_16
REMARK    4  A    between atoms: S_19  and  C_20
REMARK    5  A    between atoms: C_20  and  C_21
REMARK    6  A    between atoms: N_23  and  C_24
REMARK    7  A    between atoms: C_27  and  C_30
REMARK    8  A    between atoms: C_30  and  N_31
REMARK                            x       y       z     vdW  Elec       q    Type
REMARK                         _______ _______ _______ _____ _____    ______ ____
ROOT
ATOM      1  C   UNL     1       0.738  -3.125   0.162  0.00  0.00    +0.147 C 
ATOM      2  N   UNL     1      -0.555  -3.247   0.021  0.00  0.00    -0.169 NA
ATOM      3  N   UNL     1      -0.913  -4.571  -0.258  0.00  0.00    -0.237 N 
ATOM      4  C   UNL     1       0.338  -5.346  -0.287  0.00  0.00    +0.237 C 
ATOM      5  N   UNL     1       1.387  -4.350  -0.012  0.00  0.00    -0.282 N 
ATOM      6  H   UNL     1      -1.810  -4.911  -0.403  0.00  0.00    +0.171 HD
ENDROOT
BRANCH   1  13
ATOM      7  C   UNL     1      -0.832   1.025   1.110  0.00  0.00    +0.001 A 
ATOM      8  C   UNL     1       0.175   1.966   1.335  0.00  0.00    +0.002 A 
ATOM      9  C   UNL     1       1.489   1.637   1.268  0.00  0.00    +0.026 A 
ATOM     10  C   UNL     1       1.868   0.304   0.963  0.00  0.00    +0.043 A 
ATOM     11  N   UNL     1       3.054  -0.259   0.842  0.00  0.00    -0.380 N 
ATOM     12  C   UNL     1       2.885  -1.678   0.513  0.00  0.00    +0.152 C 
ATOM     13  C   UNL     1       1.392  -1.916   0.447  0.00  0.00    +0.022 C 
ATOM     14  C   UNL     1       0.802  -0.683   0.727  0.00  0.00    +0.006 A 
ATOM     15  C   UNL     1      -0.544  -0.268   0.813  0.00  0.00    +0.010 A 
ATOM     16  H   UNL     1       3.905   0.194   0.953  0.00  0.00    +0.160 HD
ENDBRANCH   1  13
BRANCH   5  17
ATOM     17  C   UNL     1       2.829  -4.596   0.066  0.00  0.00    +0.078 C 
ATOM     18  C   UNL     1       3.321  -6.013  -0.234  0.00  0.00    +0.024 C 
ATOM     19  C   UNL     1       3.333  -5.487   1.203  0.00  0.00    +0.024 C 
ENDBRANCH   5  17
BRANCH   4  20
ATOM     20  S   UNL     1       0.586  -6.089  -1.923  0.00  0.00    -0.109 S 
BRANCH  20  21
ATOM     21  C   UNL     1       0.607  -4.669  -3.052  0.00  0.00    +0.168 C 
BRANCH  21  22
ATOM     22  C   UNL     1       0.809  -5.154  -4.465  0.00  0.00    +0.227 C 
ATOM     23  O   UNL     1       0.927  -6.340  -4.688  0.00  0.00    -0.275 OA
ATOM     24  N   UNL     1       0.858  -4.268  -5.480  0.00  0.00    -0.285 N 
ATOM     25  H   UNL     1       0.838  -3.316  -5.295  0.00  0.00    +0.155 HD
BRANCH  24  26
ATOM     26  C   UNL     1       0.937  -4.723  -6.801  0.00  0.00    +0.033 A 
ATOM     27  C   UNL     1       1.672  -4.010  -7.739  0.00  0.00    +0.023 A 
ATOM     28  C   UNL     1       1.749  -4.461  -9.042  0.00  0.00    +0.007 A 
ATOM     29  C   UNL     1       1.095  -5.621  -9.413  0.00  0.00    -0.033 A 
ATOM     30  C   UNL     1       0.362  -6.333  -8.482  0.00  0.00    +0.007 A 
ATOM     31  C   UNL     1       0.286  -5.891  -7.176  0.00  0.00    +0.023 A 
BRANCH  29  32
ATOM     32  C   UNL     1       1.181  -6.111 -10.836  0.00  0.00    +0.119 C 
BRANCH  32  33
ATOM     33  N   UNL     1       2.335  -7.008 -10.976  0.00  0.00    -0.294 NA
ATOM     34  C   UNL     1       3.597  -6.276 -10.788  0.00  0.00    +0.113 C 
ATOM     35  C   UNL     1       4.768  -7.257 -10.883  0.00  0.00    +0.175 C 
ATOM     36  O   UNL     1       4.717  -7.933 -12.143  0.00  0.00    -0.377 OA
ATOM     37  C   UNL     1       3.502  -8.656 -12.359  0.00  0.00    +0.175 C 
ATOM     38  C   UNL     1       2.317  -7.689 -12.279  0.00  0.00    +0.113 C 
ENDBRANCH  32  33
ENDBRANCH  29  32
ENDBRANCH  24  26
ENDBRANCH  21  22
ENDBRANCH  20  21
ENDBRANCH   4  20
TORSDOF 8
