REMARK  Name = ZINC12936154
REMARK  6 active torsions:
REMARK  status: ('A' for Active; 'I' for Inactive)
REMARK    1  A    between atoms: C_1  and  C_2
REMARK    2  A    between atoms: C_2  and  C_35
REMARK    3  A    between atoms: C_13  and  C_15
REMARK    4  A    between atoms: C_15  and  N_16
REMARK    5  A    between atoms: C_19  and  C_24
REMARK    6  A    between atoms: C_24  and  C_25
REMARK                            x       y       z     vdW  Elec       q    Type
REMARK                         _______ _______ _______ _____ _____    ______ ____
ROOT
ATOM      1  N   UNL     1       0.386   1.164  -3.334  0.00  0.00    -0.216 N 
ATOM      2  C   UNL     1       0.207  -0.138  -3.036  0.00  0.00    +0.244 C 
ATOM      3  O   UNL     1       0.534  -1.094  -3.706  0.00  0.00    -0.273 OA
ATOM      4  C   UNL     1      -0.486  -0.158  -1.688  0.00  0.00    +0.165 C 
ATOM      5  N   UNL     1      -0.631   1.269  -1.352  0.00  0.00    -0.287 N 
ATOM      6  C   UNL     1      -0.093   1.961  -2.372  0.00  0.00    +0.310 C 
ATOM      7  O   UNL     1      -0.047   3.175  -2.415  0.00  0.00    -0.252 OA
ATOM      8  H   UNL     1      -1.036   1.637  -0.551  0.00  0.00    +0.151 HD
ENDROOT
BRANCH   1   9
ATOM      9  C   UNL     1       1.026   1.647  -4.561  0.00  0.00    +0.214 C 
BRANCH   9  22
ATOM     10  C   UNL     1      -2.039   1.889  -7.457  0.00  0.00    +0.042 C 
ATOM     11  C   UNL     1      -0.639   2.226  -7.973  0.00  0.00    +0.113 C 
ATOM     12  C   UNL     1      -0.329   1.377  -9.175  0.00  0.00    +0.241 C 
ATOM     13  O   UNL     1      -1.228   1.032  -9.912  0.00  0.00    -0.273 OA
ATOM     14  N   UNL     1       0.934   0.993  -9.441  0.00  0.00    -0.282 N 
ATOM     15  C   UNL     1       1.983   1.336  -8.581  0.00  0.00    +0.055 A 
ATOM     16  C   UNL     1       3.302   1.199  -8.982  0.00  0.00    +0.025 A 
ATOM     17  C   UNL     1       4.324   1.539  -8.115  0.00  0.00    +0.002 A 
ATOM     18  C   UNL     1       4.037   2.015  -6.849  0.00  0.00    +0.002 A 
ATOM     19  C   UNL     1       2.723   2.157  -6.440  0.00  0.00    +0.025 A 
ATOM     20  C   UNL     1       1.696   1.820  -7.304  0.00  0.00    +0.059 A 
ATOM     21  N   UNL     1       0.352   1.956  -6.920  0.00  0.00    -0.254 N 
ATOM     22  C   UNL     1      -0.019   1.838  -5.630  0.00  0.00    +0.239 C 
ATOM     23  O   UNL     1      -1.193   1.885  -5.330  0.00  0.00    -0.273 OA
ATOM     24  C   UNL     1      -0.578   3.703  -8.367  0.00  0.00    +0.042 C 
ATOM     25  H   UNL     1       1.118   0.472 -10.238  0.00  0.00    +0.155 HD
ENDBRANCH   9  22
ENDBRANCH   1   9
BRANCH   4  26
ATOM     26  C   UNL     1       0.380  -0.871  -0.648  0.00  0.00    +0.069 C 
BRANCH  26  27
ATOM     27  C   UNL     1      -0.383  -0.985   0.647  0.00  0.00    -0.020 A 
ATOM     28  C   UNL     1      -0.316  -0.142   1.690  0.00  0.00    +0.087 A 
ATOM     29  N   UNL     1      -1.150  -0.568   2.688  0.00  0.00    -0.360 N 
ATOM     30  H   UNL     1      -1.272  -0.121   3.540  0.00  0.00    +0.165 HD
ATOM     31  C   UNL     1      -1.790  -1.724   2.302  0.00  0.00    +0.047 A 
ATOM     32  C   UNL     1      -1.342  -2.033   1.004  0.00  0.00    +0.003 A 
ATOM     33  C   UNL     1      -1.823  -3.171   0.354  0.00  0.00    +0.010 A 
ATOM     34  C   UNL     1      -2.736  -3.974   0.977  0.00  0.00    +0.001 A 
ATOM     35  C   UNL     1      -3.185  -3.670   2.255  0.00  0.00    +0.002 A 
ATOM     36  C   UNL     1      -2.720  -2.555   2.917  0.00  0.00    +0.026 A 
ENDBRANCH  26  27
ENDBRANCH   4  26
TORSDOF 4
