REMARK  Name = ZINC00856443
REMARK  9 active torsions:
REMARK  status: ('A' for Active; 'I' for Inactive)
REMARK    1  A    between atoms: C_1  and  C_2
REMARK    2  A    between atoms: C_5  and  S_8
REMARK    3  A    between atoms: S_8  and  N_11
REMARK    4  A    between atoms: N_11  and  C_12
REMARK    5  A    between atoms: C_13  and  C_30
REMARK    6  A    between atoms: C_15  and  O_29
REMARK    7  A    between atoms: C_16  and  S_19
REMARK    8  A    between atoms: C_17  and  C_18
REMARK    9  A    between atoms: S_19  and  C_22
REMARK                            x       y       z     vdW  Elec       q    Type
REMARK                         _______ _______ _______ _____ _____    ______ ____
ROOT
ATOM      1  C   UNL     1      -3.487  -0.639  -3.411  0.00  0.00    +0.056 A 
ATOM      2  C   UNL     1      -2.817  -1.682  -4.039  0.00  0.00    -0.024 A 
ATOM      3  C   UNL     1      -1.801  -2.345  -3.380  0.00  0.00    +0.052 A 
ATOM      4  C   UNL     1      -1.448  -1.970  -2.091  0.00  0.00    +0.143 A 
ATOM      5  C   UNL     1      -2.116  -0.929  -1.464  0.00  0.00    +0.139 A 
ATOM      6  C   UNL     1      -3.137  -0.268  -2.120  0.00  0.00    +0.001 A 
ATOM      7  C   UNL     1      -3.867   0.859  -1.435  0.00  0.00    +0.048 C 
ATOM      8  C   UNL     1      -3.200  -2.090  -5.438  0.00  0.00    +0.046 C 
ENDROOT
BRANCH   5   9
ATOM      9  S   UNL     1      -1.668  -0.454   0.172  0.00  0.00    +0.029 S 
ATOM     10  O   UNL     1      -0.726  -1.414   0.630  0.00  0.00    -0.164 OA
ATOM     11  O   UNL     1      -2.880  -0.185   0.864  0.00  0.00    -0.164 OA
BRANCH   9  12
ATOM     12  C   UNL     1      -0.807   1.079   0.052  0.00  0.00    +0.094 A 
ATOM     13  C   UNL     1      -1.504   2.270   0.117  0.00  0.00    +0.029 A 
ATOM     14  C   UNL     1      -0.829   3.473   0.024  0.00  0.00    +0.022 A 
ATOM     15  C   UNL     1       0.545   3.483  -0.135  0.00  0.00    +0.041 A 
ATOM     16  C   UNL     1       1.243   2.291  -0.200  0.00  0.00    +0.022 A 
ATOM     17  C   UNL     1       0.567   1.089  -0.107  0.00  0.00    +0.029 A 
ATOM     18 CL   UNL     1       1.394   4.993  -0.252  0.00  0.00    -0.084 Cl
ENDBRANCH   9  12
ENDBRANCH   5   9
BRANCH   1  19
ATOM     19  N   UNL     1      -4.517   0.033  -4.078  0.00  0.00    -0.216 N 
ATOM     20  H   UNL     1      -5.348  -0.427  -4.276  0.00  0.00    +0.174 HD
BRANCH  19  21
ATOM     21  S   UNL     1      -4.317   1.614  -4.530  0.00  0.00    +0.072 S 
ATOM     22  O   UNL     1      -5.526   2.011  -5.163  0.00  0.00    -0.150 OA
ATOM     23  O   UNL     1      -3.790   2.295  -3.400  0.00  0.00    -0.150 OA
BRANCH  21  28
ATOM     24  C   UNL     1      -0.029   1.729  -8.773  0.00  0.00    +0.044 C 
ATOM     25  C   UNL     1      -1.100   1.700  -7.713  0.00  0.00    -0.050 A 
ATOM     26  C   UNL     1      -2.433   1.648  -8.078  0.00  0.00    +0.005 A 
ATOM     27  C   UNL     1      -3.415   1.621  -7.106  0.00  0.00    +0.029 A 
ATOM     28  C   UNL     1      -3.065   1.647  -5.769  0.00  0.00    +0.109 A 
ATOM     29  C   UNL     1      -1.733   1.705  -5.404  0.00  0.00    +0.029 A 
ATOM     30  C   UNL     1      -0.750   1.727  -6.376  0.00  0.00    +0.005 A 
ENDBRANCH  21  28
ENDBRANCH  19  21
ENDBRANCH   1  19
BRANCH   4  31
ATOM     31  O   UNL     1      -0.447  -2.623  -1.443  0.00  0.00    -0.505 OA
ATOM     32  H   UNL     1      -0.744  -3.386  -0.929  0.00  0.00    +0.292 HD
ENDBRANCH   4  31
TORSDOF 6
