REMARK  Name = ZINC39674651
REMARK  9 active torsions:
REMARK  status: ('A' for Active; 'I' for Inactive)
REMARK    1  A    between atoms: C_1  and  C_2
REMARK    2  A    between atoms: C_4  and  C_14
REMARK    3  A    between atoms: C_7  and  C_12
REMARK    4  A    between atoms: C_14  and  C_15
REMARK    5  A    between atoms: C_15  and  N_16
REMARK    6  A    between atoms: C_17  and  C_19
REMARK    7  A    between atoms: C_30  and  C_32
REMARK    8  A    between atoms: C_37  and  O_38
REMARK    9  A    between atoms: O_38  and  C_39
REMARK                            x       y       z     vdW  Elec       q    Type
REMARK                         _______ _______ _______ _____ _____    ______ ____
ROOT
ATOM      1  C   UNL     1       1.369  -1.003  -7.406  0.00  0.00    +0.100 C 
ATOM      2  C   UNL     1       1.321   0.512  -7.707  0.00  0.00    +0.121 C 
ATOM      3  N   UNL     1       2.660   0.827  -8.258  0.00  0.00    -0.296 N 
ATOM      4  C   UNL     1       2.988  -0.336  -9.117  0.00  0.00    +0.115 C 
ATOM      5  C   UNL     1       2.462  -1.556  -8.335  0.00  0.00    -0.004 C 
ATOM      6  C   UNL     1       3.587  -2.180  -7.515  0.00  0.00    -0.010 C 
ATOM      7  C   UNL     1       4.635  -2.773  -8.461  0.00  0.00    -0.082 C 
ATOM      8  N   UNL     1       4.005  -3.787  -9.317  0.00  0.00    +0.379 N 
ATOM      9  C   UNL     1       2.987  -3.160 -10.170  0.00  0.00    -0.082 C 
ATOM     10  C   UNL     1       1.871  -2.583  -9.295  0.00  0.00    -0.010 C 
ATOM     11  C   UNL     1       3.410   1.923  -8.029  0.00  0.00    +0.250 C 
ATOM     12  O   UNL     1       3.043   2.752  -7.218  0.00  0.00    -0.270 OA
ATOM     13  H   UNL     1       4.708  -4.219  -9.897  0.00  0.00    -0.086 HD
ATOM     14  H   UNL     1       3.571  -4.490  -8.739  0.00  0.00    -0.086 HD
ENDROOT
BRANCH  11  15
ATOM     15  C   UNL     1       4.675   2.118  -8.763  0.00  0.00    +0.078 A 
ATOM     16  C   UNL     1       4.790   1.694 -10.089  0.00  0.00    +0.017 A 
ATOM     17  C   UNL     1       5.975   1.879 -10.768  0.00  0.00    +0.001 A 
ATOM     18  C   UNL     1       7.053   2.483 -10.143  0.00  0.00    +0.004 A 
ATOM     19  C   UNL     1       6.952   2.906  -8.832  0.00  0.00    +0.046 A 
ATOM     20  C   UNL     1       5.766   2.733  -8.135  0.00  0.00    +0.132 A 
BRANCH  20  21
ATOM     21  O   UNL     1       5.664   3.153  -6.849  0.00  0.00    -0.494 OA
ATOM     22  C   UNL     1       6.817   3.772  -6.275  0.00  0.00    +0.277 C 
ENDBRANCH  20  21
ENDBRANCH  11  15
BRANCH   1  24
ATOM     23  N   UNL     1       1.272  -2.328  -5.319  0.00  0.00    -0.315 N 
ATOM     24  C   UNL     1       1.737  -1.239  -5.964  0.00  0.00    +0.218 C 
ATOM     25  O   UNL     1       2.452  -0.450  -5.383  0.00  0.00    -0.275 OA
ATOM     26  H   UNL     1       0.701  -2.959  -5.783  0.00  0.00    +0.149 HD
BRANCH  23  27
ATOM     27  C   UNL     1       1.631  -2.557  -3.917  0.00  0.00    +0.108 C 
BRANCH  27  28
ATOM     28  C   UNL     1       0.977  -3.852  -3.429  0.00  0.00    +0.052 C 
BRANCH  28  31
ATOM     29  C   UNL     1      -0.608  -5.271  -0.984  0.00  0.00    +0.035 C 
ATOM     30  C   UNL     1       0.916  -5.247  -1.117  0.00  0.00    +0.103 C 
ATOM     31  C   UNL     1       1.346  -4.088  -1.987  0.00  0.00    -0.037 C 
ATOM     32  C   UNL     1       2.130  -3.302  -1.206  0.00  0.00    +0.000 A 
ATOM     33  C   UNL     1       2.813  -2.086  -1.469  0.00  0.00    +0.028 A 
ATOM     34  C   UNL     1       3.555  -1.484  -0.480  0.00  0.00    +0.052 A 
ATOM     35  C   UNL     1       3.659  -2.069   0.852  0.00  0.00    +0.021 A 
ATOM     36  C   UNL     1       3.031  -3.222   1.160  0.00  0.00    +0.027 A 
ATOM     37  C   UNL     1       2.227  -3.907   0.141  0.00  0.00    +0.043 A 
ATOM     38  N   UNL     1       1.534  -5.020   0.193  0.00  0.00    -0.378 N 
ATOM     39  H   UNL     1       1.445  -5.596   0.968  0.00  0.00    +0.160 HD
BRANCH  34  40
ATOM     40  C   UNL     1       4.239  -0.257  -0.763  0.00  0.00    +0.099 C 
ATOM     41  N   UNL     1       4.781   0.715  -0.988  0.00  0.00    -0.191 NA
ENDBRANCH  34  40
ENDBRANCH  28  31
ENDBRANCH  27  28
ENDBRANCH  23  27
ENDBRANCH   1  24
TORSDOF 7
