REMARK  Name = ZINC63375060
REMARK  9 active torsions:
REMARK  status: ('A' for Active; 'I' for Inactive)
REMARK    1  A    between atoms: C_1  and  C_2
REMARK    2  A    between atoms: C_2  and  C_3
REMARK    3  A    between atoms: C_3  and  N_4
REMARK    4  A    between atoms: C_5  and  C_7
REMARK    5  A    between atoms: C_12  and  N_13
REMARK    6  A    between atoms: C_29  and  C_34
REMARK    7  A    between atoms: C_37  and  C_40
REMARK    8  A    between atoms: C_40  and  C_41
REMARK    9  A    between atoms: C_40  and  C_42
REMARK                            x       y       z     vdW  Elec       q    Type
REMARK                         _______ _______ _______ _____ _____    ______ ____
ROOT
ATOM      1  N   UNL     1       2.534  -4.085  -4.405  0.00  0.00    -0.192 N 
ATOM      2  C   UNL     1       3.826  -3.697  -4.429  0.00  0.00    +0.248 C 
ATOM      3  O   UNL     1       4.657  -3.863  -3.562  0.00  0.00    -0.273 OA
ATOM      4  C   UNL     1       4.024  -3.014  -5.765  0.00  0.00    +0.169 C 
ATOM      5  C   UNL     1       4.481  -1.561  -5.546  0.00  0.00    +0.065 C 
ATOM      6  C   UNL     1       4.076  -0.793  -6.782  0.00  0.00    -0.034 C 
ATOM      7  C   UNL     1       4.113   0.508  -7.045  0.00  0.00    -0.001 A 
ATOM      8  C   UNL     1       4.640   1.647  -6.275  0.00  0.00    +0.010 A 
ATOM      9  C   UNL     1       4.497   2.873  -6.846  0.00  0.00    +0.001 A 
ATOM     10  C   UNL     1       3.892   3.076  -8.090  0.00  0.00    +0.002 A 
ATOM     11  C   UNL     1       3.386   2.087  -8.868  0.00  0.00    +0.026 A 
ATOM     12  C   UNL     1       3.482   0.752  -8.378  0.00  0.00    +0.043 A 
ATOM     13  N   UNL     1       3.104  -0.370  -8.913  0.00  0.00    -0.375 N 
ATOM     14  C   UNL     1       3.493  -1.464  -8.020  0.00  0.00    +0.131 C 
ATOM     15  C   UNL     1       2.275  -2.276  -7.562  0.00  0.00    +0.135 C 
ATOM     16  N   UNL     1       2.664  -3.005  -6.344  0.00  0.00    -0.264 N 
ATOM     17  C   UNL     1       1.886  -3.715  -5.518  0.00  0.00    +0.317 C 
ATOM     18  O   UNL     1       0.725  -3.990  -5.748  0.00  0.00    -0.252 OA
ATOM     19  H   UNL     1       2.642  -0.467  -9.761  0.00  0.00    +0.160 HD
ENDROOT
BRANCH   1  25
ATOM     20  C   UNL     1       1.341  -4.098  -2.293  0.00  0.00    +0.059 A 
ATOM     21  C   UNL     1       0.752  -4.814  -1.249  0.00  0.00    +0.015 A 
ATOM     22  C   UNL     1       0.774  -6.192  -1.262  0.00  0.00    +0.001 A 
ATOM     23  C   UNL     1       1.378  -6.872  -2.307  0.00  0.00    +0.002 A 
ATOM     24  C   UNL     1       1.964  -6.177  -3.346  0.00  0.00    +0.025 A 
ATOM     25  C   UNL     1       1.946  -4.789  -3.352  0.00  0.00    +0.058 A 
BRANCH  20  27
ATOM     26  N   UNL     1       0.738  -1.962  -1.265  0.00  0.00    -0.311 N 
ATOM     27  C   UNL     1       1.321  -2.623  -2.285  0.00  0.00    +0.246 C 
ATOM     28  O   UNL     1       1.831  -2.003  -3.198  0.00  0.00    -0.270 OA
ATOM     29  H   UNL     1       0.332  -2.457  -0.536  0.00  0.00    +0.149 HD
BRANCH  26  30
ATOM     30  C   UNL     1       0.718  -0.497  -1.257  0.00  0.00    +0.104 C 
BRANCH  30  32
ATOM     31  C   UNL     1      -0.019   1.526   0.010  0.00  0.00    +0.005 C 
ATOM     32  C   UNL     1       0.002  -0.004   0.002  0.00  0.00    +0.015 C 
ENDBRANCH  30  32
ENDBRANCH  26  30
ENDBRANCH  20  27
ENDBRANCH   1  25
BRANCH  15  33
ATOM     33  C   UNL     1       1.118  -1.352  -7.281  0.00  0.00    -0.025 A 
ATOM     34  C   UNL     1       1.061  -0.658  -6.087  0.00  0.00    +0.006 A 
ATOM     35  C   UNL     1       0.000   0.190  -5.830  0.00  0.00    +0.004 A 
ATOM     36  C   UNL     1      -1.004   0.344  -6.767  0.00  0.00    -0.045 A 
ATOM     37  C   UNL     1      -0.947  -0.349  -7.962  0.00  0.00    +0.004 A 
ATOM     38  C   UNL     1       0.116  -1.193  -8.221  0.00  0.00    +0.006 A 
BRANCH  36  39
ATOM     39  C   UNL     1      -2.161   1.268  -6.486  0.00  0.00    +0.013 C 
ATOM     40  C   UNL     1      -2.209   2.365  -7.552  0.00  0.00    +0.012 C 
ATOM     41  C   UNL     1      -3.468   0.472  -6.515  0.00  0.00    +0.012 C 
ENDBRANCH  36  39
ENDBRANCH  15  33
TORSDOF 6
