REMARK  Name = ZINC06443966
REMARK  9 active torsions:
REMARK  status: ('A' for Active; 'I' for Inactive)
REMARK    1  A    between atoms: C_1  and  C_2
REMARK    2  A    between atoms: C_12  and  C_14
REMARK    3  A    between atoms: C_14  and  C_16
REMARK    4  A    between atoms: C_14  and  N_70
REMARK    5  A    between atoms: N_20  and  C_21
REMARK    6  A    between atoms: C_27  and  C_28
REMARK    7  A    between atoms: C_27  and  N_70
REMARK    8  A    between atoms: C_34  and  C_35
REMARK    9  A    between atoms: C_34  and  N_70
REMARK                            x       y       z     vdW  Elec       q    Type
REMARK                         _______ _______ _______ _____ _____    ______ ____
ROOT
ATOM      1  C   UNL     1       0.225  -2.204   4.616  0.00  0.00    +0.040 C 
ENDROOT
BRANCH   1  13
ATOM      2  C   UNL     1      -2.485   0.945  -0.477  0.00  0.00    +0.046 C 
ATOM      3  C   UNL     1      -1.737  -0.360  -0.398  0.00  0.00    -0.026 A 
ATOM      4  C   UNL     1      -1.533  -1.111  -1.536  0.00  0.00    +0.005 A 
ATOM      5  C   UNL     1      -0.841  -2.312  -1.478  0.00  0.00    +0.001 A 
ATOM      6  C   UNL     1      -0.359  -2.780  -0.288  0.00  0.00    +0.010 A 
ATOM      7  C   UNL     1      -0.559  -2.038   0.881  0.00  0.00    -0.001 A 
ATOM      8  C   UNL     1      -1.255  -0.816   0.825  0.00  0.00    +0.052 A 
ATOM      9  N   UNL     1      -1.449  -0.089   1.980  0.00  0.00    -0.322 N 
ATOM     10  H   UNL     1      -1.929   0.753   1.939  0.00  0.00    +0.169 HD
ATOM     11  C   UNL     1      -0.984  -0.530   3.161  0.00  0.00    +0.251 A 
ATOM     12  O   UNL     1      -1.174   0.139   4.162  0.00  0.00    -0.268 OA
ATOM     13  C   UNL     1      -0.279  -1.748   3.272  0.00  0.00    +0.011 A 
ATOM     14  C   UNL     1      -0.055  -2.509   2.172  0.00  0.00    +0.017 A 
ENDBRANCH   1  13
BRANCH   1  15
ATOM     15  C   UNL     1      -0.934  -2.337   5.569  0.00  0.00    +0.143 A 
ATOM     16  N   UNL     1      -1.504  -1.372   6.249  0.00  0.00    -0.115 NA
ATOM     17  N   UNL     1      -2.457  -1.886   6.948  0.00  0.00    -0.023 NA
ATOM     18  N   UNL     1      -2.509  -3.154   6.732  0.00  0.00    -0.044 NA
ATOM     19  N   UNL     1      -1.590  -3.470   5.884  0.00  0.00    -0.227 N 
BRANCH  19  20
ATOM     20  C   UNL     1      -1.311  -4.811   5.363  0.00  0.00    +0.111 C 
ATOM     21  C   UNL     1      -2.507  -5.300   4.545  0.00  0.00    +0.027 C 
ATOM     22  C   UNL     1      -2.216  -6.700   4.001  0.00  0.00    +0.002 C 
ATOM     23  C   UNL     1      -1.969  -7.659   5.168  0.00  0.00    +0.000 C 
ATOM     24  C   UNL     1      -0.772  -7.170   5.986  0.00  0.00    +0.002 C 
ATOM     25  C   UNL     1      -1.064  -5.769   6.529  0.00  0.00    +0.027 C 
ENDBRANCH  19  20
ENDBRANCH   1  15
BRANCH   1  26
ATOM     26  N   UNL     1       1.165  -1.195   5.147  0.00  0.00    +0.397 N 
ATOM     27  H   UNL     1       0.643  -0.340   5.374  0.00  0.00    -0.079 HD
BRANCH  26  28
ATOM     28  C   UNL     1       1.810  -1.703   6.376  0.00  0.00    -0.041 C 
BRANCH  28  29
ATOM     29  C   UNL     1       0.861  -1.516   7.532  0.00  0.00    -0.064 A 
ATOM     30  C   UNL     1       0.608  -0.248   8.021  0.00  0.00    +0.002 A 
ATOM     31  C   UNL     1      -0.267  -0.077   9.077  0.00  0.00    +0.000 A 
ATOM     32  C   UNL     1      -0.880  -1.175   9.652  0.00  0.00    +0.000 A 
ATOM     33  C   UNL     1      -0.623  -2.443   9.166  0.00  0.00    +0.000 A 
ATOM     34  C   UNL     1       0.247  -2.614   8.106  0.00  0.00    +0.002 A 
ENDBRANCH  28  29
ENDBRANCH  26  28
BRANCH  26  35
ATOM     35  C   UNL     1       2.191  -0.876   4.133  0.00  0.00    -0.001 C 
BRANCH  35  36
ATOM     36  C   UNL     1       1.779   0.383   3.414  0.00  0.00    +0.089 A 
ATOM     37  C   UNL     1       1.972   1.639   3.855  0.00  0.00    +0.042 A 
ATOM     38  C   UNL     1       1.434   2.504   2.875  0.00  0.00    +0.041 A 
ATOM     39  C   UNL     1       0.945   1.725   1.894  0.00  0.00    +0.195 A 
ATOM     40  O   UNL     1       1.161   0.441   2.223  0.00  0.00    -0.470 OA
ENDBRANCH  35  36
ENDBRANCH  26  35
ENDBRANCH   1  26
TORSDOF 8
