REMARK  Name = ZINC13427345
REMARK  6 active torsions:
REMARK  status: ('A' for Active; 'I' for Inactive)
REMARK    1  A    between atoms: C_1  and  C_2
REMARK    2  A    between atoms: C_5  and  C_8
REMARK    3  A    between atoms: C_8  and  C_10
REMARK    4  A    between atoms: C_12  and  C_24
REMARK    5  A    between atoms: C_18  and  C_19
REMARK    6  A    between atoms: C_18  and  O_23
REMARK                            x       y       z     vdW  Elec       q    Type
REMARK                         _______ _______ _______ _____ _____    ______ ____
ROOT
ATOM      1  C   UNL     1       3.283   3.917  -1.515  0.00  0.00    +0.144 C 
ATOM      2  C   UNL     1       2.443   4.154  -0.256  0.00  0.00    +0.120 C 
ATOM      3  N   UNL     1       3.059   3.453   0.872  0.00  0.00    -0.292 N 
ATOM      4  C   UNL     1       4.383   3.242   0.923  0.00  0.00    +0.302 C 
ATOM      5  O   UNL     1       4.845   2.664   1.887  0.00  0.00    -0.253 OA
ATOM      6  N   UNL     1       5.216   3.642  -0.049  0.00  0.00    -0.264 N 
ATOM      7  C   UNL     1       4.724   4.354  -1.229  0.00  0.00    +0.243 C 
ATOM      8  H   UNL     1       2.499   3.136   1.597  0.00  0.00    +0.151 HD
ATOM      9  H   UNL     1       6.165   3.457   0.033  0.00  0.00    +0.153 HD
ENDROOT
BRANCH   2  10
ATOM     10  C   UNL     1       1.048   3.627  -0.475  0.00  0.00    -0.023 A 
ATOM     11  C   UNL     1       0.769   2.295  -0.236  0.00  0.00    +0.009 A 
ATOM     12  C   UNL     1      -0.509   1.807  -0.435  0.00  0.00    +0.050 A 
ATOM     13  C   UNL     1      -1.513   2.652  -0.880  0.00  0.00    +0.166 A 
ATOM     14  C   UNL     1      -1.232   3.996  -1.117  0.00  0.00    +0.167 A 
ATOM     15  C   UNL     1       0.051   4.478  -0.914  0.00  0.00    +0.055 A 
ATOM     16  O   UNL     1      -2.375   4.612  -1.539  0.00  0.00    -0.453 OA
ATOM     17  C   UNL     1      -3.449   3.730  -1.163  0.00  0.00    +0.466 C 
ATOM     18  O   UNL     1      -2.833   2.429  -1.147  0.00  0.00    -0.453 OA
ENDBRANCH   2  10
BRANCH   7  19
ATOM     19  C   UNL     1       5.607   4.022  -2.433  0.00  0.00    +0.436 C 
ATOM     20  F   UNL     1       5.066   4.606  -3.584  0.00  0.00    -0.166 F 
ATOM     21  F   UNL     1       6.896   4.523  -2.219  0.00  0.00    -0.166 F 
ATOM     22  F   UNL     1       5.668   2.634  -2.599  0.00  0.00    -0.166 F 
ENDBRANCH   7  19
BRANCH   1  23
ATOM     23  C   UNL     1       3.260   2.453  -1.871  0.00  0.00    +0.173 C 
ATOM     24  O   UNL     1       3.730   1.636  -1.109  0.00  0.00    -0.292 OA
BRANCH  23  29
ATOM     25  C   UNL     1       0.941   0.743  -6.846  0.00  0.00    +0.044 C 
ATOM     26  C   UNL     1       1.549   1.191  -5.542  0.00  0.00    -0.050 A 
ATOM     27  C   UNL     1       2.173   0.269  -4.720  0.00  0.00    +0.004 A 
ATOM     28  C   UNL     1       2.732   0.671  -3.526  0.00  0.00    +0.011 A 
ATOM     29  C   UNL     1       2.666   2.015  -3.145  0.00  0.00    +0.018 A 
ATOM     30  C   UNL     1       2.028   2.940  -3.977  0.00  0.00    +0.011 A 
ATOM     31  C   UNL     1       1.479   2.523  -5.172  0.00  0.00    +0.004 A 
ENDBRANCH  23  29
ENDBRANCH   1  23
BRANCH   7  32
ATOM     32  O   UNL     1       4.757   5.762  -0.986  0.00  0.00    -0.364 OA
ATOM     33  H   UNL     1       5.640   6.108  -0.798  0.00  0.00    +0.212 HD
ENDBRANCH   7  32
TORSDOF 5
