REMARK  Name = ZINC27519627
REMARK  5 active torsions:
REMARK  status: ('A' for Active; 'I' for Inactive)
REMARK    1  A    between atoms: C_4  and  C_7
REMARK    2  A    between atoms: N_9  and  C_10
REMARK    3  A    between atoms: C_13  and  N_17
REMARK    4  A    between atoms: C_18  and  C_20
REMARK    5  A    between atoms: C_22  and  N_27
REMARK                            x       y       z     vdW  Elec       q    Type
REMARK                         _______ _______ _______ _____ _____    ______ ____
ROOT
ATOM      1  C   UNL     1       6.108  -0.609   0.007  0.00  0.00    +0.048 A 
ATOM      2  C   UNL     1       6.181  -1.996   0.003  0.00  0.00    +0.026 A 
ATOM      3  C   UNL     1       7.408  -2.623   0.082  0.00  0.00    +0.025 A 
ATOM      4  C   UNL     1       8.570  -1.867   0.168  0.00  0.00    +0.035 A 
ATOM      5  C   UNL     1       8.498  -0.480   0.174  0.00  0.00    +0.040 A 
ATOM      6  C   UNL     1       7.270   0.148   0.087  0.00  0.00    +0.041 A 
ATOM      7 BR   UNL     1       7.172   2.036   0.085  0.00  0.00    -0.048 Br
ENDROOT
BRANCH   1  10
ATOM      8  C   UNL     1       3.784  -0.526   0.515  0.00  0.00    +0.248 C 
ATOM      9  O   UNL     1       3.873  -1.617   1.045  0.00  0.00    -0.270 OA
ATOM     10  N   UNL     1       4.863   0.027  -0.074  0.00  0.00    -0.281 N 
ATOM     11  H   UNL     1       4.765   0.978  -0.618  0.00  0.00    +0.155 HD
BRANCH   8  15
ATOM     12  C   UNL     1       0.073   1.540   0.517  0.00  0.00    +0.000 A 
ATOM     13  C   UNL     1       1.179   2.111  -0.088  0.00  0.00    +0.001 A 
ATOM     14  C   UNL     1       2.387   1.445  -0.092  0.00  0.00    +0.013 A 
ATOM     15  C   UNL     1       2.493   0.193   0.516  0.00  0.00    +0.037 A 
ATOM     16  C   UNL     1       1.373  -0.377   1.125  0.00  0.00    +0.013 A 
ATOM     17  C   UNL     1       0.171   0.300   1.122  0.00  0.00    +0.001 A 
ENDBRANCH   8  15
ENDBRANCH   1  10
BRANCH   4  18
ATOM     18  N   UNL     1       9.815  -2.503   0.249  0.00  0.00    -0.281 N 
ATOM     19  C   UNL     1      10.800  -1.964   0.994  0.00  0.00    +0.250 C 
ATOM     20  O   UNL     1      10.637  -0.884   1.528  0.00  0.00    -0.270 OA
ATOM     21  H   UNL     1       9.988  -3.443  -0.296  0.00  0.00    +0.155 HD
BRANCH  19  22
ATOM     22  C   UNL     1      12.079  -2.685   1.161  0.00  0.00    +0.057 A 
ATOM     23  C   UNL     1      12.270  -3.925   0.549  0.00  0.00    +0.047 A 
ATOM     24  C   UNL     1      13.465  -4.593   0.709  0.00  0.00    +0.127 A 
ATOM     25  C   UNL     1      14.476  -4.037   1.474  0.00  0.00    +0.034 A 
ATOM     26  C   UNL     1      14.295  -2.809   2.084  0.00  0.00    +0.023 A 
ATOM     27  C   UNL     1      13.104  -2.126   1.928  0.00  0.00    +0.053 A 
ATOM     28 CL   UNL     1      12.880  -0.582   2.688  0.00  0.00    -0.083 Cl
BRANCH  24  29
ATOM     29  N   UNL     1      13.669  -5.908   0.061  0.00  0.00    +0.056 N 
ATOM     30  O   UNL     1      12.781  -6.399  -0.613  0.00  0.00    -0.126 OA
ATOM     31  O   UNL     1      14.725  -6.499   0.201  0.00  0.00    -0.126 OA
ENDBRANCH  24  29
ENDBRANCH  19  22
ENDBRANCH   4  18
TORSDOF 5
