REMARK  Name = ZINC08868871
REMARK  4 active torsions:
REMARK  status: ('A' for Active; 'I' for Inactive)
REMARK    1  A    between atoms: C_3  and  C_6
REMARK    2  A    between atoms: C_7  and  C_25
REMARK    3  A    between atoms: C_7  and  C_29
REMARK    4  A    between atoms: N_15  and  C_18
REMARK                            x       y       z     vdW  Elec       q    Type
REMARK                         _______ _______ _______ _____ _____    ______ ____
ROOT
ATOM      1  C   UNL     1       0.916   5.382  -1.802  0.00  0.00    +0.142 C 
ATOM      2  C   UNL     1       1.883   3.237  -1.225  0.00  0.00    +0.264 C 
ATOM      3  C   UNL     1       0.765   3.131  -0.228  0.00  0.00    +0.098 A 
ATOM      4  C   UNL     1       0.753   2.089   0.715  0.00  0.00    +0.262 A 
ATOM      5  O   UNL     1       1.656   1.270   0.737  0.00  0.00    -0.267 OA
ATOM      6  N   UNL     1      -0.264   2.003   1.596  0.00  0.00    -0.274 N 
ATOM      7  H   UNL     1      -0.273   1.265   2.271  0.00  0.00    +0.173 HD
ATOM      8  C   UNL     1      -1.266   2.900   1.576  0.00  0.00    +0.335 A 
ATOM      9  O   UNL     1      -2.177   2.797   2.376  0.00  0.00    -0.246 OA
ATOM     10  N   UNL     1      -1.274   3.911   0.688  0.00  0.00    -0.250 N 
ATOM     11  C   UNL     1      -0.255   4.036  -0.225  0.00  0.00    +0.124 A 
ATOM     12  N   UNL     1      -0.253   5.066  -1.136  0.00  0.00    -0.284 N 
ATOM     13  H   UNL     1      -1.066   5.566  -1.310  0.00  0.00    +0.155 HD
ATOM     14  N   UNL     1       1.989   4.582  -1.894  0.00  0.00    -0.346 N 
ATOM     15  H   UNL     1       2.838   4.871  -2.393  0.00  0.00    +0.162 HD
ENDROOT
BRANCH  10  16
ATOM     16  C   UNL     1      -2.327   4.837   0.691  0.00  0.00    +0.053 A 
ATOM     17  C   UNL     1      -2.235   5.992   1.455  0.00  0.00    +0.029 A 
ATOM     18  C   UNL     1      -3.271   6.905   1.453  0.00  0.00    +0.040 A 
ATOM     19  C   UNL     1      -4.406   6.663   0.697  0.00  0.00    +0.124 A 
ATOM     20  C   UNL     1      -4.502   5.509  -0.062  0.00  0.00    +0.040 A 
ATOM     21  C   UNL     1      -3.466   4.596  -0.066  0.00  0.00    +0.029 A 
ATOM     22  F   UNL     1      -5.421   7.555   0.700  0.00  0.00    -0.205 F 
ENDBRANCH  10  16
BRANCH   1  25
ATOM     23  C   UNL     1       1.792   8.423  -3.632  0.00  0.00    +0.042 A 
ATOM     24  C   UNL     1       2.118   7.139  -3.161  0.00  0.00    +0.053 A 
ATOM     25  C   UNL     1       1.032   6.686  -2.473  0.00  0.00    +0.165 A 
ATOM     26  O   UNL     1       0.085   7.645  -2.510  0.00  0.00    -0.460 OA
ATOM     27  C   UNL     1       0.540   8.694  -3.208  0.00  0.00    +0.196 A 
ENDBRANCH   1  25
BRANCH   2  28
ATOM     28  C   UNL     1       3.214   2.988  -0.513  0.00  0.00    +0.426 C 
ATOM     29  F   UNL     1       3.361   1.619  -0.265  0.00  0.00    -0.167 F 
ATOM     30  F   UNL     1       4.266   3.431  -1.323  0.00  0.00    -0.167 F 
ATOM     31  F   UNL     1       3.233   3.687   0.699  0.00  0.00    -0.167 F 
ENDBRANCH   2  28
BRANCH   2  32
ATOM     32  C   UNL     1       1.690   2.174  -2.309  0.00  0.00    +0.426 C 
ATOM     33  F   UNL     1       0.465   2.381  -2.952  0.00  0.00    -0.167 F 
ATOM     34  F   UNL     1       2.728   2.267  -3.243  0.00  0.00    -0.167 F 
ATOM     35  F   UNL     1       1.701   0.904  -1.724  0.00  0.00    -0.167 F 
ENDBRANCH   2  32
TORSDOF 4
