REMARK  Name = ZINC09367446
REMARK  6 active torsions:
REMARK  status: ('A' for Active; 'I' for Inactive)
REMARK    1  A    between atoms: C_1  and  C_2
REMARK    2  A    between atoms: C_5  and  C_8
REMARK    3  A    between atoms: C_12  and  C_13
REMARK    4  A    between atoms: N_15  and  C_16
REMARK    5  A    between atoms: C_19  and  S_22
REMARK    6  A    between atoms: S_22  and  N_25
REMARK                            x       y       z     vdW  Elec       q    Type
REMARK                         _______ _______ _______ _____ _____    ______ ____
ROOT
ATOM      1  C   UNL     1       2.121   4.209  -0.163  0.00  0.00    +0.255 C 
ATOM      2  O   UNL     1       3.284   3.889  -0.331  0.00  0.00    -0.269 OA
ATOM      3  N   UNL     1       1.798   5.505   0.013  0.00  0.00    -0.281 N 
ATOM      4  H   UNL     1       0.866   5.770   0.070  0.00  0.00    +0.155 HD
ENDROOT
BRANCH   3   5
ATOM      5  C   UNL     1       2.805   6.470   0.114  0.00  0.00    +0.034 A 
ATOM      6  C   UNL     1       4.018   6.150   0.711  0.00  0.00    +0.025 A 
ATOM      7  C   UNL     1       5.013   7.103   0.805  0.00  0.00    +0.030 A 
ATOM      8  C   UNL     1       4.799   8.378   0.314  0.00  0.00    +0.109 A 
ATOM      9  C   UNL     1       3.592   8.701  -0.278  0.00  0.00    +0.030 A 
ATOM     10  C   UNL     1       2.594   7.751  -0.379  0.00  0.00    +0.025 A 
BRANCH   8  11
ATOM     11  S   UNL     1       6.069   9.593   0.441  0.00  0.00    +0.074 S 
ATOM     12  O   UNL     1       7.298   8.887   0.543  0.00  0.00    -0.150 OA
ATOM     13  O   UNL     1       5.821  10.548  -0.581  0.00  0.00    -0.150 OA
BRANCH  11  14
ATOM     14  N   UNL     1       5.852  10.377   1.884  0.00  0.00    -0.194 N 
ATOM     15  C   UNL     1       6.004   9.688   3.077  0.00  0.00    +0.177 A 
ATOM     16  N   UNL     1       6.308   8.419   3.268  0.00  0.00    -0.232 NA
ATOM     17  C   UNL     1       6.418   7.918   4.484  0.00  0.00    +0.120 A 
ATOM     18  C   UNL     1       6.199   8.737   5.541  0.00  0.00    +0.068 A 
ATOM     19  S   UNL     1       5.834  10.272   4.703  0.00  0.00    -0.059 S 
ATOM     20  H   UNL     1       5.620  11.319   1.894  0.00  0.00    +0.176 HD
ENDBRANCH  11  14
ENDBRANCH   8  11
ENDBRANCH   3   5
BRANCH   1  25
ATOM     21  C   UNL     1       1.193   1.803  -0.315  0.00  0.00    +0.001 A 
ATOM     22  C   UNL     1       0.020   1.071  -0.260  0.00  0.00    +0.017 A 
ATOM     23  C   UNL     1      -1.154   1.717  -0.061  0.00  0.00    +0.046 A 
ATOM     24  S   UNL     1      -0.684   3.380   0.069  0.00  0.00    -0.091 S 
ATOM     25  C   UNL     1       1.075   3.187  -0.153  0.00  0.00    +0.082 A 
BRANCH  21  30
ATOM     26  C   UNL     1       6.297  -0.720  -1.174  0.00  0.00    +0.044 C 
ATOM     27  C   UNL     1       4.961  -0.059  -0.949  0.00  0.00    -0.050 A 
ATOM     28  C   UNL     1       4.109  -0.543   0.028  0.00  0.00    +0.004 A 
ATOM     29  C   UNL     1       2.885   0.057   0.238  0.00  0.00    +0.009 A 
ATOM     30  C   UNL     1       2.507   1.154  -0.536  0.00  0.00    -0.017 A 
ATOM     31  C   UNL     1       3.368   1.634  -1.522  0.00  0.00    +0.009 A 
ATOM     32  C   UNL     1       4.592   1.028  -1.720  0.00  0.00    +0.004 A 
ENDBRANCH  21  30
ENDBRANCH   1  25
TORSDOF 5
