REMARK  Name = ZINC13496511
REMARK  9 active torsions:
REMARK  status: ('A' for Active; 'I' for Inactive)
REMARK    1  A    between atoms: C_3  and  C_6
REMARK    2  A    between atoms: C_7  and  C_8
REMARK    3  A    between atoms: C_8  and  O_10
REMARK    4  A    between atoms: O_10  and  C_11
REMARK    5  A    between atoms: C_16  and  C_17
REMARK    6  A    between atoms: N_18  and  N_19
REMARK    7  A    between atoms: C_20  and  C_22
REMARK    8  A    between atoms: C_22  and  N_23
REMARK    9  A    between atoms: C_24  and  C_26
REMARK                            x       y       z     vdW  Elec       q    Type
REMARK                         _______ _______ _______ _____ _____    ______ ____
ROOT
ATOM      1  C   UNL     1       7.750  -4.185  -0.203  0.00  0.00    +0.142 C 
ATOM      2  N   UNL     1       6.457  -4.301  -0.198  0.00  0.00    -0.188 NA
ENDROOT
BRANCH   1   8
ATOM      3  C   UNL     1       7.568  -1.702  -0.073  0.00  0.00    +0.141 A 
ATOM      4  C   UNL     1       8.161  -0.452  -0.008  0.00  0.00    +0.048 A 
ATOM      5  C   UNL     1       9.538  -0.337  -0.014  0.00  0.00    +0.019 A 
ATOM      6  C   UNL     1      10.335  -1.467  -0.084  0.00  0.00    +0.019 A 
ATOM      7  C   UNL     1       9.761  -2.720  -0.149  0.00  0.00    +0.028 A 
ATOM      8  C   UNL     1       8.370  -2.850  -0.139  0.00  0.00    +0.038 A 
ATOM      9 BR   UNL     1      12.218  -1.293  -0.092  0.00  0.00    -0.050 Br
BRANCH   3  10
ATOM     10  O   UNL     1       6.215  -1.816  -0.068  0.00  0.00    -0.422 OA
BRANCH  10  11
ATOM     11  C   UNL     1       5.598  -1.993   1.120  0.00  0.00    +0.337 C 
ATOM     12  O   UNL     1       6.258  -2.142   2.132  0.00  0.00    -0.245 OA
BRANCH  11  14
ATOM     13  C   UNL     1       3.567  -2.181   2.384  0.00  0.00    +0.053 C 
ATOM     14  C   UNL     1       4.187  -2.004   1.189  0.00  0.00    +0.095 C 
BRANCH  13  17
ATOM     15  C   UNL     1       0.053  -2.303   3.194  0.00  0.00    +0.042 A 
ATOM     16  C   UNL     1       1.396  -2.361   3.594  0.00  0.00    +0.049 A 
ATOM     17  C   UNL     1       2.153  -2.192   2.453  0.00  0.00    +0.128 A 
ATOM     18  O   UNL     1       1.305  -2.038   1.414  0.00  0.00    -0.464 OA
ATOM     19  C   UNL     1       0.042  -2.104   1.856  0.00  0.00    +0.195 A 
ENDBRANCH  13  17
ENDBRANCH  11  14
ENDBRANCH  10  11
ENDBRANCH   3  10
ENDBRANCH   1   8
BRANCH   2  20
ATOM     20  N   UNL     1       5.867  -5.570  -0.258  0.00  0.00    -0.206 N 
ATOM     21  C   UNL     1       4.525  -5.691  -0.254  0.00  0.00    +0.249 C 
ATOM     22  O   UNL     1       3.828  -4.700  -0.197  0.00  0.00    -0.272 OA
ATOM     23  H   UNL     1       6.425  -6.363  -0.304  0.00  0.00    +0.177 HD
BRANCH  21  24
ATOM     24  C   UNL     1       3.891  -7.056  -0.319  0.00  0.00    +0.202 C 
BRANCH  24  25
ATOM     25  N   UNL     1       2.432  -6.919  -0.299  0.00  0.00    -0.303 N 
ATOM     26  C   UNL     1       1.651  -8.016  -0.350  0.00  0.00    +0.244 C 
ATOM     27  O   UNL     1       2.157  -9.120  -0.411  0.00  0.00    -0.270 OA
ATOM     28  H   UNL     1       2.029  -6.038  -0.251  0.00  0.00    +0.150 HD
BRANCH  26  29
ATOM     29  C   UNL     1       0.181  -7.877  -0.330  0.00  0.00    +0.037 A 
ATOM     30  C   UNL     1      -0.403  -6.610  -0.266  0.00  0.00    +0.016 A 
ATOM     31  C   UNL     1      -1.775  -6.486  -0.248  0.00  0.00    +0.039 A 
ATOM     32  C   UNL     1      -2.577  -7.617  -0.293  0.00  0.00    +0.123 A 
ATOM     33  C   UNL     1      -2.003  -8.877  -0.357  0.00  0.00    +0.039 A 
ATOM     34  C   UNL     1      -0.631  -9.012  -0.382  0.00  0.00    +0.016 A 
ATOM     35  F   UNL     1      -3.922  -7.490  -0.275  0.00  0.00    -0.205 F 
ENDBRANCH  26  29
ENDBRANCH  24  25
ENDBRANCH  21  24
ENDBRANCH   2  20
TORSDOF 9
