REMARK  Name = ZINC22762423
REMARK  8 active torsions:
REMARK  status: ('A' for Active; 'I' for Inactive)
REMARK    1  A    between atoms: C_1  and  C_2
REMARK    2  A    between atoms: C_5  and  N_9
REMARK    3  A    between atoms: C_6  and  C_8
REMARK    4  A    between atoms: C_13  and  C_15
REMARK    5  A    between atoms: C_15  and  C_17
REMARK    6  A    between atoms: C_15  and  S_18
REMARK    7  A    between atoms: S_18  and  C_19
REMARK    8  A    between atoms: N_24  and  C_25
REMARK                            x       y       z     vdW  Elec       q    Type
REMARK                         _______ _______ _______ _____ _____    ______ ____
ROOT
ATOM      1  N   UNL     1      -5.305   1.810  -0.189  0.00  0.00    -0.269 N 
ATOM      2  C   UNL     1      -4.355   1.199   0.546  0.00  0.00    +0.310 C 
ATOM      3  O   UNL     1      -4.641   0.233   1.226  0.00  0.00    -0.252 OA
ATOM      4  N   UNL     1      -3.088   1.658   0.527  0.00  0.00    -0.239 N 
ATOM      5  C   UNL     1      -2.138   1.046   1.262  0.00  0.00    +0.233 C 
ATOM      6  O   UNL     1      -2.423   0.083   1.940  0.00  0.00    -0.274 OA
ATOM      7  H   UNL     1      -5.068   2.737  -0.731  0.00  0.00    +0.156 HD
ATOM      8  H   UNL     1      -2.829   2.532  -0.089  0.00  0.00    +0.159 HD
ENDROOT
BRANCH   1  13
ATOM      9  C   UNL     1     -10.522  -0.397  -0.484  0.00  0.00    +0.044 C 
ATOM     10  C   UNL     1      -9.136   0.189  -0.406  0.00  0.00    -0.050 A 
ATOM     11  C   UNL     1      -8.057  -0.627  -0.120  0.00  0.00    +0.005 A 
ATOM     12  C   UNL     1      -6.786  -0.093  -0.047  0.00  0.00    +0.024 A 
ATOM     13  C   UNL     1      -6.592   1.266  -0.262  0.00  0.00    +0.038 A 
ATOM     14  C   UNL     1      -7.678   2.083  -0.544  0.00  0.00    -0.029 A 
ATOM     15  C   UNL     1      -8.947   1.542  -0.620  0.00  0.00    +0.008 A 
ATOM     16  C   UNL     1      -7.473   3.559  -0.771  0.00  0.00    +0.045 C 
ENDBRANCH   1  13
BRANCH   5  17
ATOM     17  C   UNL     1      -0.721   1.560   1.240  0.00  0.00    +0.136 C 
ATOM     18  C   UNL     1      -0.016   1.056  -0.021  0.00  0.00    +0.029 C 
BRANCH  17  19
ATOM     19  S   UNL     1       0.162   0.961   2.707  0.00  0.00    -0.084 S 
BRANCH  19  20
ATOM     20  C   UNL     1       1.731   1.755   2.614  0.00  0.00    +0.161 A 
ATOM     21  N   UNL     1       2.193   2.590   1.702  0.00  0.00    -0.133 NA
ATOM     22  N   UNL     1       3.463   3.104   1.826  0.00  0.00    -0.125 NA
ATOM     23  C   UNL     1       4.218   2.751   2.848  0.00  0.00    +0.183 A 
ATOM     24  S   UNL     1       3.126   1.640   3.724  0.00  0.00    -0.025 S 
ATOM     25  N   UNL     1       5.515   3.139   3.161  0.00  0.00    -0.319 N 
ATOM     26  H   UNL     1       6.004   2.745   4.064  0.00  0.00    +0.148 HD
BRANCH  25  27
ATOM     27  C   UNL     1       6.231   4.073   2.288  0.00  0.00    +0.072 C 
ATOM     28  C   UNL     1       7.692   3.757   1.963  0.00  0.00    +0.024 C 
ATOM     29  C   UNL     1       7.351   4.907   2.913  0.00  0.00    +0.024 C 
ENDBRANCH  25  27
ENDBRANCH  19  20
ENDBRANCH  17  19
ENDBRANCH   5  17
TORSDOF 5
