REMARK  Name = ZINC39657189
REMARK  7 active torsions:
REMARK  status: ('A' for Active; 'I' for Inactive)
REMARK    1  A    between atoms: C_1  and  C_2
REMARK    2  A    between atoms: C_5  and  C_8
REMARK    3  A    between atoms: C_8  and  C_9
REMARK    4  A    between atoms: C_13  and  C_22
REMARK    5  A    between atoms: N_24  and  C_25
REMARK    6  A    between atoms: C_25  and  C_27
REMARK    7  A    between atoms: C_25  and  C_28
REMARK                            x       y       z     vdW  Elec       q    Type
REMARK                         _______ _______ _______ _____ _____    ______ ____
ROOT
ATOM      1  C   UNL     1       1.635  -4.775  -0.000  0.00  0.00    +0.220 C 
ATOM      2  O   UNL     1       2.564  -3.997  -0.052  0.00  0.00    -0.275 OA
ATOM      3  N   UNL     1       1.865  -6.103  -0.041  0.00  0.00    -0.300 N 
ATOM      4  C   UNL     1       0.869  -7.199   0.003  0.00  0.00    +0.121 C 
ATOM      5  C   UNL     1       1.397  -8.247  -1.002  0.00  0.00    +0.100 C 
ATOM      6  C   UNL     1       2.909  -7.979  -1.090  0.00  0.00    -0.004 C 
ATOM      7  C   UNL     1       3.171  -6.796  -0.147  0.00  0.00    +0.115 C 
ATOM      8  C   UNL     1       3.691  -9.206  -0.631  0.00  0.00    -0.010 C 
ATOM      9  C   UNL     1       5.190  -8.935  -0.783  0.00  0.00    -0.082 C 
ATOM     10  N   UNL     1       5.496  -8.633  -2.186  0.00  0.00    +0.379 N 
ATOM     11  C   UNL     1       4.812  -7.399  -2.592  0.00  0.00    -0.082 C 
ATOM     12  C   UNL     1       3.297  -7.604  -2.518  0.00  0.00    -0.010 C 
ATOM     13  H   UNL     1       6.492  -8.515  -2.295  0.00  0.00    -0.086 HD
ATOM     14  H   UNL     1       5.184  -9.396  -2.769  0.00  0.00    -0.086 HD
ENDROOT
BRANCH   5  15
ATOM     15  C   UNL     1       1.138  -9.641  -0.491  0.00  0.00    +0.219 C 
ATOM     16  O   UNL     1       1.126  -9.857   0.702  0.00  0.00    -0.275 OA
ATOM     17  N   UNL     1       0.919 -10.647  -1.360  0.00  0.00    -0.308 N 
ATOM     18  H   UNL     1       0.928 -10.475  -2.315  0.00  0.00    +0.149 HD
BRANCH  17  19
ATOM     19  C   UNL     1       0.667 -12.002  -0.864  0.00  0.00    +0.100 C 
ATOM     20  C   UNL     1       2.000 -12.708  -0.609  0.00  0.00    +0.033 C 
BRANCH  19  21
ATOM     21  C   UNL     1      -0.122 -12.775  -1.889  0.00  0.00    -0.027 A 
ATOM     22  C   UNL     1       0.173 -12.640  -3.233  0.00  0.00    +0.006 A 
ATOM     23  C   UNL     1      -0.551 -13.348  -4.174  0.00  0.00    +0.015 A 
ATOM     24  C   UNL     1      -1.570 -14.192  -3.771  0.00  0.00    +0.018 A 
ATOM     25  C   UNL     1      -1.865 -14.327  -2.426  0.00  0.00    +0.015 A 
ATOM     26  C   UNL     1      -1.137 -13.622  -1.485  0.00  0.00    +0.006 A 
ATOM     27 BR   UNL     1      -2.560 -15.162  -5.058  0.00  0.00    -0.050 Br
ENDBRANCH  19  21
ENDBRANCH  17  19
ENDBRANCH   5  15
BRANCH   1  28
ATOM     28  C   UNL     1       0.224  -4.258   0.109  0.00  0.00    +0.131 C 
BRANCH  28  33
ATOM     29  C   UNL     1       0.289   1.520   0.212  0.00  0.00    +0.044 C 
ATOM     30  C   UNL     1       0.272   0.013   0.185  0.00  0.00    -0.050 A 
ATOM     31  C   UNL     1       0.181  -0.656  -1.021  0.00  0.00    +0.003 A 
ATOM     32  C   UNL     1       0.165  -2.038  -1.046  0.00  0.00    +0.004 A 
ATOM     33  C   UNL     1       0.242  -2.751   0.136  0.00  0.00    -0.039 A 
ATOM     34  C   UNL     1       0.334  -2.082   1.342  0.00  0.00    +0.004 A 
ATOM     35  C   UNL     1       0.354  -0.700   1.367  0.00  0.00    +0.003 A 
ENDBRANCH  28  33
ENDBRANCH   1  28
TORSDOF 5
