REMARK  Name = ZINC09703776
REMARK  8 active torsions:
REMARK  status: ('A' for Active; 'I' for Inactive)
REMARK    1  A    between atoms: C_1  and  N_2
REMARK    2  A    between atoms: N_2  and  C_3
REMARK    3  A    between atoms: N_2  and  S_4
REMARK    4  A    between atoms: S_4  and  C_7
REMARK    5  A    between atoms: C_11  and  N_13
REMARK    6  A    between atoms: C_14  and  C_16
REMARK    7  A    between atoms: C_16  and  S_17
REMARK    8  A    between atoms: S_17  and  C_18
REMARK                            x       y       z     vdW  Elec       q    Type
REMARK                         _______ _______ _______ _____ _____    ______ ____
ROOT
ATOM      1  N   UNL     1       1.163   3.487   0.009  0.00  0.00    -0.284 N 
ATOM      2  C   UNL     1       2.320   4.173   0.104  0.00  0.00    +0.228 C 
ATOM      3  O   UNL     1       3.378   3.581   0.091  0.00  0.00    -0.275 OA
ATOM      4  H   UNL     1       0.320   3.963  -0.046  0.00  0.00    +0.155 HD
ENDROOT
BRANCH   1   9
ATOM      5  C   UNL     1       2.235   0.030  -0.644  0.00  0.00    +0.107 A 
ATOM      6  C   UNL     1       1.210  -0.680  -0.046  0.00  0.00    +0.030 A 
ATOM      7  C   UNL     1       0.169  -0.011   0.571  0.00  0.00    +0.024 A 
ATOM      8  C   UNL     1       0.150   1.371   0.591  0.00  0.00    +0.062 A 
ATOM      9  C   UNL     1       1.179   2.087  -0.009  0.00  0.00    +0.054 A 
ATOM     10  C   UNL     1       2.222   1.411  -0.627  0.00  0.00    +0.053 A 
ATOM     11 CL   UNL     1      -1.161   2.212   1.359  0.00  0.00    -0.082 Cl
BRANCH   5  12
ATOM     12  S   UNL     1       3.559  -0.828  -1.428  0.00  0.00    +0.060 S 
ATOM     13  O   UNL     1       4.669   0.059  -1.437  0.00  0.00    -0.153 OA
ATOM     14  O   UNL     1       3.617  -2.117  -0.832  0.00  0.00    -0.153 OA
BRANCH  12  16
ATOM     15  C   UNL     1       3.469  -0.052  -4.017  0.00  0.00    +0.131 C 
ATOM     16  N   UNL     1       3.125  -1.058  -3.010  0.00  0.00    -0.183 NA
ATOM     17  C   UNL     1       2.397  -2.268  -3.401  0.00  0.00    +0.131 C 
ENDBRANCH  12  16
ENDBRANCH   5  12
ENDBRANCH   1   9
BRANCH   2  18
ATOM     18  C   UNL     1       2.297   5.675   0.225  0.00  0.00    +0.173 C 
BRANCH  18  19
ATOM     19  S   UNL     1       3.994   6.297   0.332  0.00  0.00    -0.079 S 
BRANCH  19  20
ATOM     20  C   UNL     1       3.678   8.025   0.462  0.00  0.00    +0.168 A 
ATOM     21  N   UNL     1       4.637   8.992   0.573  0.00  0.00    -0.333 N 
ATOM     22  H   UNL     1       5.626   8.847   0.594  0.00  0.00    +0.168 HD
ATOM     23  C   UNL     1       3.983  10.211   0.650  0.00  0.00    +0.067 A 
ATOM     24  C   UNL     1       4.410  11.525   0.771  0.00  0.00    +0.028 A 
ATOM     25  C   UNL     1       3.484  12.546   0.822  0.00  0.00    +0.002 A 
ATOM     26  C   UNL     1       2.127  12.268   0.754  0.00  0.00    +0.002 A 
ATOM     27  C   UNL     1       1.685  10.970   0.634  0.00  0.00    +0.030 A 
ATOM     28  C   UNL     1       2.610   9.924   0.581  0.00  0.00    +0.090 A 
ATOM     29  N   UNL     1       2.489   8.576   0.461  0.00  0.00    -0.222 NA
ENDBRANCH  19  20
ENDBRANCH  18  19
ENDBRANCH   2  18
TORSDOF 6
