REMARK  Name = ZINC66202034
REMARK  14 active torsions:
REMARK  status: ('A' for Active; 'I' for Inactive)
REMARK    1  A    between atoms: C_1  and  C_2
REMARK    2  A    between atoms: C_5  and  C_29
REMARK    3  A    between atoms: C_6  and  O_8
REMARK    4  A    between atoms: O_8  and  C_9
REMARK    5  A    between atoms: C_9  and  C_10
REMARK    6  A    between atoms: C_10  and  C_11
REMARK    7  A    between atoms: C_11  and  C_12
REMARK    8  A    between atoms: C_12  and  C_13
REMARK    9  A    between atoms: C_12  and  C_14
REMARK   10  A    between atoms: C_12  and  C_15
REMARK   11  A    between atoms: N_17  and  C_18
REMARK   12  A    between atoms: C_18  and  N_20
REMARK   13  A    between atoms: N_20  and  C_21
REMARK   14  A    between atoms: C_24  and  C_28
REMARK                            x       y       z     vdW  Elec       q    Type
REMARK                         _______ _______ _______ _____ _____    ______ ____
ROOT
ATOM      1  C   UNL     1       0.553  -2.344   8.552  0.00  0.00    +0.224 C 
ATOM      2  O   UNL     1       0.776  -1.154   8.491  0.00  0.00    -0.275 OA
ATOM      3  N   UNL     1       0.318  -2.925   9.745  0.00  0.00    -0.267 N 
ATOM      4  H   UNL     1       0.140  -3.877   9.794  0.00  0.00    +0.157 HD
ENDROOT
BRANCH   1   5
ATOM      5  C   UNL     1       0.540  -3.174   7.294  0.00  0.00    +0.042 C 
ATOM      6  C   UNL     1      -0.836  -3.821   7.125  0.00  0.00    +0.020 C 
ATOM      7  C   UNL     1       1.609  -4.264   7.391  0.00  0.00    +0.020 C 
BRANCH   5   8
ATOM      8  C   UNL     1       0.834  -2.278   6.089  0.00  0.00    +0.019 C 
BRANCH   8   9
ATOM      9  C   UNL     1       0.821  -3.120   4.812  0.00  0.00    +0.042 C 
BRANCH   9  10
ATOM     10  C   UNL     1       1.115  -2.224   3.607  0.00  0.00    +0.229 C 
BRANCH  10  11
ATOM     11  O   UNL     1       1.103  -3.011   2.414  0.00  0.00    -0.492 OA
BRANCH  11  17
ATOM     12  C   UNL     1       2.112   1.141   0.056  0.00  0.00    +0.044 C 
ATOM     13  C   UNL     1       1.844  -0.342   0.056  0.00  0.00    -0.047 A 
ATOM     14  C   UNL     1       1.847  -1.044  -1.135  0.00  0.00    +0.004 A 
ATOM     15  C   UNL     1       1.601  -2.404  -1.138  0.00  0.00    +0.007 A 
ATOM     16  C   UNL     1       1.351  -3.065   0.049  0.00  0.00    -0.009 A 
ATOM     17  C   UNL     1       1.348  -2.363   1.245  0.00  0.00    +0.124 A 
ATOM     18  C   UNL     1       1.601  -0.999   1.246  0.00  0.00    +0.049 A 
ATOM     19  C   UNL     1       1.082  -4.548   0.044  0.00  0.00    +0.047 C 
ENDBRANCH  11  17
ENDBRANCH  10  11
ENDBRANCH   9  10
ENDBRANCH   8   9
ENDBRANCH   5   8
ENDBRANCH   1   5
BRANCH   3  20
ATOM     20  C   UNL     1       0.330  -2.183  10.870  0.00  0.00    +0.141 C 
ATOM     21  S   UNL     1       0.644  -0.502  10.784  0.00  0.00    -0.018 S 
BRANCH  20  22
ATOM     22  N   UNL     1       0.094  -2.764  12.063  0.00  0.00    -0.296 N 
ATOM     23  H   UNL     1      -0.146  -3.703  12.106  0.00  0.00    +0.154 HD
BRANCH  22  24
ATOM     24  C   UNL     1       0.195  -2.013  13.239  0.00  0.00    +0.047 A 
ATOM     25  C   UNL     1      -0.413  -0.767  13.323  0.00  0.00    +0.024 A 
ATOM     26  C   UNL     1      -0.311  -0.028  14.486  0.00  0.00    +0.005 A 
ATOM     27  C   UNL     1       0.394  -0.527  15.566  0.00  0.00    -0.049 A 
ATOM     28  C   UNL     1       1.000  -1.767  15.486  0.00  0.00    +0.020 A 
ATOM     29  C   UNL     1       0.898  -2.514  14.327  0.00  0.00    +0.039 A 
ATOM     30 BR   UNL     1       1.721  -4.213  14.221  0.00  0.00    -0.048 Br
ATOM     31  C   UNL     1       0.503   0.283  16.832  0.00  0.00    +0.044 C 
ENDBRANCH  22  24
ENDBRANCH  20  22
ENDBRANCH   3  20
TORSDOF 9
