REMARK  Name = ZINC04282957
REMARK  8 active torsions:
REMARK  status: ('A' for Active; 'I' for Inactive)
REMARK    1  A    between atoms: C_4  and  C_7
REMARK    2  A    between atoms: C_8  and  C_9
REMARK    3  A    between atoms: C_9  and  O_11
REMARK    4  A    between atoms: O_11  and  C_12
REMARK    5  A    between atoms: C_17  and  C_18
REMARK    6  A    between atoms: N_19  and  N_20
REMARK    7  A    between atoms: C_21  and  C_23
REMARK    8  A    between atoms: C_26  and  O_29
REMARK                            x       y       z     vdW  Elec       q    Type
REMARK                         _______ _______ _______ _____ _____    ______ ____
ROOT
ATOM      1  C   UNL     1       3.666   3.395   0.008  0.00  0.00    +0.141 A 
ATOM      2  C   UNL     1       4.739   4.271   0.043  0.00  0.00    +0.048 A 
ATOM      3  C   UNL     1       6.032   3.783   0.058  0.00  0.00    +0.019 A 
ATOM      4  C   UNL     1       6.265   2.417   0.042  0.00  0.00    +0.019 A 
ATOM      5  C   UNL     1       5.208   1.531   0.012  0.00  0.00    +0.028 A 
ATOM      6  C   UNL     1       3.897   2.013  -0.002  0.00  0.00    +0.038 A 
ATOM      7 BR   UNL     1       8.040   1.765   0.061  0.00  0.00    -0.050 Br
ENDROOT
BRANCH   6   8
ATOM      8  C   UNL     1       2.763   1.072  -0.033  0.00  0.00    +0.142 C 
ATOM      9  N   UNL     1       1.545   1.524  -0.047  0.00  0.00    -0.187 NA
BRANCH   9  10
ATOM     10  N   UNL     1       0.467   0.630  -0.076  0.00  0.00    -0.203 N 
ATOM     11  C   UNL     1      -0.796   1.098  -0.096  0.00  0.00    +0.263 C 
ATOM     12  O   UNL     1      -1.001   2.297  -0.082  0.00  0.00    -0.268 OA
ATOM     13  H   UNL     1       0.630  -0.327  -0.087  0.00  0.00    +0.178 HD
BRANCH  11  14
ATOM     14  C   UNL     1      -1.932   0.157  -0.133  0.00  0.00    +0.039 A 
ATOM     15  C   UNL     1      -1.699  -1.221  -0.155  0.00  0.00    +0.016 A 
ATOM     16  C   UNL     1      -2.762  -2.096  -0.185  0.00  0.00    +0.046 A 
ATOM     17  C   UNL     1      -4.064  -1.611  -0.205  0.00  0.00    +0.117 A 
ATOM     18  C   UNL     1      -4.300  -0.241  -0.189  0.00  0.00    +0.046 A 
ATOM     19  C   UNL     1      -3.243   0.641  -0.153  0.00  0.00    +0.016 A 
BRANCH  17  20
ATOM     20  O   UNL     1      -5.109  -2.477  -0.241  0.00  0.00    -0.507 OA
ATOM     21  H   UNL     1      -5.393  -2.714  -1.134  0.00  0.00    +0.292 HD
ENDBRANCH  17  20
ENDBRANCH  11  14
ENDBRANCH   9  10
ENDBRANCH   6   8
BRANCH   1  22
ATOM     22  O   UNL     1       2.395   3.874  -0.012  0.00  0.00    -0.422 OA
BRANCH  22  23
ATOM     23  C   UNL     1       1.748   4.000   1.165  0.00  0.00    +0.337 C 
ATOM     24  O   UNL     1       2.266   3.602   2.190  0.00  0.00    -0.245 OA
BRANCH  23  26
ATOM     25  C   UNL     1      -0.226   4.742   2.384  0.00  0.00    +0.015 C 
ATOM     26  C   UNL     1       0.422   4.616   1.207  0.00  0.00    +0.092 C 
BRANCH  25  30
ATOM     27  C   UNL     1      -4.071   6.529   2.507  0.00  0.00    +0.000 A 
ATOM     28  C   UNL     1      -3.485   6.076   3.676  0.00  0.00    +0.001 A 
ATOM     29  C   UNL     1      -2.235   5.494   3.645  0.00  0.00    +0.008 A 
ATOM     30  C   UNL     1      -1.560   5.362   2.427  0.00  0.00    -0.025 A 
ATOM     31  C   UNL     1      -2.158   5.826   1.251  0.00  0.00    +0.008 A 
ATOM     32  C   UNL     1      -3.410   6.401   1.298  0.00  0.00    +0.001 A 
ENDBRANCH  25  30
ENDBRANCH  23  26
ENDBRANCH  22  23
ENDBRANCH   1  22
TORSDOF 8
