REMARK  Name = ZINC06549314
REMARK  9 active torsions:
REMARK  status: ('A' for Active; 'I' for Inactive)
REMARK    1  A    between atoms: C_1  and  C_2
REMARK    2  A    between atoms: C_2  and  N_3
REMARK    3  A    between atoms: C_12  and  S_13
REMARK    4  A    between atoms: S_13  and  C_14
REMARK    5  A    between atoms: C_14  and  C_16
REMARK    6  A    between atoms: C_14  and  C_19
REMARK    7  A    between atoms: C_16  and  C_17
REMARK    8  A    between atoms: C_16  and  C_18
REMARK    9  A    between atoms: C_26  and  C_30
REMARK                            x       y       z     vdW  Elec       q    Type
REMARK                         _______ _______ _______ _____ _____    ______ ____
ROOT
ATOM      1  N   UNL     1       2.496   2.447   3.387  0.00  0.00    -0.288 N 
ATOM      2  C   UNL     1       3.521   3.288   3.157  0.00  0.00    +0.263 A 
ATOM      3  O   UNL     1       4.420   3.405   3.973  0.00  0.00    -0.267 OA
ATOM      4  C   UNL     1       3.541   4.044   1.942  0.00  0.00    +0.076 A 
ATOM      5  C   UNL     1       4.547   5.007   1.489  0.00  0.00    -0.023 A 
ATOM      6  C   UNL     1       4.337   5.594   0.294  0.00  0.00    -0.004 A 
ATOM      7  S   UNL     1       2.812   4.910  -0.294  0.00  0.00    -0.073 S 
ATOM      8  C   UNL     1       2.458   3.834   1.072  0.00  0.00    +0.117 A 
ATOM      9  N   UNL     1       1.479   2.983   1.357  0.00  0.00    -0.216 NA
ATOM     10  C   UNL     1       1.482   2.303   2.485  0.00  0.00    +0.173 A 
ATOM     11  C   UNL     1       5.209   6.606  -0.386  0.00  0.00    +0.046 C 
ATOM     12  C   UNL     1       6.202   7.161   0.645  0.00  0.00    -0.009 C 
ATOM     13  C   UNL     1       6.828   5.987   1.405  0.00  0.00    +0.008 C 
ATOM     14  C   UNL     1       5.784   5.344   2.318  0.00  0.00    +0.037 C 
ATOM     15  C   UNL     1       7.299   7.953  -0.069  0.00  0.00    +0.008 C 
ENDROOT
BRANCH   1  17
ATOM     16  C   UNL     1       3.188   0.337   4.412  0.00  0.00    +0.027 C 
ATOM     17  C   UNL     1       2.469   1.670   4.629  0.00  0.00    +0.124 C 
ENDBRANCH   1  17
BRANCH  10  18
ATOM     18  S   UNL     1       0.163   1.188   2.832  0.00  0.00    -0.075 S 
BRANCH  18  19
ATOM     19  C   UNL     1      -0.886   1.483   1.387  0.00  0.00    +0.143 C 
BRANCH  19  20
ATOM     20  C   UNL     1      -2.232   0.840   1.603  0.00  0.00    +0.234 C 
ATOM     21  O   UNL     1      -2.358  -0.041   2.426  0.00  0.00    -0.274 OA
ATOM     22  N   UNL     1      -3.296   1.245   0.881  0.00  0.00    -0.239 N 
ATOM     23  C   UNL     1      -4.499   0.670   1.075  0.00  0.00    +0.303 C 
ATOM     24  O   UNL     1      -4.625  -0.213   1.900  0.00  0.00    -0.253 OA
ATOM     25  N   UNL     1      -5.563   1.075   0.353  0.00  0.00    -0.313 N 
ATOM     26  H   UNL     1      -3.195   1.950   0.223  0.00  0.00    +0.159 HD
ATOM     27  H   UNL     1      -5.463   1.780  -0.305  0.00  0.00    +0.146 HD
ATOM     28  H   UNL     1      -6.430   0.662   0.493  0.00  0.00    +0.146 HD
ENDBRANCH  19  20
BRANCH  19  29
ATOM     29  C   UNL     1      -0.226   0.878   0.145  0.00  0.00    +0.005 C 
ATOM     30  C   UNL     1      -1.040   1.247  -1.096  0.00  0.00    +0.009 C 
ATOM     31  C   UNL     1      -0.173  -0.644   0.286  0.00  0.00    +0.009 C 
ENDBRANCH  19  29
ENDBRANCH  18  19
ENDBRANCH  10  18
TORSDOF 5
