REMARK  Name = ZINC39462728
REMARK  4 active torsions:
REMARK  status: ('A' for Active; 'I' for Inactive)
REMARK    1  A    between atoms: C_1  and  C_2
REMARK    2  A    between atoms: N_4  and  C_5
REMARK    3  A    between atoms: C_8  and  N_15
REMARK    4  A    between atoms: C_16  and  C_18
REMARK                            x       y       z     vdW  Elec       q    Type
REMARK                         _______ _______ _______ _____ _____    ______ ____
ROOT
ATOM      1  C   UNL     1      -0.043  -2.045  -1.081  0.00  0.00    +0.063 C 
ATOM      2  C   UNL     1      -0.237  -2.692   0.096  0.00  0.00    +0.081 C 
ATOM      3  C   UNL     1      -0.130  -4.086   0.226  0.00  0.00    +0.084 C 
ATOM      4  C   UNL     1       0.467  -4.842  -0.778  0.00  0.00    +0.079 C 
ATOM      5  C   UNL     1       0.762  -4.182  -1.965  0.00  0.00    +0.120 C 
ATOM      6  N   UNL     1       1.593  -4.405  -2.950  0.00  0.00    -0.130 NA
ATOM      7  N   UNL     1       1.835  -3.337  -3.620  0.00  0.00    -0.047 NA
ATOM      8  N   UNL     1       1.078  -2.329  -3.317  0.00  0.00    -0.152 NA
ATOM      9  C   UNL     1       0.135  -2.840  -2.328  0.00  0.00    +0.227 C 
ATOM     10 CL   UNL     1      -0.745  -4.870   1.648  0.00  0.00    -0.080 Cl
ATOM     11 CL   UNL     1      -0.633  -1.755   1.502  0.00  0.00    -0.080 Cl
ENDROOT
BRANCH   1  15
ATOM     12  C   UNL     1      -0.925   1.502  -1.883  0.00  0.00    +0.109 C 
ATOM     13  C   UNL     1      -0.877  -0.003  -1.918  0.00  0.00    +0.214 C 
ATOM     14  O   UNL     1      -1.613  -0.616  -2.663  0.00  0.00    -0.276 OA
ATOM     15  N   UNL     1      -0.018  -0.669  -1.123  0.00  0.00    -0.286 N 
ATOM     16  H   UNL     1       0.619  -0.179  -0.579  0.00  0.00    +0.155 HD
ENDBRANCH   1  15
BRANCH   4  17
ATOM     17  N   UNL     1       0.757  -6.202  -0.600  0.00  0.00    -0.283 N 
ATOM     18  C   UNL     1       0.254  -7.115  -1.455  0.00  0.00    +0.214 C 
ATOM     19  O   UNL     1      -0.522  -6.772  -2.322  0.00  0.00    -0.276 OA
ATOM     20  C   UNL     1       0.656  -8.563  -1.333  0.00  0.00    +0.109 C 
ATOM     21  H   UNL     1       1.319  -6.486   0.137  0.00  0.00    +0.155 HD
ENDBRANCH   4  17
TORSDOF 2
