REMARK  Name = ZINC20830599
REMARK  9 active torsions:
REMARK  status: ('A' for Active; 'I' for Inactive)
REMARK    1  A    between atoms: C_3  and  S_24
REMARK    2  A    between atoms: C_6  and  N_7
REMARK    3  A    between atoms: C_8  and  C_10
REMARK    4  A    between atoms: C_10  and  S_11
REMARK    5  A    between atoms: S_11  and  C_12
REMARK    6  A    between atoms: C_15  and  C_18
REMARK    7  A    between atoms: N_16  and  N_17
REMARK    8  A    between atoms: S_24  and  N_27
REMARK    9  A    between atoms: N_27  and  C_28
REMARK                            x       y       z     vdW  Elec       q    Type
REMARK                         _______ _______ _______ _____ _____    ______ ____
ROOT
ATOM      1  N   UNL     1       0.636   2.605   1.932  0.00  0.00    -0.285 N 
ATOM      2  C   UNL     1       0.877   1.299   2.159  0.00  0.00    +0.227 C 
ATOM      3  O   UNL     1       0.651   0.820   3.250  0.00  0.00    -0.275 OA
ATOM      4  H   UNL     1       0.759   3.020   0.921  0.00  0.00    +0.155 HD
ENDROOT
BRANCH   1  10
ATOM      5  C   UNL     1      -0.635   4.493   2.741  0.00  0.00    +0.025 A 
ATOM      6  C   UNL     1      -1.039   5.306   3.782  0.00  0.00    +0.030 A 
ATOM      7  C   UNL     1      -0.574   5.073   5.064  0.00  0.00    +0.105 A 
ATOM      8  C   UNL     1       0.291   4.022   5.308  0.00  0.00    +0.030 A 
ATOM      9  C   UNL     1       0.694   3.203   4.272  0.00  0.00    +0.025 A 
ATOM     10  C   UNL     1       0.230   3.434   2.984  0.00  0.00    +0.034 A 
BRANCH   7  11
ATOM     11  S   UNL     1      -1.086   6.116   6.388  0.00  0.00    +0.059 S 
ATOM     12  O   UNL     1      -2.325   6.692   5.996  0.00  0.00    -0.153 OA
ATOM     13  O   UNL     1      -0.943   5.358   7.581  0.00  0.00    -0.153 OA
BRANCH  11  14
ATOM     14  N   UNL     1       0.005   7.358   6.482  0.00  0.00    -0.187 NA
ATOM     15  H   UNL     1       0.746   7.362   7.295  0.00  0.00    +0.148 HD
BRANCH  14  16
ATOM     16  C   UNL     1       0.121   8.316   5.380  0.00  0.00    +0.077 C 
ATOM     17  C   UNL     1       1.250   7.880   4.444  0.00  0.00    +0.020 C 
ATOM     18  C   UNL     1       1.373   8.880   3.292  0.00  0.00    +0.002 C 
ATOM     19  C   UNL     1       1.683  10.270   3.853  0.00  0.00    +0.000 C 
ATOM     20  C   UNL     1       0.553  10.705   4.790  0.00  0.00    +0.002 C 
ATOM     21  C   UNL     1       0.431   9.705   5.941  0.00  0.00    +0.020 C 
ENDBRANCH  14  16
ENDBRANCH  11  14
ENDBRANCH   7  11
ENDBRANCH   1  10
BRANCH   2  22
ATOM     22  C   UNL     1       1.428   0.432   1.055  0.00  0.00    +0.173 C 
BRANCH  22  23
ATOM     23  S   UNL     1       1.641  -1.258   1.666  0.00  0.00    -0.075 S 
BRANCH  23  24
ATOM     24  C   UNL     1       2.277  -2.030   0.215  0.00  0.00    +0.209 A 
ATOM     25  N   UNL     1       2.494  -1.449  -0.946  0.00  0.00    -0.121 NA
ATOM     26  N   UNL     1       2.964  -2.303  -1.784  0.00  0.00    -0.127 NA
ATOM     27  C   UNL     1       3.068  -3.481  -1.214  0.00  0.00    +0.182 A 
ATOM     28  N   UNL     1       2.631  -3.341   0.084  0.00  0.00    -0.224 N 
BRANCH  27  29
ATOM     29  C   UNL     1       3.561  -4.722  -1.846  0.00  0.00    +0.024 A 
ATOM     30  C   UNL     1       4.291  -4.681  -3.040  0.00  0.00    +0.031 A 
ATOM     31  C   UNL     1       4.737  -5.863  -3.592  0.00  0.00    +0.111 A 
ATOM     32  N   UNL     1       4.475  -7.021  -3.016  0.00  0.00    -0.263 NA
ATOM     33  C   UNL     1       3.786  -7.106  -1.893  0.00  0.00    +0.111 A 
ATOM     34  C   UNL     1       3.307  -5.973  -1.270  0.00  0.00    +0.031 A 
ENDBRANCH  27  29
BRANCH  28  35
ATOM     35  N   UNL     1       2.565  -4.313   1.041  0.00  0.00    -0.295 N 
ATOM     36  H   UNL     1       2.883  -5.339   0.806  0.00  0.00    +0.163 HD
ATOM     37  H   UNL     1       2.195  -4.069   2.048  0.00  0.00    +0.163 HD
ENDBRANCH  28  35
ENDBRANCH  23  24
ENDBRANCH  22  23
ENDBRANCH   2  22
TORSDOF 9
