REMARK  Name = ZINC39324612
REMARK  11 active torsions:
REMARK  status: ('A' for Active; 'I' for Inactive)
REMARK    1  A    between atoms: C_1  and  C_2
REMARK    2  A    between atoms: C_2  and  C_3
REMARK    3  A    between atoms: C_3  and  C_4
REMARK    4  A    between atoms: C_4  and  C_5
REMARK    5  A    between atoms: C_7  and  C_19
REMARK    6  A    between atoms: C_9  and  C_17
REMARK    7  A    between atoms: C_10  and  N_16
REMARK    8  A    between atoms: C_22  and  O_25
REMARK    9  A    between atoms: O_25  and  C_26
REMARK   10  A    between atoms: C_26  and  C_27
REMARK   11  A    between atoms: C_26  and  C_28
REMARK                            x       y       z     vdW  Elec       q    Type
REMARK                         _______ _______ _______ _____ _____    ______ ____
ROOT
ATOM      1  C   UNL     1      -1.683  -3.003   0.531  0.00  0.00    +0.069 C 
ATOM      2  C   UNL     1      -2.568  -3.280  -0.396  0.00  0.00    +0.030 C 
ATOM      3  C   UNL     1      -2.620  -3.049  -1.881  0.00  0.00    +0.098 C 
ATOM      4  C   UNL     1      -4.035  -2.584  -2.172  0.00  0.00    +0.097 C 
ATOM      5  C   UNL     1      -5.001  -2.621  -1.230  0.00  0.00    +0.195 C 
ATOM      6  O   UNL     1      -4.864  -3.023   0.046  0.00  0.00    -0.448 OA
ATOM      7  C   UNL     1      -3.759  -3.877   0.355  0.00  0.00    +0.343 C 
ATOM      8  N   UNL     1      -3.333  -3.748   1.752  0.00  0.00    -0.138 NA
ATOM      9  N   UNL     1      -2.183  -3.292   1.760  0.00  0.00    -0.155 NA
ENDROOT
BRANCH   3  10
ATOM     10  C   UNL     1      -1.628  -1.986  -2.278  0.00  0.00    -0.035 A 
ATOM     11  C   UNL     1      -1.810  -0.681  -1.859  0.00  0.00    +0.008 A 
ATOM     12  C   UNL     1      -0.902   0.295  -2.222  0.00  0.00    +0.046 A 
ATOM     13  C   UNL     1       0.193  -0.035  -3.007  0.00  0.00    +0.121 A 
ATOM     14  C   UNL     1       0.373  -1.345  -3.426  0.00  0.00    +0.046 A 
ATOM     15  C   UNL     1      -0.534  -2.319  -3.056  0.00  0.00    +0.008 A 
BRANCH  13  16
ATOM     16  O   UNL     1       1.087   0.924  -3.366  0.00  0.00    -0.489 OA
BRANCH  16  17
ATOM     17  C   UNL     1       0.782   2.268  -2.990  0.00  0.00    +0.167 C 
ATOM     18  C   UNL     1       1.264   2.521  -1.560  0.00  0.00    +0.051 C 
ATOM     19  C   UNL     1       1.485   3.236  -3.944  0.00  0.00    +0.051 C 
ENDBRANCH  16  17
ENDBRANCH  13  16
ENDBRANCH   3  10
BRANCH   5  20
ATOM     20  N   UNL     1      -6.251  -2.204  -1.614  0.00  0.00    -0.329 N 
ATOM     21  H   UNL     1      -6.404  -1.904  -2.523  0.00  0.00    +0.145 HD
ATOM     22  H   UNL     1      -6.981  -2.210  -0.976  0.00  0.00    +0.145 HD
ENDBRANCH   5  20
BRANCH   4  23
ATOM     23  C   UNL     1      -4.354  -2.095  -3.479  0.00  0.00    +0.101 C 
ATOM     24  N   UNL     1      -4.607  -1.706  -4.516  0.00  0.00    -0.191 NA
ENDBRANCH   4  23
BRANCH   1  25
ATOM     25  C   UNL     1      -0.307  -2.448   0.270  0.00  0.00    +0.057 C 
BRANCH  25  26
ATOM     26  C   UNL     1       0.677  -3.602   0.065  0.00  0.00    +0.006 C 
BRANCH  26  28
ATOM     27  C   UNL     1       3.043  -4.193  -0.480  0.00  0.00    +0.004 C 
ATOM     28  C   UNL     1       2.059  -3.039  -0.276  0.00  0.00    -0.003 C 
ENDBRANCH  26  28
ENDBRANCH  25  26
ENDBRANCH   1  25
TORSDOF 8
