REMARK  Name = ZINC15028650
REMARK  10 active torsions:
REMARK  status: ('A' for Active; 'I' for Inactive)
REMARK    1  A    between atoms: C_1  and  C_2
REMARK    2  A    between atoms: C_2  and  C_4
REMARK    3  A    between atoms: C_2  and  N_15
REMARK    4  A    between atoms: N_6  and  C_7
REMARK    5  A    between atoms: N_15  and  C_16
REMARK    6  A    between atoms: N_15  and  C_17
REMARK    7  A    between atoms: C_17  and  C_18
REMARK    8  A    between atoms: N_20  and  C_21
REMARK    9  A    between atoms: C_21  and  C_22
REMARK   10  A    between atoms: C_21  and  C_23
REMARK                            x       y       z     vdW  Elec       q    Type
REMARK                         _______ _______ _______ _____ _____    ______ ____
ROOT
ATOM      1  C   UNL     1      -0.602   1.591  -0.110  0.00  0.00    -0.004 C 
ATOM      2  C   UNL     1      -0.008   0.187   0.010  0.00  0.00    +0.017 C 
ENDROOT
BRANCH   2   3
ATOM      3  C   UNL     1       0.462  -0.277  -1.345  0.00  0.00    +0.203 C 
ATOM      4  O   UNL     1      -0.282  -0.914  -2.059  0.00  0.00    -0.277 OA
ATOM      5  N   UNL     1       1.709   0.017  -1.762  0.00  0.00    -0.285 N 
ATOM      6  H   UNL     1       2.329   0.463  -1.164  0.00  0.00    +0.155 HD
BRANCH   5   7
ATOM      7  C   UNL     1       2.111  -0.323  -3.061  0.00  0.00    +0.069 A 
ATOM      8  C   UNL     1       1.160  -0.572  -4.040  0.00  0.00    +0.027 A 
ATOM      9  C   UNL     1       1.559  -0.907  -5.320  0.00  0.00    +0.017 A 
ATOM     10  C   UNL     1       2.905  -0.993  -5.627  0.00  0.00    +0.021 A 
ATOM     11  C   UNL     1       3.857  -0.745  -4.654  0.00  0.00    +0.055 A 
ATOM     12  C   UNL     1       3.464  -0.404  -3.372  0.00  0.00    +0.146 A 
ATOM     13  F   UNL     1       4.393  -0.156  -2.423  0.00  0.00    -0.204 F 
ATOM     14 BR   UNL     1       3.446  -1.452  -7.380  0.00  0.00    -0.050 Br
ENDBRANCH   5   7
ENDBRANCH   2   3
BRANCH   2  15
ATOM     15  N   UNL     1      -1.032  -0.737   0.516  0.00  0.00    +0.391 N 
ATOM     16  C   UNL     1      -0.443  -2.070   0.696  0.00  0.00    -0.094 C 
ATOM     17  H   UNL     1      -1.792  -0.791  -0.146  0.00  0.00    -0.080 HD
BRANCH  15  18
ATOM     18  C   UNL     1      -1.539  -0.247   1.804  0.00  0.00    +0.019 C 
BRANCH  18  19
ATOM     19  C   UNL     1      -2.674  -1.126   2.264  0.00  0.00    +0.197 C 
ATOM     20  O   UNL     1      -3.026  -2.067   1.584  0.00  0.00    -0.278 OA
ATOM     21  N   UNL     1      -3.299  -0.866   3.429  0.00  0.00    -0.315 N 
ATOM     22  H   UNL     1      -3.018  -0.113   3.973  0.00  0.00    +0.149 HD
BRANCH  21  23
ATOM     23  C   UNL     1      -4.402  -1.720   3.876  0.00  0.00    +0.067 C 
ATOM     24  C   UNL     1      -3.839  -2.934   4.617  0.00  0.00    +0.027 C 
ATOM     25  C   UNL     1      -5.314  -0.926   4.815  0.00  0.00    +0.027 C 
ENDBRANCH  21  23
ENDBRANCH  18  19
ENDBRANCH  15  18
ENDBRANCH   2  15
TORSDOF 6
