REMARK  Name = ZINC14469332
REMARK  14 active torsions:
REMARK  status: ('A' for Active; 'I' for Inactive)
REMARK    1  A    between atoms: C_1  and  C_2
REMARK    2  A    between atoms: C_2  and  N_70
REMARK    3  A    between atoms: C_3  and  C_4
REMARK    4  A    between atoms: C_3  and  N_70
REMARK    5  A    between atoms: C_5  and  C_6
REMARK    6  A    between atoms: C_5  and  N_70
REMARK    7  A    between atoms: C_6  and  N_7
REMARK    8  A    between atoms: C_8  and  C_10
REMARK    9  A    between atoms: C_23  and  C_26
REMARK   10  A    between atoms: C_29  and  O_34
REMARK   11  A    between atoms: C_30  and  O_32
REMARK   12  A    between atoms: O_32  and  C_33
REMARK   13  A    between atoms: O_34  and  C_35
REMARK   14  A    between atoms: C_35  and  C_37
REMARK                            x       y       z     vdW  Elec       q    Type
REMARK                         _______ _______ _______ _____ _____    ______ ____
ROOT
ATOM      1  C   UNL     1       5.113   4.187  -0.129  0.00  0.00    +0.037 A 
ATOM      2  C   UNL     1       3.763   4.542  -0.055  0.00  0.00    +0.015 A 
ATOM      3  C   UNL     1       3.417   5.857   0.153  0.00  0.00    +0.024 A 
ATOM      4  C   UNL     1       4.406   6.829   0.289  0.00  0.00    +0.031 A 
ATOM      5  C   UNL     1       5.751   6.487   0.216  0.00  0.00    -0.019 A 
ATOM      6  C   UNL     1       6.099   5.164   0.013  0.00  0.00    +0.019 A 
ATOM      7  C   UNL     1       6.831   7.496   0.336  0.00  0.00    +0.049 C 
ATOM      8  C   UNL     1       7.518   7.403   1.702  0.00  0.00    -0.023 C 
ATOM      9  C   UNL     1       7.845   8.597   2.134  0.00  0.00    -0.030 C 
ATOM     10  C   UNL     1       7.437   9.655   1.127  0.00  0.00    +0.033 C 
ATOM     11  C   UNL     1       6.327   8.952   0.293  0.00  0.00    +0.029 C 
ATOM     12  C   UNL     1       5.018   9.073   1.079  0.00  0.00    +0.105 C 
ATOM     13  N   UNL     1       4.031   8.153   0.504  0.00  0.00    -0.336 N 
ATOM     14  H   UNL     1       3.139   8.460   0.278  0.00  0.00    +0.147 HD
ENDROOT
BRANCH  12  15
ATOM     15  C   UNL     1       5.261   8.715   2.522  0.00  0.00    -0.023 A 
ATOM     16  C   UNL     1       5.133   7.403   2.938  0.00  0.00    +0.009 A 
ATOM     17  C   UNL     1       5.360   7.068   4.260  0.00  0.00    +0.050 A 
ATOM     18  C   UNL     1       5.705   8.051   5.174  0.00  0.00    +0.173 A 
ATOM     19  C   UNL     1       5.828   9.373   4.756  0.00  0.00    +0.163 A 
ATOM     20  C   UNL     1       5.604   9.701   3.428  0.00  0.00    +0.055 A 
BRANCH  19  21
ATOM     21  O   UNL     1       6.167  10.341   5.649  0.00  0.00    -0.491 OA
ATOM     22  C   UNL     1       6.275  11.675   5.149  0.00  0.00    +0.277 C 
ENDBRANCH  19  21
BRANCH  18  23
ATOM     23  O   UNL     1       5.923   7.725   6.476  0.00  0.00    -0.422 OA
BRANCH  23  24
ATOM     24  C   UNL     1       4.902   7.906   7.329  0.00  0.00    +0.309 C 
ATOM     25  O   UNL     1       3.822   8.254   6.913  0.00  0.00    -0.251 OA
ATOM     26  C   UNL     1       5.104   7.676   8.804  0.00  0.00    +0.136 C 
ENDBRANCH  23  24
ENDBRANCH  18  23
ENDBRANCH  12  15
BRANCH   1  28
ATOM     27  N   UNL     1       4.543   1.835  -0.482  0.00  0.00    -0.313 N 
ATOM     28  C   UNL     1       5.495   2.780  -0.350  0.00  0.00    +0.244 C 
ATOM     29  O   UNL     1       6.670   2.471  -0.414  0.00  0.00    -0.270 OA
ATOM     30  H   UNL     1       3.606   2.082  -0.431  0.00  0.00    +0.149 HD
BRANCH  27  31
ATOM     31  C   UNL     1       4.922   0.438  -0.702  0.00  0.00    +0.086 C 
BRANCH  31  32
ATOM     32  C   UNL     1       3.661  -0.421  -0.816  0.00  0.00    -0.060 C 
BRANCH  32  33
ATOM     33  N   UNL     1       4.060  -1.830  -1.016  0.00  0.00    +0.380 N 
ATOM     34  H   UNL     1       4.734  -2.093  -0.287  0.00  0.00    -0.082 HD
BRANCH  33  36
ATOM     35  C   UNL     1       2.520  -2.883   0.563  0.00  0.00    -0.017 C 
ATOM     36  C   UNL     1       2.877  -2.710  -0.915  0.00  0.00    -0.082 C 
ENDBRANCH  33  36
BRANCH  33  37
ATOM     37  C   UNL     1       4.698  -1.991  -2.340  0.00  0.00    -0.082 C 
ATOM     38  C   UNL     1       5.425  -3.337  -2.374  0.00  0.00    -0.017 C 
ENDBRANCH  33  37
ENDBRANCH  32  33
ENDBRANCH  31  32
ENDBRANCH  27  31
ENDBRANCH   1  28
TORSDOF 10
