REMARK  Name = ZINC49212211
REMARK  1 active torsions:
REMARK  status: ('A' for Active; 'I' for Inactive)
REMARK    1  A    between atoms: C_13  and  N_16
REMARK                            x       y       z     vdW  Elec       q    Type
REMARK                         _______ _______ _______ _____ _____    ______ ____
ROOT
ATOM      1  C   UNL     1      -0.016   1.316   0.003  0.00  0.00    +0.120 A 
ATOM      2  C   UNL     1       1.183   1.949  -0.005  0.00  0.00    +0.068 A 
ATOM      3  S   UNL     1       2.296   0.553  -0.021  0.00  0.00    -0.060 S 
ATOM      4  C   UNL     1       1.137  -0.668  -0.015  0.00  0.00    +0.165 A 
ATOM      5  N   UNL     1       0.002  -0.004  -0.002  0.00  0.00    -0.233 NA
ATOM      6  N   UNL     1       1.333  -2.045  -0.023  0.00  0.00    -0.248 N 
ATOM      7  C   UNL     1       0.272  -2.876  -0.016  0.00  0.00    +0.308 C 
ATOM      8  O   UNL     1      -0.852  -2.426   0.090  0.00  0.00    -0.252 OA
ATOM      9  N   UNL     1       0.458  -4.206  -0.127  0.00  0.00    -0.284 N 
ATOM     10  C   UNL     1       1.813  -4.774  -0.139  0.00  0.00    +0.109 C 
ATOM     11  C   UNL     1       1.968  -5.654  -1.384  0.00  0.00    +0.021 C 
ATOM     12  C   UNL     1       0.848  -6.697  -1.409  0.00  0.00    +0.025 C 
ATOM     13  C   UNL     1      -0.508  -5.992  -1.482  0.00  0.00    +0.095 C 
ATOM     14  C   UNL     1      -0.691  -5.116  -0.233  0.00  0.00    +0.131 C 
ATOM     15  H   UNL     1       2.233  -2.406  -0.033  0.00  0.00    +0.158 HD
ENDROOT
BRANCH  13  16
ATOM     16  N   UNL     1      -1.577  -6.992  -1.538  0.00  0.00    -0.280 N 
ATOM     17  C   UNL     1      -2.548  -7.140  -2.632  0.00  0.00    +0.128 C 
ATOM     18  C   UNL     1      -3.429  -8.323  -2.186  0.00  0.00    +0.124 C 
ATOM     19  N   UNL     1      -2.861  -8.715  -0.888  0.00  0.00    -0.298 N 
ATOM     20  C   UNL     1      -1.821  -7.920  -0.604  0.00  0.00    +0.303 C 
ATOM     21  O   UNL     1      -1.162  -8.028   0.412  0.00  0.00    -0.253 OA
ATOM     22  H   UNL     1      -3.185  -9.438  -0.328  0.00  0.00    +0.150 HD
ENDBRANCH  13  16
TORSDOF 1
