REMARK  Name = ZINC25830258
REMARK  9 active torsions:
REMARK  status: ('A' for Active; 'I' for Inactive)
REMARK    1  A    between atoms: C_1  and  C_2
REMARK    2  A    between atoms: C_2  and  C_4
REMARK    3  A    between atoms: C_2  and  N_13
REMARK    4  A    between atoms: C_8  and  N_10
REMARK    5  A    between atoms: N_13  and  C_14
REMARK    6  A    between atoms: C_15  and  C_17
REMARK    7  A    between atoms: C_21  and  N_23
REMARK    8  A    between atoms: N_23  and  S_24
REMARK    9  A    between atoms: S_24  and  C_27
REMARK                            x       y       z     vdW  Elec       q    Type
REMARK                         _______ _______ _______ _____ _____    ______ ____
ROOT
ATOM      1  C   UNL     1      -2.386   7.993   1.959  0.00  0.00    +0.039 A 
ATOM      2  C   UNL     1      -3.716   7.579   2.052  0.00  0.00    +0.014 A 
ATOM      3  C   UNL     1      -4.534   8.100   3.033  0.00  0.00    +0.023 A 
ATOM      4  C   UNL     1      -4.045   9.041   3.921  0.00  0.00    +0.065 A 
ATOM      5  C   UNL     1      -2.722   9.464   3.833  0.00  0.00    +0.093 A 
ATOM      6  C   UNL     1      -1.891   8.942   2.854  0.00  0.00    +0.041 A 
ATOM      7 CL   UNL     1      -5.083   9.696   5.148  0.00  0.00    -0.082 Cl
ENDROOT
BRANCH   1  10
ATOM      8  N   UNL     1      -2.025   7.058  -0.274  0.00  0.00    -0.294 N 
ATOM      9  C   UNL     1      -3.474   7.102  -0.487  0.00  0.00    +0.133 C 
ATOM     10  C   UNL     1      -1.507   7.433   0.912  0.00  0.00    +0.247 C 
ATOM     11  O   UNL     1      -0.316   7.309   1.121  0.00  0.00    -0.270 OA
BRANCH   8  13
ATOM     12  C   UNL     1      -1.376   7.463  -2.597  0.00  0.00    +0.033 C 
ATOM     13  C   UNL     1      -1.140   6.607  -1.351  0.00  0.00    +0.103 C 
BRANCH  13  14
ATOM     14  C   UNL     1      -1.432   5.164  -1.670  0.00  0.00    -0.025 A 
ATOM     15  C   UNL     1      -2.710   4.781  -2.034  0.00  0.00    +0.005 A 
ATOM     16  C   UNL     1      -2.977   3.458  -2.330  0.00  0.00    +0.003 A 
ATOM     17  C   UNL     1      -1.969   2.515  -2.255  0.00  0.00    +0.033 A 
ATOM     18  C   UNL     1      -0.691   2.898  -1.893  0.00  0.00    +0.127 A 
ATOM     19  C   UNL     1      -0.423   4.222  -1.600  0.00  0.00    +0.038 A 
BRANCH  18  20
ATOM     20  N   UNL     1       0.390   1.890  -1.818  0.00  0.00    +0.056 N 
ATOM     21  O   UNL     1       0.154   0.723  -2.075  0.00  0.00    -0.126 OA
ATOM     22  O   UNL     1       1.516   2.227  -1.498  0.00  0.00    -0.126 OA
ENDBRANCH  18  20
ENDBRANCH  13  14
ENDBRANCH   8  13
ENDBRANCH   1  10
BRANCH   5  23
ATOM     23  N   UNL     1      -2.231  10.415   4.733  0.00  0.00    -0.096 NA
BRANCH  23  24
ATOM     24  S   UNL     1      -1.044  11.467   4.259  0.00  0.00    +0.092 S 
ATOM     25  O   UNL     1      -0.866  12.387   5.327  0.00  0.00    -0.148 OA
ATOM     26  O   UNL     1       0.021  10.676   3.750  0.00  0.00    -0.148 OA
BRANCH  24  27
ATOM     27  C   UNL     1      -1.678  12.391   2.899  0.00  0.00    +0.111 A 
ATOM     28  C   UNL     1      -1.496  11.933   1.608  0.00  0.00    +0.031 A 
ATOM     29  C   UNL     1      -1.997  12.654   0.541  0.00  0.00    +0.040 A 
ATOM     30  C   UNL     1      -2.674  13.841   0.765  0.00  0.00    +0.124 A 
ATOM     31  C   UNL     1      -2.852  14.301   2.059  0.00  0.00    +0.040 A 
ATOM     32  C   UNL     1      -2.354  13.576   3.125  0.00  0.00    +0.031 A 
ATOM     33  F   UNL     1      -3.161  14.549  -0.277  0.00  0.00    -0.205 F 
ENDBRANCH  24  27
ENDBRANCH  23  24
ENDBRANCH   5  23
TORSDOF 7
