REMARK  Name = ZINC39724313
REMARK  7 active torsions:
REMARK  status: ('A' for Active; 'I' for Inactive)
REMARK    1  A    between atoms: C_1  and  N_2
REMARK    2  A    between atoms: C_3  and  C_25
REMARK    3  A    between atoms: C_7  and  S_8
REMARK    4  A    between atoms: S_8  and  C_9
REMARK    5  A    between atoms: C_9  and  C_10
REMARK    6  A    between atoms: C_18  and  C_22
REMARK    7  A    between atoms: C_25  and  C_26
REMARK                            x       y       z     vdW  Elec       q    Type
REMARK                         _______ _______ _______ _____ _____    ______ ____
ROOT
ATOM      1  C   UNL     1       3.795  -1.719  -0.046  0.00  0.00    +0.151 C 
ENDROOT
BRANCH   1   2
ATOM      2  C   UNL     1       5.254  -1.341  -0.059  0.00  0.00    +0.121 A 
ATOM      3  N   UNL     1       6.177  -2.337  -0.079  0.00  0.00    -0.310 N 
ATOM      4  H   UNL     1       5.886  -3.262  -0.084  0.00  0.00    +0.170 HD
ATOM      5  C   UNL     1       7.500  -2.050  -0.092  0.00  0.00    +0.259 A 
ATOM      6  O   UNL     1       8.338  -2.932  -0.110  0.00  0.00    -0.267 OA
ATOM      7  C   UNL     1       7.886  -0.628  -0.084  0.00  0.00    +0.065 A 
ATOM      8  C   UNL     1       9.221  -0.230  -0.096  0.00  0.00    +0.016 A 
ATOM      9  C   UNL     1       9.534   1.100  -0.088  0.00  0.00    +0.016 A 
ATOM     10  C   UNL     1       8.524   2.070  -0.067  0.00  0.00    +0.065 A 
ATOM     11  C   UNL     1       7.185   1.693  -0.054  0.00  0.00    +0.043 A 
ATOM     12  C   UNL     1       6.854   0.336  -0.062  0.00  0.00    +0.079 A 
ATOM     13  N   UNL     1       5.563  -0.080  -0.056  0.00  0.00    -0.233 NA
BRANCH  10  14
ATOM     14  C   UNL     1       8.882   3.504  -0.059  0.00  0.00    +0.387 C 
ATOM     15  O   UNL     1      10.058   3.840  -0.070  0.00  0.00    -0.241 OA
ATOM     16  O   UNL     1       8.004   4.354  -0.041  0.00  0.00    -0.241 OA
ENDBRANCH  10  14
ENDBRANCH   1   2
BRANCH   1  17
ATOM     17  S   UNL     1       2.781  -0.215  -0.028  0.00  0.00    -0.081 S 
BRANCH  17  23
ATOM     18  C   UNL     1      -0.018   1.461   0.010  0.00  0.00    +0.133 C 
ATOM     19  N   UNL     1       0.002  -0.004   0.002  0.00  0.00    -0.292 N 
ATOM     20  C   UNL     1      -1.166  -0.900   0.002  0.00  0.00    +0.181 C 
ATOM     21  N   UNL     1      -0.577  -2.250  -0.008  0.00  0.00    -0.246 N 
ATOM     22  N   UNL     1       0.811  -2.069  -0.013  0.00  0.00    -0.163 NA
ATOM     23  C   UNL     1       1.125  -0.818  -0.014  0.00  0.00    +0.175 C 
ATOM     24  H   UNL     1      -1.054  -3.095  -0.010  0.00  0.00    +0.170 HD
BRANCH  20  25
ATOM     25  C   UNL     1      -2.006  -0.687   1.264  0.00  0.00    +0.078 C 
BRANCH  25  26
ATOM     26  C   UNL     1      -3.193  -1.615   1.239  0.00  0.00    -0.044 A 
ATOM     27  C   UNL     1      -4.378  -1.206   0.655  0.00  0.00    +0.004 A 
ATOM     28  C   UNL     1      -5.467  -2.057   0.632  0.00  0.00    +0.000 A 
ATOM     29  C   UNL     1      -5.372  -3.317   1.194  0.00  0.00    +0.000 A 
ATOM     30  C   UNL     1      -4.187  -3.726   1.778  0.00  0.00    +0.000 A 
ATOM     31  C   UNL     1      -3.097  -2.876   1.796  0.00  0.00    +0.004 A 
ENDBRANCH  25  26
ENDBRANCH  20  25
ENDBRANCH  17  23
ENDBRANCH   1  17
TORSDOF 6
