REMARK  Name = ZINC35704955
REMARK  10 active torsions:
REMARK  status: ('A' for Active; 'I' for Inactive)
REMARK    1  A    between atoms: C_1  and  C_2
REMARK    2  A    between atoms: C_6  and  C_8
REMARK    3  A    between atoms: C_8  and  N_9
REMARK    4  A    between atoms: N_9  and  C_10
REMARK    5  A    between atoms: N_9  and  C_22
REMARK    6  A    between atoms: C_10  and  C_11
REMARK    7  A    between atoms: C_11  and  C_12
REMARK    8  A    between atoms: C_22  and  C_23
REMARK    9  A    between atoms: C_25  and  C_28
REMARK   10  A    between atoms: N_30  and  N_31
REMARK                            x       y       z     vdW  Elec       q    Type
REMARK                         _______ _______ _______ _____ _____    ______ ____
ROOT
ATOM      1  N   UNL     1       1.709  -2.952   2.746  0.00  0.00    +0.388 N 
ATOM      2  H   UNL     1       2.292  -3.288   1.994  0.00  0.00    -0.081 HD
ENDROOT
BRANCH   1   3
ATOM      3  C   UNL     1       0.330  -2.795   2.264  0.00  0.00    -0.042 C 
BRANCH   3   9
ATOM      4  C   UNL     1      -0.244   1.734   0.216  0.00  0.00    +0.044 C 
ATOM      5  C   UNL     1       0.045   0.263   0.069  0.00  0.00    -0.050 A 
ATOM      6  C   UNL     1       0.302  -0.270  -1.181  0.00  0.00    +0.003 A 
ATOM      7  C   UNL     1       0.567  -1.619  -1.315  0.00  0.00    +0.000 A 
ATOM      8  C   UNL     1       0.576  -2.437  -0.201  0.00  0.00    +0.002 A 
ATOM      9  C   UNL     1       0.321  -1.904   1.049  0.00  0.00    -0.064 A 
ATOM     10  C   UNL     1       0.059  -0.553   1.184  0.00  0.00    +0.005 A 
ENDBRANCH   3   9
ENDBRANCH   1   3
BRANCH   1  11
ATOM     11  C   UNL     1       1.734  -3.917   3.853  0.00  0.00    -0.073 C 
BRANCH  11  12
ATOM     12  C   UNL     1       1.327  -5.298   3.336  0.00  0.00    +0.019 C 
BRANCH  12  13
ATOM     13  C   UNL     1       1.353  -6.287   4.473  0.00  0.00    -0.024 A 
ATOM     14  C   UNL     1       2.370  -7.098   4.802  0.00  0.00    +0.087 A 
ATOM     15  N   UNL     1       2.030  -7.856   5.890  0.00  0.00    -0.360 N 
ATOM     16  H   UNL     1       2.603  -8.515   6.311  0.00  0.00    +0.165 HD
ATOM     17  C   UNL     1       0.752  -7.543   6.297  0.00  0.00    +0.047 A 
ATOM     18  C   UNL     1       0.274  -6.542   5.431  0.00  0.00    +0.003 A 
ATOM     19  C   UNL     1      -1.008  -6.021   5.610  0.00  0.00    +0.010 A 
ATOM     20  C   UNL     1      -1.792  -6.483   6.629  0.00  0.00    +0.001 A 
ATOM     21  C   UNL     1      -1.324  -7.467   7.488  0.00  0.00    +0.002 A 
ATOM     22  C   UNL     1      -0.065  -8.002   7.324  0.00  0.00    +0.026 A 
ENDBRANCH  12  13
ENDBRANCH  11  12
ENDBRANCH   1  11
BRANCH   1  23
ATOM     23  C   UNL     1       2.215  -1.655   3.214  0.00  0.00    +0.019 C 
BRANCH  23  24
ATOM     24  C   UNL     1       3.671  -1.785   3.578  0.00  0.00    +0.179 A 
ATOM     25  N   UNL     1       4.670  -1.560   2.777  0.00  0.00    -0.210 NA
ATOM     26  C   UNL     1       5.827  -1.780   3.458  0.00  0.00    +0.165 A 
ATOM     27  C   UNL     1       5.483  -2.153   4.721  0.00  0.00    +0.230 A 
ATOM     28  O   UNL     1       4.142  -2.146   4.780  0.00  0.00    -0.449 OA
BRANCH  26  29
ATOM     29  C   UNL     1       7.195  -1.642   2.928  0.00  0.00    +0.279 C 
ATOM     30  O   UNL     1       8.148  -1.960   3.613  0.00  0.00    -0.267 OA
ATOM     31  N   UNL     1       7.390  -1.163   1.683  0.00  0.00    -0.243 N 
ATOM     32  H   UNL     1       6.637  -0.841   1.164  0.00  0.00    +0.170 HD
BRANCH  31  33
ATOM     33  N   UNL     1       8.649  -1.132   1.153  0.00  0.00    -0.222 NA
ATOM     34  C   UNL     1       9.119   0.252   0.994  0.00  0.00    +0.133 C 
ATOM     35  C   UNL     1      10.552   0.239   0.455  0.00  0.00    +0.177 C 
ATOM     36  O   UNL     1      10.586  -0.489  -0.776  0.00  0.00    -0.377 OA
ATOM     37  C   UNL     1      10.135  -1.841  -0.658  0.00  0.00    +0.177 C 
ATOM     38  C   UNL     1       8.698  -1.849  -0.130  0.00  0.00    +0.133 C 
ENDBRANCH  31  33
ENDBRANCH  26  29
ENDBRANCH  23  24
ENDBRANCH   1  23
TORSDOF 9
