REMARK  Name = ZINC06076015
REMARK  9 active torsions:
REMARK  status: ('A' for Active; 'I' for Inactive)
REMARK    1  A    between atoms: C_1  and  C_2
REMARK    2  A    between atoms: C_4  and  C_29
REMARK    3  A    between atoms: C_5  and  N_9
REMARK    4  A    between atoms: C_6  and  C_8
REMARK    5  A    between atoms: N_9  and  N_10
REMARK    6  A    between atoms: C_12  and  C_20
REMARK    7  A    between atoms: N_14  and  C_17
REMARK    8  A    between atoms: C_17  and  N_19
REMARK    9  A    between atoms: C_23  and  N_26
REMARK                            x       y       z     vdW  Elec       q    Type
REMARK                         _______ _______ _______ _____ _____    ______ ____
ROOT
ATOM      1  N   UNL     1       0.507  -4.679   1.130  0.00  0.00    -0.175 NA
ATOM      2  C   UNL     1       0.493  -5.998   1.141  0.00  0.00    +0.173 C 
ATOM      3  C   UNL     1       0.349  -6.907  -0.016  0.00  0.00    +0.122 C 
ATOM      4  N   UNL     1       0.387  -8.129   0.442  0.00  0.00    -0.168 NA
ATOM      5  N   UNL     1       0.547  -8.146   1.827  0.00  0.00    -0.134 N 
ATOM      6  C   UNL     1       0.623  -6.888   2.305  0.00  0.00    +0.294 C 
ATOM      7  O   UNL     1       0.766  -6.554   3.468  0.00  0.00    -0.266 OA
ENDROOT
BRANCH   3   8
ATOM      8  C   UNL     1       0.190  -6.505  -1.434  0.00  0.00    +0.004 A 
ATOM      9  C   UNL     1       1.305  -6.421  -2.267  0.00  0.00    +0.012 A 
ATOM     10  C   UNL     1       1.150  -6.046  -3.586  0.00  0.00    +0.033 A 
ATOM     11  C   UNL     1      -0.108  -5.755  -4.082  0.00  0.00    +0.126 A 
ATOM     12  C   UNL     1      -1.218  -5.837  -3.261  0.00  0.00    +0.033 A 
ATOM     13  C   UNL     1      -1.077  -6.216  -1.942  0.00  0.00    +0.012 A 
BRANCH  11  14
ATOM     14  N   UNL     1      -0.267  -5.354  -5.498  0.00  0.00    +0.056 N 
ATOM     15  O   UNL     1       0.702  -5.281  -6.218  0.00  0.00    -0.126 OA
ATOM     16  O   UNL     1      -1.365  -5.099  -5.935  0.00  0.00    -0.126 OA
ENDBRANCH  11  14
ENDBRANCH   3   8
BRANCH   1  17
ATOM     17  N   UNL     1       0.282  -4.040   0.033  0.00  0.00    -0.237 N 
ATOM     18  H   UNL     1       0.188  -4.526  -0.801  0.00  0.00    +0.174 HD
BRANCH  17  23
ATOM     19  C   UNL     1      -0.152   1.613   0.080  0.00  0.00    +0.044 C 
ATOM     20  C   UNL     1      -0.037   0.110   0.067  0.00  0.00    -0.050 A 
ATOM     21  C   UNL     1       0.548  -0.528  -1.012  0.00  0.00    +0.008 A 
ATOM     22  C   UNL     1       0.655  -1.904  -1.027  0.00  0.00    -0.027 A 
ATOM     23  C   UNL     1       0.176  -2.649   0.044  0.00  0.00    +0.054 A 
ATOM     24  C   UNL     1      -0.411  -2.004   1.127  0.00  0.00    -0.027 A 
ATOM     25  C   UNL     1      -0.510  -0.627   1.137  0.00  0.00    +0.008 A 
ATOM     26  C   UNL     1      -0.932  -2.807   2.291  0.00  0.00    +0.046 C 
ATOM     27  C   UNL     1       1.292  -2.598  -2.204  0.00  0.00    +0.046 C 
ENDBRANCH  17  23
ENDBRANCH   1  17
BRANCH   5  28
ATOM     28  C   UNL     1       0.620  -9.261   2.580  0.00  0.00    +0.158 C 
ATOM     29  S   UNL     1       0.816  -9.137   4.276  0.00  0.00    -0.017 S 
BRANCH  28  30
ATOM     30  N   UNL     1       0.539 -10.474   1.998  0.00  0.00    -0.339 N 
ATOM     31  H   UNL     1       0.428 -10.544   1.037  0.00  0.00    +0.144 HD
ATOM     32  H   UNL     1       0.592 -11.277   2.540  0.00  0.00    +0.144 HD
ENDBRANCH  28  30
ENDBRANCH   5  28
TORSDOF 6
