REMARK  Name = ZINC04453419
REMARK  11 active torsions:
REMARK  status: ('A' for Active; 'I' for Inactive)
REMARK    1  A    between atoms: C_1  and  C_2
REMARK    2  A    between atoms: C_2  and  O_3
REMARK    3  A    between atoms: O_3  and  C_4
REMARK    4  A    between atoms: C_6  and  C_14
REMARK    5  A    between atoms: C_9  and  O_10
REMARK    6  A    between atoms: O_10  and  C_11
REMARK    7  A    between atoms: C_11  and  C_12
REMARK    8  A    between atoms: C_11  and  C_13
REMARK    9  A    between atoms: C_17  and  C_28
REMARK   10  A    between atoms: C_23  and  N_27
REMARK   11  A    between atoms: C_24  and  C_25
REMARK                            x       y       z     vdW  Elec       q    Type
REMARK                         _______ _______ _______ _____ _____    ______ ____
ROOT
ATOM      1  C   UNL     1       0.652  -4.956  -0.018  0.00  0.00    +0.102 C 
ATOM      2  C   UNL     1       0.507  -6.013   1.047  0.00  0.00    +0.054 A 
ATOM      3  C   UNL     1       0.594  -5.898   2.394  0.00  0.00    +0.074 A 
ATOM      4  N   UNL     1       0.386  -7.142   2.920  0.00  0.00    -0.273 N 
ATOM      5  H   UNL     1       0.389  -7.371   3.862  0.00  0.00    +0.189 HD
ATOM      6  N   UNL     1       0.167  -8.030   1.855  0.00  0.00    -0.135 NA
ATOM      7  C   UNL     1       0.239  -7.361   0.739  0.00  0.00    +0.245 A 
ATOM      8  O   UNL     1       0.098  -7.793  -0.544  0.00  0.00    -0.421 OA
ATOM      9  C   UNL     1       0.487  -6.957  -1.527  0.00  0.00    +0.201 C 
ATOM     10  C   UNL     1       0.760  -5.646  -1.354  0.00  0.00    +0.098 C 
ENDROOT
BRANCH   1  13
ATOM     11  C   UNL     1      -1.508  -1.867   0.226  0.00  0.00    +0.162 A 
ATOM     12  C   UNL     1      -0.400  -2.698   0.216  0.00  0.00    +0.054 A 
ATOM     13  C   UNL     1      -0.554  -4.053  -0.007  0.00  0.00    -0.031 A 
ATOM     14  C   UNL     1      -1.813  -4.583  -0.222  0.00  0.00    +0.008 A 
ATOM     15  C   UNL     1      -2.923  -3.759  -0.213  0.00  0.00    +0.050 A 
ATOM     16  C   UNL     1      -2.776  -2.400   0.016  0.00  0.00    +0.162 A 
BRANCH  11  17
ATOM     17  O   UNL     1      -1.358  -0.533   0.446  0.00  0.00    -0.489 OA
BRANCH  17  19
ATOM     18  C   UNL     1      -0.058   1.457   0.883  0.00  0.00    +0.048 C 
ATOM     19  C   UNL     1      -0.027  -0.056   0.654  0.00  0.00    +0.226 C 
ENDBRANCH  17  19
ENDBRANCH  11  17
BRANCH  16  20
ATOM     20  O   UNL     1      -3.868  -1.589   0.030  0.00  0.00    -0.486 OA
BRANCH  20  21
ATOM     21  C   UNL     1      -5.146  -2.220  -0.078  0.00  0.00    +0.167 C 
ATOM     22  C   UNL     1      -6.212  -1.324   0.557  0.00  0.00    +0.051 C 
ATOM     23  C   UNL     1      -5.481  -2.443  -1.554  0.00  0.00    +0.051 C 
ENDBRANCH  20  21
ENDBRANCH  16  20
ENDBRANCH   1  13
BRANCH   3  24
ATOM     24  C   UNL     1       0.866  -4.658   3.154  0.00  0.00    +0.000 A 
ATOM     25  C   UNL     1       1.874  -3.788   2.738  0.00  0.00    +0.010 A 
ATOM     26  C   UNL     1       2.122  -2.633   3.451  0.00  0.00    +0.001 A 
ATOM     27  C   UNL     1       1.373  -2.337   4.576  0.00  0.00    +0.000 A 
ATOM     28  C   UNL     1       0.371  -3.195   4.993  0.00  0.00    +0.001 A 
ATOM     29  C   UNL     1       0.110  -4.350   4.285  0.00  0.00    +0.010 A 
ENDBRANCH   3  24
BRANCH   9  30
ATOM     30  N   UNL     1       0.616  -7.475  -2.792  0.00  0.00    -0.328 N 
ATOM     31  H   UNL     1       0.428  -8.413  -2.953  0.00  0.00    +0.145 HD
ATOM     32  H   UNL     1       0.894  -6.903  -3.524  0.00  0.00    +0.145 HD
ENDBRANCH   9  30
BRANCH  10  33
ATOM     33  C   UNL     1       1.170  -4.876  -2.490  0.00  0.00    +0.101 C 
ATOM     34  N   UNL     1       1.495  -4.266  -3.391  0.00  0.00    -0.191 NA
ENDBRANCH  10  33
TORSDOF 8
