REMARK  Name = ZINC04258646
REMARK  7 active torsions:
REMARK  status: ('A' for Active; 'I' for Inactive)
REMARK    1  A    between atoms: C_1  and  C_2
REMARK    2  A    between atoms: C_5  and  C_8
REMARK    3  A    between atoms: N_9  and  N_10
REMARK    4  A    between atoms: C_11  and  C_13
REMARK    5  A    between atoms: N_15  and  C_16
REMARK    6  A    between atoms: C_21  and  C_22
REMARK    7  A    between atoms: N_24  and  C_25
REMARK                            x       y       z     vdW  Elec       q    Type
REMARK                         _______ _______ _______ _____ _____    ______ ____
ROOT
ATOM      1  C   UNL     1      -1.031   3.366   0.149  0.00  0.00    +0.305 C 
ATOM      2  O   UNL     1       0.049   3.919   0.152  0.00  0.00    -0.265 OA
ATOM      3  N   UNL     1      -1.101   2.025   0.031  0.00  0.00    -0.277 N 
ATOM      4  H   UNL     1      -2.079   1.531  -0.065  0.00  0.00    +0.155 HD
ENDROOT
BRANCH   3   5
ATOM      5  C   UNL     1       0.065   1.265   0.030  0.00  0.00    +0.046 A 
ATOM      6  C   UNL     1       1.212   1.746   0.648  0.00  0.00    +0.024 A 
ATOM      7  C   UNL     1       2.369   0.994   0.641  0.00  0.00    +0.002 A 
ATOM      8  C   UNL     1       2.396  -0.245   0.020  0.00  0.00    +0.001 A 
ATOM      9  C   UNL     1       1.267  -0.739  -0.599  0.00  0.00    +0.015 A 
ATOM     10  C   UNL     1       0.089   0.012  -0.600  0.00  0.00    +0.058 A 
BRANCH  10  11
ATOM     11  C   UNL     1      -1.122  -0.510  -1.260  0.00  0.00    +0.250 C 
ATOM     12  O   UNL     1      -2.116   0.184  -1.344  0.00  0.00    -0.270 OA
ATOM     13  N   UNL     1      -1.127  -1.758  -1.770  0.00  0.00    -0.281 N 
ATOM     14  H   UNL     1      -0.256  -2.414  -1.626  0.00  0.00    +0.155 HD
BRANCH  13  15
ATOM     15  C   UNL     1      -2.239  -2.218  -2.484  0.00  0.00    +0.034 A 
ATOM     16  C   UNL     1      -3.517  -1.824  -2.109  0.00  0.00    +0.024 A 
ATOM     17  C   UNL     1      -4.613  -2.276  -2.818  0.00  0.00    +0.017 A 
ATOM     18  C   UNL     1      -4.439  -3.128  -3.894  0.00  0.00    +0.018 A 
ATOM     19  C   UNL     1      -3.167  -3.526  -4.267  0.00  0.00    +0.017 A 
ATOM     20  C   UNL     1      -2.067  -3.073  -3.565  0.00  0.00    +0.024 A 
ATOM     21 BR   UNL     1      -5.942  -3.749  -4.859  0.00  0.00    -0.050 Br
ENDBRANCH  13  15
ENDBRANCH  10  11
ENDBRANCH   3   5
BRANCH   1  23
ATOM     22  N   UNL     1      -2.212   5.510   0.393  0.00  0.00    -0.199 N 
ATOM     23  C   UNL     1      -2.281   4.169   0.275  0.00  0.00    +0.318 C 
ATOM     24  O   UNL     1      -3.362   3.615   0.272  0.00  0.00    -0.263 OA
ATOM     25  H   UNL     1      -1.233   6.011   0.396  0.00  0.00    +0.178 HD
BRANCH  22  27
ATOM     26  C   UNL     1      -3.319   7.556   0.625  0.00  0.00    +0.138 C 
ATOM     27  N   UNL     1      -3.386   6.264   0.512  0.00  0.00    -0.187 NA
BRANCH  26  32
ATOM     28  C   UNL     1      -8.139  10.654   1.114  0.00  0.00    +0.044 C 
ATOM     29  C   UNL     1      -6.876   9.842   0.986  0.00  0.00    -0.050 A 
ATOM     30  C   UNL     1      -5.647  10.477   0.990  0.00  0.00    +0.004 A 
ATOM     31  C   UNL     1      -4.486   9.741   0.873  0.00  0.00    +0.010 A 
ATOM     32  C   UNL     1      -4.554   8.351   0.751  0.00  0.00    -0.005 A 
ATOM     33  C   UNL     1      -5.800   7.717   0.742  0.00  0.00    +0.010 A 
ATOM     34  C   UNL     1      -6.952   8.466   0.865  0.00  0.00    +0.004 A 
ENDBRANCH  26  32
ENDBRANCH  22  27
ENDBRANCH   1  23
TORSDOF 6
