REMARK  Name = ZINC22971939
REMARK  7 active torsions:
REMARK  status: ('A' for Active; 'I' for Inactive)
REMARK    1  A    between atoms: C_1  and  C_2
REMARK    2  A    between atoms: C_5  and  N_9
REMARK    3  A    between atoms: N_9  and  S_10
REMARK    4  A    between atoms: S_10  and  C_13
REMARK    5  A    between atoms: C_17  and  C_19
REMARK    6  A    between atoms: N_21  and  C_22
REMARK    7  A    between atoms: C_22  and  C_23
REMARK                            x       y       z     vdW  Elec       q    Type
REMARK                         _______ _______ _______ _____ _____    ______ ____
ROOT
ATOM      1  C   UNL     1       1.519   2.282   0.035  0.00  0.00    +0.111 A 
ATOM      2  C   UNL     1       2.241   2.391   1.212  0.00  0.00    +0.030 A 
ATOM      3  C   UNL     1       3.533   2.884   1.194  0.00  0.00    +0.022 A 
ATOM      4  C   UNL     1       4.108   3.280   0.002  0.00  0.00    +0.053 A 
ATOM      5  C   UNL     1       3.382   3.177  -1.187  0.00  0.00    +0.057 A 
ATOM      6  C   UNL     1       2.080   2.674  -1.162  0.00  0.00    +0.043 A 
ATOM      7 CL   UNL     1       5.728   3.904  -0.018  0.00  0.00    -0.083 Cl
ENDROOT
BRANCH   5   8
ATOM      8  C   UNL     1       3.990   3.599  -2.467  0.00  0.00    +0.246 C 
ATOM      9  O   UNL     1       5.123   4.037  -2.486  0.00  0.00    -0.270 OA
ATOM     10  N   UNL     1       3.287   3.498  -3.612  0.00  0.00    -0.311 N 
ATOM     11  H   UNL     1       2.261   3.102  -3.595  0.00  0.00    +0.149 HD
BRANCH  10  12
ATOM     12  C   UNL     1       3.889   3.916  -4.880  0.00  0.00    +0.108 C 
BRANCH  12  13
ATOM     13  C   UNL     1       2.888   3.699  -6.017  0.00  0.00    +0.006 C 
ATOM     14  C   UNL     1       3.260   2.687  -7.102  0.00  0.00    +0.005 C 
ATOM     15  C   UNL     1       3.286   4.185  -7.412  0.00  0.00    +0.005 C 
ENDBRANCH  12  13
ENDBRANCH  10  12
ENDBRANCH   5   8
BRANCH   1  16
ATOM     16  S   UNL     1      -0.124   1.646   0.069  0.00  0.00    +0.092 S 
ATOM     17  O   UNL     1      -0.819   2.258  -1.009  0.00  0.00    -0.148 OA
ATOM     18  O   UNL     1      -0.570   1.744   1.415  0.00  0.00    -0.148 OA
BRANCH  16  19
ATOM     19  N   UNL     1      -0.032   0.031  -0.282  0.00  0.00    -0.098 NA
BRANCH  19  24
ATOM     20  C   UNL     1       2.725  -3.480   3.216  0.00  0.00    +0.045 C 
ATOM     21  C   UNL     1       1.992  -2.547   2.286  0.00  0.00    -0.032 A 
ATOM     22  C   UNL     1       2.572  -2.170   1.089  0.00  0.00    +0.007 A 
ATOM     23  C   UNL     1       1.901  -1.320   0.232  0.00  0.00    +0.027 A 
ATOM     24  C   UNL     1       0.647  -0.834   0.579  0.00  0.00    +0.076 A 
ATOM     25  C   UNL     1       0.066  -1.214   1.782  0.00  0.00    +0.047 A 
ATOM     26  C   UNL     1       0.741  -2.070   2.633  0.00  0.00    +0.046 A 
ATOM     27 CL   UNL     1       0.017  -2.545   4.138  0.00  0.00    -0.083 Cl
ENDBRANCH  19  24
ENDBRANCH  16  19
ENDBRANCH   1  16
TORSDOF 6
