REMARK  Name = ZINC39228767
REMARK  4 active torsions:
REMARK  status: ('A' for Active; 'I' for Inactive)
REMARK    1  A    between atoms: C_8  and  C_30
REMARK    2  A    between atoms: N_10  and  C_16
REMARK    3  A    between atoms: C_16  and  C_17
REMARK    4  A    between atoms: N_19  and  C_20
REMARK                            x       y       z     vdW  Elec       q    Type
REMARK                         _______ _______ _______ _____ _____    ______ ____
ROOT
ATOM      1  C   UNL     1       0.230   1.129   0.055  0.00  0.00    +0.001 A 
ATOM      2  C   UNL     1       0.222  -0.256  -0.042  0.00  0.00    +0.002 A 
ATOM      3  C   UNL     1      -0.967  -0.949  -0.099  0.00  0.00    +0.026 A 
ATOM      4  C   UNL     1      -2.173  -0.258  -0.059  0.00  0.00    +0.047 A 
ATOM      5  N   UNL     1      -3.493  -0.655  -0.097  0.00  0.00    -0.359 N 
ATOM      6  C   UNL     1      -4.309   0.435  -0.026  0.00  0.00    +0.011 A 
ATOM      7  H   UNL     1      -3.796  -1.574  -0.164  0.00  0.00    +0.166 HD
ATOM      8  C   UNL     1      -5.819   0.460  -0.031  0.00  0.00    +0.015 C 
ATOM      9  N   UNL     1      -6.269   1.762   0.485  0.00  0.00    +0.394 N 
ATOM     10  C   UNL     1      -5.622   2.853  -0.256  0.00  0.00    -0.072 C 
ATOM     11  C   UNL     1      -4.143   2.942   0.148  0.00  0.00    +0.019 C 
ATOM     12  C   UNL     1      -3.560   1.554   0.058  0.00  0.00    -0.022 A 
ATOM     13  C   UNL     1      -2.161   1.148   0.040  0.00  0.00    +0.003 A 
ATOM     14  C   UNL     1      -0.943   1.828   0.101  0.00  0.00    +0.010 A 
ATOM     15  H   UNL     1      -6.030   1.834   1.463  0.00  0.00    -0.080 HD
ENDROOT
BRANCH   8  16
ATOM     16  C   UNL     1      -6.324   0.267  -1.438  0.00  0.00    -0.008 A 
ATOM     17  C   UNL     1      -5.491   0.523  -2.512  0.00  0.00    +0.026 A 
ATOM     18  C   UNL     1      -5.950   0.346  -3.804  0.00  0.00    +0.045 A 
ATOM     19  C   UNL     1      -7.245  -0.087  -4.028  0.00  0.00    +0.069 A 
ATOM     20  C   UNL     1      -8.085  -0.344  -2.957  0.00  0.00    +0.168 A 
ATOM     21  C   UNL     1      -7.620  -0.172  -1.655  0.00  0.00    +0.168 A 
ATOM     22  O   UNL     1      -8.623  -0.493  -0.787  0.00  0.00    -0.452 OA
ATOM     23  C   UNL     1      -9.830  -0.477  -1.572  0.00  0.00    +0.466 C 
ATOM     24  O   UNL     1      -9.380  -0.771  -2.904  0.00  0.00    -0.453 OA
ATOM     25 CL   UNL     1      -4.900   0.669  -5.149  0.00  0.00    -0.083 Cl
ENDBRANCH   8  16
BRANCH   9  26
ATOM     26  C   UNL     1      -7.726   1.869   0.335  0.00  0.00    +0.020 C 
BRANCH  26  27
ATOM     27  C   UNL     1      -8.205   3.147   0.972  0.00  0.00    +0.201 C 
ATOM     28  O   UNL     1      -7.410   3.896   1.500  0.00  0.00    -0.278 OA
ATOM     29  N   UNL     1      -9.516   3.459   0.956  0.00  0.00    -0.287 N 
ATOM     30  H   UNL     1     -10.161   2.824   0.607  0.00  0.00    +0.155 HD
BRANCH  29  31
ATOM     31  C   UNL     1      -9.947   4.698   1.442  0.00  0.00    +0.037 A 
ATOM     32  C   UNL     1      -9.147   5.818   1.279  0.00  0.00    +0.023 A 
ATOM     33  C   UNL     1      -9.573   7.040   1.761  0.00  0.00    +0.002 A 
ATOM     34  C   UNL     1     -10.791   7.138   2.404  0.00  0.00    +0.004 A 
ATOM     35  C   UNL     1     -11.596   6.018   2.572  0.00  0.00    -0.042 A 
ATOM     36  C   UNL     1     -11.181   4.800   2.084  0.00  0.00    -0.023 A 
ATOM     37  C   UNL     1     -12.011   3.550   2.211  0.00  0.00    +0.037 C 
ATOM     38  C   UNL     1     -13.087   3.725   3.281  0.00  0.00    +0.005 C 
ATOM     39  C   UNL     1     -13.846   5.026   2.995  0.00  0.00    +0.005 C 
ATOM     40  C   UNL     1     -12.907   6.199   3.291  0.00  0.00    +0.035 C 
ENDBRANCH  29  31
ENDBRANCH  26  27
ENDBRANCH   9  26
TORSDOF 4
