REMARK  Name = ZINC03370515
REMARK  9 active torsions:
REMARK  status: ('A' for Active; 'I' for Inactive)
REMARK    1  A    between atoms: C_1  and  C_2
REMARK    2  A    between atoms: C_2  and  C_3
REMARK    3  A    between atoms: C_3  and  N_4
REMARK    4  A    between atoms: C_14  and  S_15
REMARK    5  A    between atoms: S_15  and  C_16
REMARK    6  A    between atoms: C_16  and  C_18
REMARK    7  A    between atoms: C_16  and  C_19
REMARK    8  A    between atoms: N_21  and  C_22
REMARK    9  A    between atoms: C_24  and  N_29
REMARK                            x       y       z     vdW  Elec       q    Type
REMARK                         _______ _______ _______ _____ _____    ______ ____
ROOT
ATOM      1  S   UNL     1      -1.413  -1.770   2.690  0.00  0.00    -0.075 S 
ENDROOT
BRANCH   1  12
ATOM      2  N   UNL     1      -1.457  -2.015   0.007  0.00  0.00    -0.287 N 
ATOM      3  C   UNL     1      -1.474  -2.683  -1.170  0.00  0.00    +0.262 A 
ATOM      4  O   UNL     1      -1.504  -2.088  -2.232  0.00  0.00    -0.267 OA
ATOM      5  C   UNL     1      -1.451  -4.150  -1.119  0.00  0.00    +0.065 A 
ATOM      6  C   UNL     1      -1.461  -4.926  -2.277  0.00  0.00    +0.017 A 
ATOM      7  C   UNL     1      -1.444  -6.290  -2.179  0.00  0.00    +0.021 A 
ATOM      8  C   UNL     1      -1.415  -6.912  -0.935  0.00  0.00    +0.043 A 
ATOM      9  C   UNL     1      -1.404  -6.169   0.225  0.00  0.00    +0.048 A 
ATOM     10  C   UNL     1      -1.422  -4.773   0.150  0.00  0.00    +0.080 A 
ATOM     11  N   UNL     1      -1.412  -4.003   1.263  0.00  0.00    -0.223 NA
ATOM     12  C   UNL     1      -1.429  -2.695   1.190  0.00  0.00    +0.173 A 
ATOM     13 CL   UNL     1      -1.393  -8.645  -0.844  0.00  0.00    -0.083 Cl
BRANCH   2  14
ATOM     14  C   UNL     1      -1.474  -0.550   0.011  0.00  0.00    +0.127 C 
BRANCH  14  16
ATOM     15  C   UNL     1      -0.056   1.507  -0.008  0.00  0.00    +0.005 C 
ATOM     16  C   UNL     1      -0.038  -0.022  -0.012  0.00  0.00    +0.018 C 
ENDBRANCH  14  16
ENDBRANCH   2  14
ENDBRANCH   1  12
BRANCH   1  17
ATOM     17  C   UNL     1      -1.378  -3.123   3.893  0.00  0.00    +0.137 C 
ATOM     18  C   UNL     1      -2.678  -3.924   3.798  0.00  0.00    +0.029 C 
BRANCH  17  19
ATOM     19  C   UNL     1      -1.236  -2.556   5.282  0.00  0.00    +0.230 C 
ATOM     20  O   UNL     1      -1.610  -1.427   5.517  0.00  0.00    -0.274 OA
ATOM     21  N   UNL     1      -0.695  -3.305   6.263  0.00  0.00    -0.283 N 
ATOM     22  H   UNL     1      -0.456  -4.229   6.092  0.00  0.00    +0.155 HD
BRANCH  21  23
ATOM     23  C   UNL     1      -0.477  -2.748   7.529  0.00  0.00    +0.054 A 
ATOM     24  C   UNL     1      -1.364  -1.809   8.038  0.00  0.00    +0.057 A 
ATOM     25  C   UNL     1      -1.147  -1.262   9.287  0.00  0.00    +0.128 A 
ATOM     26  C   UNL     1      -0.048  -1.649  10.033  0.00  0.00    +0.034 A 
ATOM     27  C   UNL     1       0.838  -2.584   9.529  0.00  0.00    +0.024 A 
ATOM     28  C   UNL     1       0.623  -3.139   8.282  0.00  0.00    +0.062 A 
ATOM     29 CL   UNL     1       1.732  -4.319   7.654  0.00  0.00    -0.082 Cl
BRANCH  25  30
ATOM     30  N   UNL     1      -2.092  -0.260   9.830  0.00  0.00    +0.056 N 
ATOM     31  O   UNL     1      -3.060   0.082   9.175  0.00  0.00    -0.126 OA
ATOM     32  O   UNL     1      -1.901   0.223  10.932  0.00  0.00    -0.126 OA
ENDBRANCH  25  30
ENDBRANCH  21  23
ENDBRANCH  17  19
ENDBRANCH   1  17
TORSDOF 7
