REMARK  Name = ZINC05449932
REMARK  9 active torsions:
REMARK  status: ('A' for Active; 'I' for Inactive)
REMARK    1  A    between atoms: C_1  and  C_2
REMARK    2  A    between atoms: C_2  and  C_3
REMARK    3  A    between atoms: C_3  and  C_5
REMARK    4  A    between atoms: C_3  and  C_6
REMARK    5  A    between atoms: C_9  and  N_12
REMARK    6  A    between atoms: C_22  and  S_23
REMARK    7  A    between atoms: S_23  and  C_24
REMARK    8  A    between atoms: C_24  and  C_26
REMARK    9  A    between atoms: C_24  and  C_27
REMARK                            x       y       z     vdW  Elec       q    Type
REMARK                         _______ _______ _______ _____ _____    ______ ____
ROOT
ATOM      1  N   UNL     1      -4.377   1.570  -0.478  0.00  0.00    -0.255 N 
ATOM      2  C   UNL     1      -4.938   2.672  -1.029  0.00  0.00    +0.267 A 
ATOM      3  O   UNL     1      -6.119   2.923  -0.874  0.00  0.00    -0.267 OA
ATOM      4  C   UNL     1      -4.071   3.550  -1.825  0.00  0.00    +0.067 A 
ATOM      5  C   UNL     1      -4.556   4.706  -2.437  0.00  0.00    +0.035 A 
ATOM      6  C   UNL     1      -3.697   5.494  -3.172  0.00  0.00    +0.042 A 
ATOM      7  C   UNL     1      -2.358   5.145  -3.307  0.00  0.00    +0.022 A 
ATOM      8  C   UNL     1      -1.863   4.018  -2.716  0.00  0.00    +0.030 A 
ATOM      9  C   UNL     1      -2.709   3.198  -1.964  0.00  0.00    +0.079 A 
ATOM     10  N   UNL     1      -2.254   2.073  -1.363  0.00  0.00    -0.223 NA
ATOM     11  C   UNL     1      -3.047   1.305  -0.657  0.00  0.00    +0.177 A 
ATOM     12 CL   UNL     1      -4.293   6.934  -3.938  0.00  0.00    -0.084 Cl
ENDROOT
BRANCH   1  16
ATOM     13  C   UNL     1      -6.716  -1.024   1.795  0.00  0.00    -0.044 A 
ATOM     14  C   UNL     1      -6.587  -1.226   0.433  0.00  0.00    +0.006 A 
ATOM     15  C   UNL     1      -5.812  -0.368  -0.323  0.00  0.00    +0.026 A 
ATOM     16  C   UNL     1      -5.163   0.698   0.286  0.00  0.00    +0.052 A 
ATOM     17  C   UNL     1      -5.290   0.894   1.655  0.00  0.00    +0.026 A 
ATOM     18  C   UNL     1      -6.071   0.036   2.404  0.00  0.00    +0.006 A 
BRANCH  13  19
ATOM     19  C   UNL     1      -7.562  -1.962   2.617  0.00  0.00    +0.016 C 
ATOM     20  C   UNL     1      -6.695  -2.623   3.690  0.00  0.00    +0.012 C 
BRANCH  19  22
ATOM     21  C   UNL     1      -9.622  -2.145   4.019  0.00  0.00    +0.004 C 
ATOM     22  C   UNL     1      -8.691  -1.176   3.286  0.00  0.00    +0.004 C 
ENDBRANCH  19  22
ENDBRANCH  13  19
ENDBRANCH   1  16
BRANCH  11  23
ATOM     23  S   UNL     1      -2.371  -0.141   0.090  0.00  0.00    -0.075 S 
BRANCH  23  24
ATOM     24  C   UNL     1      -0.651  -0.003  -0.460  0.00  0.00    +0.137 C 
ATOM     25  C   UNL     1      -0.590  -0.137  -1.982  0.00  0.00    +0.029 C 
BRANCH  24  26
ATOM     26  C   UNL     1       0.168  -1.097   0.175  0.00  0.00    +0.224 C 
ATOM     27  O   UNL     1      -0.368  -2.125   0.534  0.00  0.00    -0.275 OA
ATOM     28  N   UNL     1       1.495  -0.934   0.343  0.00  0.00    -0.328 N 
ATOM     29  H   UNL     1       1.923  -0.113   0.056  0.00  0.00    +0.145 HD
ATOM     30  H   UNL     1       2.022  -1.639   0.751  0.00  0.00    +0.145 HD
ENDBRANCH  24  26
ENDBRANCH  23  24
ENDBRANCH  11  23
TORSDOF 6
