REMARK  Name = ZINC18071128
REMARK  13 active torsions:
REMARK  status: ('A' for Active; 'I' for Inactive)
REMARK    1  A    between atoms: C_1  and  C_2
REMARK    2  A    between atoms: C_2  and  O_3
REMARK    3  A    between atoms: O_3  and  C_4
REMARK    4  A    between atoms: C_7  and  O_10
REMARK    5  A    between atoms: O_10  and  C_11
REMARK    6  A    between atoms: C_11  and  C_13
REMARK    7  A    between atoms: C_11  and  C_14
REMARK    8  A    between atoms: N_16  and  N_17
REMARK    9  A    between atoms: C_18  and  C_20
REMARK   10  A    between atoms: C_20  and  C_21
REMARK   11  A    between atoms: C_20  and  C_22
REMARK   12  A    between atoms: C_20  and  O_23
REMARK   13  A    between atoms: O_23  and  C_24
REMARK                            x       y       z     vdW  Elec       q    Type
REMARK                         _______ _______ _______ _____ _____    ______ ____
ROOT
ATOM      1  C   UNL     1       4.765   8.209  -0.305  0.00  0.00    +0.270 C 
ATOM      2  O   UNL     1       5.820   7.611  -0.328  0.00  0.00    -0.270 OA
ATOM      3  N   UNL     1       3.605   7.526  -0.233  0.00  0.00    -0.231 N 
ATOM      4  H   UNL     1       2.761   8.004  -0.215  0.00  0.00    +0.173 HD
ENDROOT
BRANCH   3   5
ATOM      5  N   UNL     1       3.619   6.126  -0.184  0.00  0.00    -0.231 N 
ATOM      6  C   UNL     1       2.459   5.443  -0.112  0.00  0.00    +0.272 C 
ATOM      7  O   UNL     1       1.404   6.040  -0.090  0.00  0.00    -0.270 OA
ATOM      8  H   UNL     1       4.463   5.648  -0.202  0.00  0.00    +0.173 HD
BRANCH   6   9
ATOM      9  C   UNL     1       2.474   3.937  -0.059  0.00  0.00    +0.181 C 
ATOM     10  C   UNL     1       3.251   3.477   1.176  0.00  0.00    +0.065 C 
ATOM     11  C   UNL     1       3.148   3.389  -1.319  0.00  0.00    +0.065 C 
BRANCH   9  12
ATOM     12  O   UNL     1       1.132   3.450   0.013  0.00  0.00    -0.477 OA
BRANCH  12  13
ATOM     13  C   UNL     1       0.311   3.745  -1.029  0.00  0.00    +0.122 A 
ATOM     14  C   UNL     1      -0.966   3.206  -1.081  0.00  0.00    +0.047 A 
ATOM     15  C   UNL     1      -1.799   3.508  -2.141  0.00  0.00    +0.023 A 
ATOM     16  C   UNL     1      -1.360   4.347  -3.150  0.00  0.00    +0.041 A 
ATOM     17  C   UNL     1      -0.087   4.885  -3.100  0.00  0.00    +0.023 A 
ATOM     18  C   UNL     1       0.750   4.585  -2.042  0.00  0.00    +0.047 A 
ATOM     19 CL   UNL     1      -2.409   4.724  -4.481  0.00  0.00    -0.084 Cl
ENDBRANCH  12  13
ENDBRANCH   9  12
ENDBRANCH   6   9
ENDBRANCH   3   5
BRANCH   1  20
ATOM     20  C   UNL     1       4.750   9.715  -0.358  0.00  0.00    +0.257 C 
ATOM     21  C   UNL     1       4.191  10.266   0.955  0.00  0.00    +0.062 C 
BRANCH  20  22
ATOM     22  O   UNL     1       6.082  10.198  -0.548  0.00  0.00    -0.480 OA
BRANCH  22  26
ATOM     23  C   UNL     1       6.496  13.912  -2.301  0.00  0.00    +0.121 A 
ATOM     24  C   UNL     1       5.235  13.434  -1.980  0.00  0.00    +0.049 A 
ATOM     25  C   UNL     1       5.096  12.191  -1.393  0.00  0.00    +0.049 A 
ATOM     26  C   UNL     1       6.218  11.421  -1.125  0.00  0.00    +0.122 A 
ATOM     27  C   UNL     1       7.481  11.902  -1.441  0.00  0.00    +0.049 A 
ATOM     28  C   UNL     1       7.619  13.143  -2.032  0.00  0.00    +0.049 A 
BRANCH  23  29
ATOM     29  O   UNL     1       6.633  15.135  -2.879  0.00  0.00    -0.492 OA
BRANCH  29  31
ATOM     30  C   UNL     1       7.915  16.953  -3.823  0.00  0.00    +0.048 C 
ATOM     31  C   UNL     1       7.962  15.565  -3.182  0.00  0.00    +0.225 C 
ENDBRANCH  29  31
ENDBRANCH  23  29
ENDBRANCH  22  26
ENDBRANCH  20  22
ENDBRANCH   1  20
TORSDOF 9
