REMARK  Name = ZINC39678674
REMARK  8 active torsions:
REMARK  status: ('A' for Active; 'I' for Inactive)
REMARK    1  A    between atoms: C_1  and  C_2
REMARK    2  A    between atoms: C_2  and  C_3
REMARK    3  A    between atoms: C_2  and  O_4
REMARK    4  A    between atoms: O_4  and  C_5
REMARK    5  A    between atoms: C_5  and  C_7
REMARK    6  A    between atoms: C_7  and  N_8
REMARK    7  A    between atoms: C_9  and  C_11
REMARK    8  A    between atoms: C_22  and  C_24
REMARK                            x       y       z     vdW  Elec       q    Type
REMARK                         _______ _______ _______ _____ _____    ______ ____
ROOT
ATOM      1  C   UNL     1       6.316  -1.255  -2.881  0.00  0.00    +0.100 C 
ATOM      2  C   UNL     1       7.111  -0.034  -2.368  0.00  0.00    +0.121 C 
ATOM      3  N   UNL     1       8.475  -0.218  -2.916  0.00  0.00    -0.296 N 
ATOM      4  C   UNL     1       8.255  -0.742  -4.285  0.00  0.00    +0.115 C 
ATOM      5  C   UNL     1       7.069  -1.717  -4.140  0.00  0.00    -0.004 C 
ATOM      6  C   UNL     1       7.578  -3.143  -3.958  0.00  0.00    -0.010 C 
ATOM      7  C   UNL     1       8.274  -3.600  -5.243  0.00  0.00    -0.082 C 
ATOM      8  N   UNL     1       7.327  -3.536  -6.363  0.00  0.00    +0.379 N 
ATOM      9  C   UNL     1       6.914  -2.146  -6.591  0.00  0.00    -0.082 C 
ATOM     10  C   UNL     1       6.160  -1.628  -5.362  0.00  0.00    -0.010 C 
ATOM     11  C   UNL     1       9.651   0.033  -2.308  0.00  0.00    +0.247 C 
ATOM     12  O   UNL     1       9.673   0.341  -1.132  0.00  0.00    -0.270 OA
ATOM     13  H   UNL     1       7.770  -3.894  -7.196  0.00  0.00    -0.086 HD
ATOM     14  H   UNL     1       6.516  -4.096  -6.149  0.00  0.00    -0.086 HD
ENDROOT
BRANCH  11  15
ATOM     15  C   UNL     1      10.914  -0.065  -3.070  0.00  0.00    +0.037 A 
ATOM     16  C   UNL     1      10.899   0.014  -4.463  0.00  0.00    +0.014 A 
ATOM     17  C   UNL     1      12.080  -0.077  -5.169  0.00  0.00    +0.021 A 
ATOM     18  C   UNL     1      13.279  -0.248  -4.498  0.00  0.00    +0.041 A 
ATOM     19  C   UNL     1      13.300  -0.328  -3.115  0.00  0.00    +0.021 A 
ATOM     20  C   UNL     1      12.126  -0.232  -2.398  0.00  0.00    +0.014 A 
ATOM     21 CL   UNL     1      14.762  -0.364  -5.393  0.00  0.00    -0.084 Cl
ENDBRANCH  11  15
BRANCH   1  23
ATOM     22  N   UNL     1       3.902  -1.746  -3.112  0.00  0.00    -0.305 N 
ATOM     23  C   UNL     1       4.906  -0.854  -3.231  0.00  0.00    +0.219 C 
ATOM     24  O   UNL     1       4.674   0.272  -3.619  0.00  0.00    -0.275 OA
ATOM     25  H   UNL     1       4.087  -2.646  -2.802  0.00  0.00    +0.149 HD
BRANCH  22  26
ATOM     26  C   UNL     1       2.532  -1.355  -3.452  0.00  0.00    +0.224 C 
BRANCH  26  27
ATOM     27  C   UNL     1       1.607  -2.526  -3.234  0.00  0.00    +0.325 C 
ATOM     28  O   UNL     1       2.048  -3.578  -2.836  0.00  0.00    -0.249 OA
BRANCH  27  29
ATOM     29  O   UNL     1       0.294  -2.399  -3.483  0.00  0.00    -0.461 OA
BRANCH  29  31
ATOM     30  C   UNL     1      -1.031  -3.534  -1.811  0.00  0.00    +0.052 C 
ATOM     31  C   UNL     1      -0.523  -3.549  -3.254  0.00  0.00    +0.170 C 
ATOM     32  C   UNL     1      -1.714  -3.528  -4.215  0.00  0.00    +0.052 C 
ENDBRANCH  29  31
ENDBRANCH  27  29
ENDBRANCH  26  27
ENDBRANCH  22  26
ENDBRANCH   1  23
TORSDOF 6
