REMARK  Name = ZINC63281479
REMARK  8 active torsions:
REMARK  status: ('A' for Active; 'I' for Inactive)
REMARK    1  A    between atoms: C_4  and  S_7
REMARK    2  A    between atoms: S_7  and  N_10
REMARK    3  A    between atoms: N_10  and  C_11
REMARK    4  A    between atoms: C_11  and  C_12
REMARK    5  A    between atoms: C_15  and  C_18
REMARK    6  A    between atoms: N_20  and  C_21
REMARK    7  A    between atoms: C_21  and  C_22
REMARK    8  A    between atoms: C_22  and  C_23
REMARK                            x       y       z     vdW  Elec       q    Type
REMARK                         _______ _______ _______ _____ _____    ______ ____
ROOT
ATOM      1  C   UNL     1       4.365  -2.303   3.652  0.00  0.00    +0.005 C 
ATOM      2  C   UNL     1       5.579  -3.148   3.259  0.00  0.00    +0.005 C 
ATOM      3  C   UNL     1       6.377  -3.510   4.513  0.00  0.00    +0.013 C 
ATOM      4  C   UNL     1       5.489  -4.307   5.471  0.00  0.00    +0.075 C 
ATOM      5  C   UNL     1       4.276  -3.462   5.864  0.00  0.00    +0.013 C 
ATOM      6  C   UNL     1       3.477  -3.101   4.610  0.00  0.00    +0.005 C 
ENDROOT
BRANCH   4   7
ATOM      7  C   UNL     1       5.023  -5.569   4.791  0.00  0.00    +0.216 C 
ATOM      8  O   UNL     1       5.368  -5.807   3.653  0.00  0.00    -0.276 OA
ATOM      9  N   UNL     1       4.224  -6.433   5.448  0.00  0.00    -0.315 N 
ATOM     10  H   UNL     1       3.949  -6.242   6.358  0.00  0.00    +0.149 HD
BRANCH   9  11
ATOM     11  C   UNL     1       3.772  -7.659   4.787  0.00  0.00    +0.108 C 
BRANCH  11  12
ATOM     12  C   UNL     1       2.884  -8.457   5.744  0.00  0.00    +0.052 C 
BRANCH  12  13
ATOM     13  C   UNL     1       2.418  -9.718   5.064  0.00  0.00    -0.040 C 
ATOM     14  C   UNL     1       2.983 -10.944   5.150  0.00  0.00    -0.001 A 
ATOM     15  C   UNL     1       4.155 -11.450   5.874  0.00  0.00    +0.010 A 
ATOM     16  C   UNL     1       4.481 -12.758   5.762  0.00  0.00    +0.001 A 
ATOM     17  C   UNL     1       3.729 -13.640   4.973  0.00  0.00    +0.002 A 
ATOM     18  C   UNL     1       2.639 -13.250   4.279  0.00  0.00    +0.026 A 
ATOM     19  C   UNL     1       2.205 -11.896   4.325  0.00  0.00    +0.043 A 
ATOM     20  N   UNL     1       1.199 -11.282   3.751  0.00  0.00    -0.380 N 
ATOM     21  C   UNL     1       1.221  -9.871   4.153  0.00  0.00    +0.144 C 
ATOM     22  H   UNL     1       0.546 -11.693   3.163  0.00  0.00    +0.160 HD
ENDBRANCH  12  13
ENDBRANCH  11  12
ENDBRANCH   9  11
ENDBRANCH   4   7
BRANCH   1  23
ATOM     23  C   UNL     1       3.567  -1.942   2.398  0.00  0.00    +0.109 C 
BRANCH  23  24
ATOM     24  N   UNL     1       4.378  -1.079   1.536  0.00  0.00    -0.190 NA
ATOM     25  H   UNL     1       5.174  -0.651   1.888  0.00  0.00    +0.148 HD
BRANCH  24  26
ATOM     26  S   UNL     1       3.934  -0.832  -0.041  0.00  0.00    +0.058 S 
ATOM     27  O   UNL     1       3.674  -2.114  -0.595  0.00  0.00    -0.153 OA
ATOM     28  O   UNL     1       4.890   0.060  -0.597  0.00  0.00    -0.153 OA
BRANCH  26  32
ATOM     29  C   UNL     1      -0.017   1.378   0.010  0.00  0.00    +0.000 A 
ATOM     30  C   UNL     1       1.171   2.086   0.002  0.00  0.00    +0.002 A 
ATOM     31  C   UNL     1       2.377   1.411  -0.013  0.00  0.00    +0.028 A 
ATOM     32  C   UNL     1       2.396   0.029  -0.020  0.00  0.00    +0.105 A 
ATOM     33  C   UNL     1       1.208  -0.679  -0.012  0.00  0.00    +0.028 A 
ATOM     34  C   UNL     1       0.002  -0.004   0.002  0.00  0.00    +0.002 A 
ENDBRANCH  26  32
ENDBRANCH  24  26
ENDBRANCH  23  24
ENDBRANCH   1  23
TORSDOF 8
