REMARK  Name = ZINC20480628
REMARK  6 active torsions:
REMARK  status: ('A' for Active; 'I' for Inactive)
REMARK    1  A    between atoms: C_1  and  C_2
REMARK    2  A    between atoms: C_4  and  C_12
REMARK    3  A    between atoms: C_6  and  N_9
REMARK    4  A    between atoms: C_7  and  C_8
REMARK    5  A    between atoms: C_12  and  C_14
REMARK    6  A    between atoms: C_12  and  N_21
REMARK                            x       y       z     vdW  Elec       q    Type
REMARK                         _______ _______ _______ _____ _____    ______ ____
ROOT
ATOM      1  C   UNL     1      -0.864   1.423  -1.118  0.00  0.00    -0.013 C 
ENDROOT
BRANCH   1   5
ATOM      2  C   UNL     1       0.698   2.553  -5.736  0.00  0.00    +0.044 C 
ATOM      3  C   UNL     1       0.530   1.550  -4.624  0.00  0.00    -0.045 A 
ATOM      4  C   UNL     1      -0.068   1.928  -3.436  0.00  0.00    +0.006 A 
ATOM      5  C   UNL     1      -0.217   1.010  -2.415  0.00  0.00    -0.055 A 
ATOM      6  C   UNL     1       0.221  -0.291  -2.584  0.00  0.00    +0.035 A 
ATOM      7  C   UNL     1       0.813  -0.670  -3.774  0.00  0.00    +0.130 A 
ATOM      8  C   UNL     1       0.968   0.250  -4.794  0.00  0.00    -0.017 A 
ATOM      9  C   UNL     1       1.613  -0.164  -6.091  0.00  0.00    +0.046 C 
BRANCH   7  10
ATOM     10  N   UNL     1       1.282  -2.062  -3.956  0.00  0.00    +0.057 N 
ATOM     11  O   UNL     1       1.165  -2.608  -5.039  0.00  0.00    -0.126 OA
ATOM     12  O   UNL     1       1.785  -2.663  -3.023  0.00  0.00    -0.126 OA
ENDBRANCH   7  10
ENDBRANCH   1   5
BRANCH   1  13
ATOM     13  C   UNL     1      -2.303   0.977  -1.109  0.00  0.00    -0.057 A 
ATOM     14  C   UNL     1      -3.309   1.879  -1.402  0.00  0.00    +0.002 A 
ATOM     15  C   UNL     1      -4.629   1.470  -1.394  0.00  0.00    +0.001 A 
ATOM     16  C   UNL     1      -4.944   0.158  -1.093  0.00  0.00    +0.014 A 
ATOM     17  C   UNL     1      -3.939  -0.744  -0.799  0.00  0.00    +0.014 A 
ATOM     18  C   UNL     1      -2.617  -0.336  -0.812  0.00  0.00    +0.016 A 
ATOM     19  I   UNL     1      -4.416  -2.732  -0.342  0.00  0.00    -0.044 I 
ENDBRANCH   1  13
BRANCH   1  20
ATOM     20  N   UNL     1      -0.151   0.801   0.005  0.00  0.00    +0.385 N 
ATOM     21  H   UNL     1      -0.622   1.103   0.952  0.00  0.00    -0.089 HD
ATOM     22  H   UNL     1       0.900   1.127  -0.001  0.00  0.00    -0.089 HD
ATOM     23  H   UNL     1      -0.195  -0.294  -0.094  0.00  0.00    -0.089 HD
ENDBRANCH   1  20
TORSDOF 4
