REMARK  Name = ZINC20573400
REMARK  10 active torsions:
REMARK  status: ('A' for Active; 'I' for Inactive)
REMARK    1  A    between atoms: C_1  and  C_2
REMARK    2  A    between atoms: C_2  and  C_4
REMARK    3  A    between atoms: C_2  and  N_21
REMARK    4  A    between atoms: C_22  and  C_24
REMARK    5  A    between atoms: C_26  and  O_34
REMARK    6  A    between atoms: C_27  and  O_32
REMARK    7  A    between atoms: C_28  and  O_30
REMARK    8  A    between atoms: O_30  and  C_31
REMARK    9  A    between atoms: O_32  and  C_33
REMARK   10  A    between atoms: O_34  and  C_35
REMARK                            x       y       z     vdW  Elec       q    Type
REMARK                         _______ _______ _______ _____ _____    ______ ____
ROOT
ATOM      1  C   UNL     1       0.835  -0.501   1.155  0.00  0.00    +0.236 C 
ATOM      2  O   UNL     1       0.295  -0.973   2.134  0.00  0.00    -0.274 OA
ATOM      3  N   UNL     1       2.179  -0.423   1.099  0.00  0.00    -0.300 N 
ATOM      4  C   UNL     1       2.844   0.249  -0.026  0.00  0.00    +0.110 C 
ATOM      5  C   UNL     1       3.796   1.313   0.528  0.00  0.00    +0.047 C 
ATOM      6  C   UNL     1       4.753   0.666   1.530  0.00  0.00    +0.064 C 
ATOM      7  C   UNL     1       3.959   0.070   2.693  0.00  0.00    +0.047 C 
ATOM      8  C   UNL     1       3.008  -1.002   2.165  0.00  0.00    +0.110 C 
ATOM      9  C   UNL     1       5.717   1.700   2.050  0.00  0.00    +0.057 A 
ATOM     10  C   UNL     1       7.044   1.474   2.187  0.00  0.00    +0.039 A 
ATOM     11  N   UNL     1       7.597   2.615   2.675  0.00  0.00    -0.349 N 
ATOM     12  H   UNL     1       8.535   2.761   2.877  0.00  0.00    +0.166 HD
ATOM     13  C   UNL     1       6.592   3.508   2.825  0.00  0.00    +0.171 A 
ATOM     14  N   UNL     1       5.471   2.949   2.448  0.00  0.00    -0.348 N 
ATOM     15  C   UNL     1       7.704   0.164   1.841  0.00  0.00    +0.070 C 
ATOM     16  C   UNL     1       6.603  -0.900   1.721  0.00  0.00    +0.088 C 
ATOM     17  N   UNL     1       5.521  -0.396   0.862  0.00  0.00    -0.305 NA
ATOM     18  H   UNL     1       4.917  -1.147   0.564  0.00  0.00    +0.123 HD
ATOM     19  H   UNL     1       4.599   3.375   2.457  0.00  0.00    +0.166 HD
ENDROOT
BRANCH   1  21
ATOM     20  C   UNL     1      -0.259   1.494   0.170  0.00  0.00    +0.038 C 
ATOM     21  C   UNL     1       0.002  -0.004   0.002  0.00  0.00    +0.156 C 
BRANCH  21  22
ATOM     22  N   UNL     1      -1.274  -0.723  -0.024  0.00  0.00    -0.300 N 
ATOM     23  C   UNL     1      -1.956  -0.843  -1.180  0.00  0.00    +0.245 C 
ATOM     24  O   UNL     1      -1.512  -0.356  -2.202  0.00  0.00    -0.270 OA
ATOM     25  H   UNL     1      -1.629  -1.111   0.791  0.00  0.00    +0.150 HD
BRANCH  23  26
ATOM     26  C   UNL     1      -3.243  -1.567  -1.206  0.00  0.00    +0.044 A 
ATOM     27  C   UNL     1      -3.757  -2.122  -0.032  0.00  0.00    +0.062 A 
ATOM     28  C   UNL     1      -4.962  -2.799  -0.059  0.00  0.00    +0.166 A 
ATOM     29  C   UNL     1      -5.663  -2.928  -1.256  0.00  0.00    +0.204 A 
ATOM     30  C   UNL     1      -5.152  -2.376  -2.427  0.00  0.00    +0.166 A 
ATOM     31  C   UNL     1      -3.951  -1.692  -2.404  0.00  0.00    +0.062 A 
BRANCH  30  32
ATOM     32  O   UNL     1      -5.839  -2.503  -3.594  0.00  0.00    -0.491 OA
ATOM     33  C   UNL     1      -5.256  -1.913  -4.758  0.00  0.00    +0.277 C 
ENDBRANCH  30  32
BRANCH  29  34
ATOM     34  O   UNL     1      -6.847  -3.594  -1.280  0.00  0.00    -0.488 OA
ATOM     35  C   UNL     1      -8.029  -2.825  -1.047  0.00  0.00    +0.277 C 
ENDBRANCH  29  34
BRANCH  28  36
ATOM     36  O   UNL     1      -5.463  -3.340   1.083  0.00  0.00    -0.491 OA
ATOM     37  C   UNL     1      -4.692  -3.170   2.274  0.00  0.00    +0.277 C 
ENDBRANCH  28  36
ENDBRANCH  23  26
ENDBRANCH  21  22
ENDBRANCH   1  21
TORSDOF 6
