REMARK  Name = ZINC67333100
REMARK  4 active torsions:
REMARK  status: ('A' for Active; 'I' for Inactive)
REMARK    1  A    between atoms: C_3  and  C_8
REMARK    2  A    between atoms: C_11  and  N_13
REMARK    3  A    between atoms: C_14  and  C_16
REMARK    4  A    between atoms: C_19  and  N_26
REMARK                            x       y       z     vdW  Elec       q    Type
REMARK                         _______ _______ _______ _____ _____    ______ ____
ROOT
ATOM      1  N   UNL     1       4.193   1.028  -2.245  0.00  0.00    -0.307 N 
ATOM      2  C   UNL     1       4.672   1.149  -3.499  0.00  0.00    +0.265 C 
ATOM      3  O   UNL     1       5.455   2.040  -3.768  0.00  0.00    -0.268 OA
ATOM      4  H   UNL     1       3.569   0.318  -2.031  0.00  0.00    +0.149 HD
ENDROOT
BRANCH   2   5
ATOM      5  C   UNL     1       4.247   0.202  -4.545  0.00  0.00    +0.155 A 
ATOM      6  C   UNL     1       4.676   0.190  -5.949  0.00  0.00    +0.034 A 
ATOM      7  C   UNL     1       5.530   0.959  -6.734  0.00  0.00    +0.045 A 
ATOM      8  C   UNL     1       5.695   0.648  -8.055  0.00  0.00    +0.127 A 
ATOM      9  C   UNL     1       5.018  -0.427  -8.616  0.00  0.00    +0.035 A 
ATOM     10  C   UNL     1       4.174  -1.196  -7.863  0.00  0.00    +0.030 A 
ATOM     11  C   UNL     1       3.988  -0.901  -6.516  0.00  0.00    +0.067 A 
ATOM     12  N   UNL     1       3.241  -1.445  -5.504  0.00  0.00    -0.276 N 
ATOM     13  H   UNL     1       2.662  -2.216  -5.605  0.00  0.00    +0.189 HD
ATOM     14  N   UNL     1       3.412  -0.806  -4.404  0.00  0.00    -0.168 NA
BRANCH   8  15
ATOM     15  N   UNL     1       6.602   1.463  -8.894  0.00  0.00    +0.056 N 
ATOM     16  O   UNL     1       7.194   2.400  -8.411  0.00  0.00    -0.126 OA
ATOM     17  O   UNL     1       6.751   1.192 -10.063  0.00  0.00    -0.126 OA
ENDBRANCH   8  15
ENDBRANCH   2   5
BRANCH   1  20
ATOM     18  C   UNL     1       3.672   2.186  -0.021  0.00  0.00    +0.041 C 
ATOM     19  C   UNL     1       4.968   1.396   0.169  0.00  0.00    +0.033 C 
ATOM     20  C   UNL     1       4.616   1.970  -1.206  0.00  0.00    +0.081 C 
BRANCH  18  23
ATOM     21  C   UNL     1      -0.017   1.377   0.010  0.00  0.00    +0.003 A 
ATOM     22  C   UNL     1       1.171   2.086   0.002  0.00  0.00    +0.004 A 
ATOM     23  C   UNL     1       2.378   1.413  -0.013  0.00  0.00    -0.040 A 
ATOM     24  C   UNL     1       2.399   0.030  -0.021  0.00  0.00    +0.042 A 
ATOM     25  C   UNL     1       1.211  -0.679  -0.013  0.00  0.00    +0.124 A 
ATOM     26  C   UNL     1       0.002  -0.004   0.002  0.00  0.00    +0.038 A 
ATOM     27  F   UNL     1       1.230  -2.030  -0.022  0.00  0.00    -0.205 F 
ENDBRANCH  18  23
ENDBRANCH   1  20
TORSDOF 4
