REMARK  Name = ZINC03400982
REMARK  11 active torsions:
REMARK  status: ('A' for Active; 'I' for Inactive)
REMARK    1  A    between atoms: C_1  and  C_2
REMARK    2  A    between atoms: C_5  and  C_28
REMARK    3  A    between atoms: C_6  and  C_8
REMARK    4  A    between atoms: C_8  and  O_10
REMARK    5  A    between atoms: O_10  and  C_11
REMARK    6  A    between atoms: C_11  and  C_13
REMARK    7  A    between atoms: C_11  and  C_14
REMARK    8  A    between atoms: N_16  and  C_17
REMARK    9  A    between atoms: C_19  and  N_25
REMARK   10  A    between atoms: C_22  and  O_23
REMARK   11  A    between atoms: O_23  and  C_24
REMARK                            x       y       z     vdW  Elec       q    Type
REMARK                         _______ _______ _______ _____ _____    ______ ____
ROOT
ATOM      1  C   UNL     1      -4.761  -0.154  -0.270  0.00  0.00    +0.258 C 
ATOM      2  O   UNL     1      -3.718  -0.773  -0.268  0.00  0.00    -0.271 OA
ATOM      3  N   UNL     1      -4.746   1.192  -0.202  0.00  0.00    -0.279 N 
ATOM      4  H   UNL     1      -5.579   1.682  -0.123  0.00  0.00    +0.155 HD
ENDROOT
BRANCH   3   5
ATOM      5  C   UNL     1      -3.528   1.882  -0.247  0.00  0.00    +0.078 A 
ATOM      6  C   UNL     1      -2.420   1.300  -0.845  0.00  0.00    +0.059 A 
ATOM      7  C   UNL     1      -1.220   1.983  -0.888  0.00  0.00    +0.128 A 
ATOM      8  C   UNL     1      -1.118   3.245  -0.331  0.00  0.00    +0.036 A 
ATOM      9  C   UNL     1      -2.219   3.833   0.263  0.00  0.00    +0.050 A 
ATOM     10  C   UNL     1      -3.426   3.155   0.310  0.00  0.00    +0.141 A 
BRANCH   7  11
ATOM     11  N   UNL     1      -0.038   1.361  -1.526  0.00  0.00    +0.056 N 
ATOM     12  O   UNL     1      -0.125   0.248  -2.013  0.00  0.00    -0.126 OA
ATOM     13  O   UNL     1       1.019   1.964  -1.569  0.00  0.00    -0.126 OA
ENDBRANCH   7  11
BRANCH  10  14
ATOM     14  O   UNL     1      -4.509   3.730   0.898  0.00  0.00    -0.493 OA
ATOM     15  C   UNL     1      -4.330   5.037   1.447  0.00  0.00    +0.277 C 
ENDBRANCH  10  14
ENDBRANCH   3   5
BRANCH   1  16
ATOM     16  C   UNL     1      -6.074  -0.891  -0.349  0.00  0.00    +0.259 C 
ATOM     17  C   UNL     1      -6.911  -0.574   0.892  0.00  0.00    +0.062 C 
BRANCH  16  18
ATOM     18  O   UNL     1      -5.824  -2.320  -0.412  0.00  0.00    -0.449 OA
BRANCH  18  19
ATOM     19  C   UNL     1      -6.723  -3.069  -1.079  0.00  0.00    +0.340 C 
ATOM     20  O   UNL     1      -7.690  -2.542  -1.594  0.00  0.00    -0.245 OA
BRANCH  19  26
ATOM     21  C   UNL     1      -4.162  -7.186   0.096  0.00  0.00    +0.044 C 
ATOM     22  C   UNL     1      -5.304  -6.515  -0.622  0.00  0.00    -0.050 A 
ATOM     23  C   UNL     1      -6.180  -7.269  -1.383  0.00  0.00    +0.003 A 
ATOM     24  C   UNL     1      -7.231  -6.661  -2.046  0.00  0.00    +0.004 A 
ATOM     25  C   UNL     1      -7.417  -5.298  -1.947  0.00  0.00    -0.036 A 
ATOM     26  C   UNL     1      -6.534  -4.530  -1.185  0.00  0.00    +0.062 A 
ATOM     27  C   UNL     1      -5.475  -5.150  -0.519  0.00  0.00    +0.018 A 
ATOM     28  C   UNL     1      -8.566  -4.638  -2.664  0.00  0.00    +0.044 C 
ENDBRANCH  19  26
ENDBRANCH  18  19
ENDBRANCH  16  18
ENDBRANCH   1  16
TORSDOF 7
