REMARK  Name = ZINC39372810
REMARK  9 active torsions:
REMARK  status: ('A' for Active; 'I' for Inactive)
REMARK    1  A    between atoms: C_1  and  C_2
REMARK    2  A    between atoms: C_2  and  O_3
REMARK    3  A    between atoms: O_3  and  C_4
REMARK    4  A    between atoms: C_4  and  C_6
REMARK    5  A    between atoms: C_7  and  N_33
REMARK    6  A    between atoms: C_9  and  C_27
REMARK    7  A    between atoms: C_10  and  C_19
REMARK    8  A    between atoms: C_11  and  C_13
REMARK    9  A    between atoms: C_19  and  C_21
REMARK                            x       y       z     vdW  Elec       q    Type
REMARK                         _______ _______ _______ _____ _____    ______ ____
ROOT
ATOM      1  C   UNL     1       1.674  -2.062  -2.407  0.00  0.00    +0.105 C 
ATOM      2  C   UNL     1       1.468  -3.403  -2.471  0.00  0.00    +0.195 C 
ATOM      3  O   UNL     1       1.935  -4.140  -3.494  0.00  0.00    -0.441 OA
ATOM      4  C   UNL     1       2.285  -3.540  -4.647  0.00  0.00    +0.145 C 
ATOM      5  C   UNL     1       2.538  -2.209  -4.710  0.00  0.00    +0.055 C 
ATOM      6  C   UNL     1       2.433  -1.342  -3.487  0.00  0.00    +0.098 C 
ENDROOT
BRANCH   6   7
ATOM      7  C   UNL     1       3.818  -1.014  -2.992  0.00  0.00    -0.035 A 
ATOM      8  C   UNL     1       4.706  -2.031  -2.699  0.00  0.00    +0.004 A 
ATOM      9  C   UNL     1       5.977  -1.730  -2.245  0.00  0.00    +0.000 A 
ATOM     10  C   UNL     1       6.359  -0.412  -2.083  0.00  0.00    +0.000 A 
ATOM     11  C   UNL     1       5.470   0.606  -2.377  0.00  0.00    +0.000 A 
ATOM     12  C   UNL     1       4.201   0.305  -2.835  0.00  0.00    +0.004 A 
ENDBRANCH   6   7
BRANCH   4  13
ATOM     13  C   UNL     1       2.397  -4.352  -5.874  0.00  0.00    +0.018 A 
ATOM     14  C   UNL     1       3.141  -5.534  -5.869  0.00  0.00    +0.011 A 
ATOM     15  C   UNL     1       3.241  -6.288  -7.019  0.00  0.00    +0.001 A 
ATOM     16  C   UNL     1       2.606  -5.875  -8.178  0.00  0.00    +0.000 A 
ATOM     17  C   UNL     1       1.868  -4.705  -8.191  0.00  0.00    +0.001 A 
ATOM     18  C   UNL     1       1.754  -3.944  -7.046  0.00  0.00    +0.011 A 
ENDBRANCH   4  13
BRANCH   2  19
ATOM     19  N   UNL     1       0.768  -4.020  -1.469  0.00  0.00    -0.329 N 
ATOM     20  H   UNL     1       0.362  -3.491  -0.765  0.00  0.00    +0.145 HD
ATOM     21  H   UNL     1       0.679  -4.986  -1.464  0.00  0.00    +0.145 HD
ENDBRANCH   2  19
BRANCH   1  22
ATOM     22  C   UNL     1       1.165  -1.337  -1.318  0.00  0.00    +0.341 C 
ATOM     23  O   UNL     1       0.175  -0.642  -1.459  0.00  0.00    -0.245 OA
BRANCH  22  24
ATOM     24  O   UNL     1       1.774  -1.411  -0.115  0.00  0.00    -0.462 OA
BRANCH  24  26
ATOM     25  C   UNL     1       2.021  -0.854   2.224  0.00  0.00    +0.048 C 
ATOM     26  C   UNL     1       1.202  -0.646   0.949  0.00  0.00    +0.229 C 
ENDBRANCH  24  26
ENDBRANCH  22  24
ENDBRANCH   1  22
BRANCH   5  27
ATOM     27  C   UNL     1       2.901  -1.628  -5.943  0.00  0.00    +0.194 C 
ATOM     28  O   UNL     1       3.965  -1.917  -6.463  0.00  0.00    -0.287 OA
BRANCH  27  29
ATOM     29  C   UNL     1       1.991  -0.667  -6.605  0.00  0.00    +0.022 A 
ATOM     30  C   UNL     1       0.791  -0.303  -5.993  0.00  0.00    +0.012 A 
ATOM     31  C   UNL     1      -0.053   0.594  -6.615  0.00  0.00    +0.001 A 
ATOM     32  C   UNL     1       0.287   1.130  -7.844  0.00  0.00    +0.000 A 
ATOM     33  C   UNL     1       1.475   0.773  -8.457  0.00  0.00    +0.001 A 
ATOM     34  C   UNL     1       2.331  -0.118  -7.842  0.00  0.00    +0.012 A 
ENDBRANCH  27  29
ENDBRANCH   5  27
TORSDOF 8
