REMARK  Name = ZINC57622010
REMARK  7 active torsions:
REMARK  status: ('A' for Active; 'I' for Inactive)
REMARK    1  A    between atoms: C_1  and  C_2
REMARK    2  A    between atoms: C_2  and  C_3
REMARK    3  A    between atoms: C_3  and  C_25
REMARK    4  A    between atoms: N_6  and  C_10
REMARK    5  A    between atoms: C_10  and  C_11
REMARK    6  A    between atoms: C_20  and  C_24
REMARK    7  A    between atoms: C_25  and  C_26
REMARK                            x       y       z     vdW  Elec       q    Type
REMARK                         _______ _______ _______ _____ _____    ______ ____
ROOT
ATOM      1  C   UNL     1      -5.368   0.431  -1.812  0.00  0.00    +0.237 C 
ATOM      2  O   UNL     1      -5.362  -0.684  -1.335  0.00  0.00    -0.274 OA
ATOM      3  N   UNL     1      -6.410   0.837  -2.564  0.00  0.00    -0.263 N 
ATOM      4  C   UNL     1      -7.479  -0.023  -2.793  0.00  0.00    +0.165 A 
ATOM      5  N   UNL     1      -7.647  -1.252  -2.357  0.00  0.00    -0.229 NA
ATOM      6  C   UNL     1      -8.730  -1.963  -2.657  0.00  0.00    +0.054 A 
ATOM      7  C   UNL     1      -9.634  -1.322  -3.442  0.00  0.00    +0.015 A 
ATOM      8  S   UNL     1      -8.877   0.259  -3.691  0.00  0.00    -0.057 S 
ATOM      9  C   UNL     1     -10.934  -1.846  -3.948  0.00  0.00    +0.047 C 
ATOM     10  C   UNL     1     -10.947  -3.371  -3.751  0.00  0.00    -0.009 C 
ATOM     11  C   UNL     1     -10.480  -3.689  -2.328  0.00  0.00    +0.010 C 
ATOM     12  C   UNL     1      -8.987  -3.387  -2.184  0.00  0.00    +0.056 C 
ATOM     13  C   UNL     1     -12.366  -3.904  -3.960  0.00  0.00    +0.008 C 
ATOM     14  H   UNL     1      -6.415   1.728  -2.946  0.00  0.00    +0.157 HD
ENDROOT
BRANCH   1  15
ATOM     15  C   UNL     1      -4.210   1.363  -1.565  0.00  0.00    +0.214 C 
BRANCH  15  19
ATOM     16  C   UNL     1      -1.433  -0.534   0.013  0.00  0.00    +0.112 C 
ATOM     17  C   UNL     1      -2.192  -0.043  -1.205  0.00  0.00    +0.247 C 
ATOM     18  O   UNL     1      -1.933  -0.267  -2.368  0.00  0.00    -0.273 OA
ATOM     19  N   UNL     1      -3.214   0.692  -0.725  0.00  0.00    -0.215 N 
ATOM     20  C   UNL     1      -3.207   0.734   0.612  0.00  0.00    +0.310 C 
ATOM     21  O   UNL     1      -4.031   1.335   1.273  0.00  0.00    -0.252 OA
ATOM     22  N   UNL     1      -2.187   0.036   1.143  0.00  0.00    -0.285 N 
ATOM     23  H   UNL     1      -1.987  -0.072   2.086  0.00  0.00    +0.151 HD
BRANCH  16  25
ATOM     24  C   UNL     1      -0.019   1.526   0.010  0.00  0.00    +0.006 C 
ATOM     25  C   UNL     1       0.002  -0.004   0.002  0.00  0.00    +0.032 C 
ENDBRANCH  16  25
BRANCH  16  26
ATOM     26  C   UNL     1      -1.441  -2.062   0.076  0.00  0.00    +0.032 C 
ATOM     27  C   UNL     1      -2.886  -2.565   0.086  0.00  0.00    +0.006 C 
ENDBRANCH  16  26
ENDBRANCH  15  19
ENDBRANCH   1  15
TORSDOF 4
