REMARK  Name = ZINC58912687
REMARK  12 active torsions:
REMARK  status: ('A' for Active; 'I' for Inactive)
REMARK    1  A    between atoms: C_1  and  C_2
REMARK    2  A    between atoms: C_2  and  O_3
REMARK    3  A    between atoms: O_3  and  C_4
REMARK    4  A    between atoms: C_7  and  N_10
REMARK    5  A    between atoms: C_11  and  C_32
REMARK    6  A    between atoms: C_13  and  C_16
REMARK    7  A    between atoms: C_14  and  C_15
REMARK    8  A    between atoms: N_17  and  N_18
REMARK    9  A    between atoms: C_19  and  C_21
REMARK   10  A    between atoms: N_23  and  C_24
REMARK   11  A    between atoms: C_26  and  C_31
REMARK   12  A    between atoms: C_29  and  C_30
REMARK                            x       y       z     vdW  Elec       q    Type
REMARK                         _______ _______ _______ _____ _____    ______ ____
ROOT
ATOM      1  C   UNL     1      -3.071  -9.165   1.406  0.00  0.00    +0.140 C 
ATOM      2  N   UNL     1      -3.594  -8.964   2.578  0.00  0.00    -0.187 NA
ENDROOT
BRANCH   1   6
ATOM      3  N   UNL     1      -2.044  -5.983  -0.036  0.00  0.00    -0.317 N 
ATOM      4  C   UNL     1      -1.664  -6.812  -1.053  0.00  0.00    +0.022 A 
ATOM      5  C   UNL     1      -1.963  -8.080  -0.717  0.00  0.00    +0.032 A 
ATOM      6  C   UNL     1      -2.575  -8.026   0.615  0.00  0.00    +0.016 A 
ATOM      7  C   UNL     1      -2.589  -6.708   0.977  0.00  0.00    +0.030 A 
ATOM      8  C   UNL     1      -3.121  -6.154   2.273  0.00  0.00    +0.064 C 
ATOM      9  C   UNL     1      -1.017  -6.377  -2.342  0.00  0.00    +0.064 C 
BRANCH   3  13
ATOM     10  C   UNL     1      -1.582  -1.837  -0.031  0.00  0.00    +0.121 A 
ATOM     11  C   UNL     1      -0.465  -2.660  -0.042  0.00  0.00    +0.047 A 
ATOM     12  C   UNL     1      -0.617  -4.032  -0.043  0.00  0.00    +0.030 A 
ATOM     13  C   UNL     1      -1.889  -4.589  -0.034  0.00  0.00    +0.047 A 
ATOM     14  C   UNL     1      -3.007  -3.766  -0.022  0.00  0.00    +0.030 A 
ATOM     15  C   UNL     1      -2.853  -2.394  -0.016  0.00  0.00    +0.047 A 
BRANCH  10  16
ATOM     16  O   UNL     1      -1.432  -0.486  -0.029  0.00  0.00    -0.492 OA
BRANCH  16  18
ATOM     17  C   UNL     1      -0.126   1.547  -0.041  0.00  0.00    +0.048 C 
ATOM     18  C   UNL     1      -0.095   0.018  -0.045  0.00  0.00    +0.225 C 
ENDBRANCH  16  18
ENDBRANCH  10  16
ENDBRANCH   3  13
ENDBRANCH   1   6
BRANCH   2  19
ATOM     19  N   UNL     1      -4.065 -10.047   3.331  0.00  0.00    -0.199 N 
ATOM     20  C   UNL     1      -4.608  -9.838   4.547  0.00  0.00    +0.318 C 
ATOM     21  O   UNL     1      -4.688  -8.710   4.990  0.00  0.00    -0.263 OA
ATOM     22  H   UNL     1      -4.001 -10.948   2.977  0.00  0.00    +0.178 HD
BRANCH  20  23
ATOM     23  C   UNL     1      -5.109 -10.991   5.348  0.00  0.00    +0.305 C 
ATOM     24  O   UNL     1      -5.029 -12.118   4.905  0.00  0.00    -0.265 OA
ATOM     25  N   UNL     1      -5.651 -10.781   6.564  0.00  0.00    -0.277 N 
ATOM     26  H   UNL     1      -5.643  -9.893   6.952  0.00  0.00    +0.155 HD
BRANCH  25  27
ATOM     27  C   UNL     1      -6.226 -11.845   7.265  0.00  0.00    +0.037 A 
ATOM     28  C   UNL     1      -6.710 -12.951   6.578  0.00  0.00    +0.027 A 
ATOM     29  C   UNL     1      -7.277 -14.000   7.274  0.00  0.00    -0.049 A 
ATOM     30  C   UNL     1      -7.363 -13.950   8.654  0.00  0.00    +0.004 A 
ATOM     31  C   UNL     1      -6.883 -12.851   9.341  0.00  0.00    +0.005 A 
ATOM     32  C   UNL     1      -6.308 -11.801   8.651  0.00  0.00    -0.029 A 
ATOM     33  C   UNL     1      -5.779 -10.606   9.401  0.00  0.00    +0.045 C 
ATOM     34  C   UNL     1      -7.802 -15.201   6.530  0.00  0.00    +0.044 C 
ENDBRANCH  25  27
ENDBRANCH  20  23
ENDBRANCH   2  19
TORSDOF 7
