REMARK  Name = ZINC36568491
REMARK  12 active torsions:
REMARK  status: ('A' for Active; 'I' for Inactive)
REMARK    1  A    between atoms: C_1  and  C_2
REMARK    2  A    between atoms: C_3  and  N_26
REMARK    3  A    between atoms: C_7  and  N_8
REMARK    4  A    between atoms: N_8  and  C_9
REMARK    5  A    between atoms: C_9  and  N_11
REMARK    6  A    between atoms: C_12  and  C_14
REMARK    7  A    between atoms: C_19  and  O_20
REMARK    8  A    between atoms: O_20  and  C_21
REMARK    9  A    between atoms: C_21  and  C_22
REMARK   10  A    between atoms: C_22  and  C_23
REMARK   11  A    between atoms: C_22  and  C_24
REMARK   12  A    between atoms: C_27  and  C_29
REMARK                            x       y       z     vdW  Elec       q    Type
REMARK                         _______ _______ _______ _____ _____    ______ ____
ROOT
ATOM      1  C   UNL     1       0.141  -0.715   3.534  0.00  0.00    +0.141 C 
ATOM      2  S   UNL     1       0.496  -2.389   3.528  0.00  0.00    -0.018 S 
ENDROOT
BRANCH   1   3
ATOM      3  N   UNL     1       0.010  -0.057   4.703  0.00  0.00    -0.263 N 
ATOM      4  C   UNL     1       0.159  -0.718   5.868  0.00  0.00    +0.253 C 
ATOM      5  O   UNL     1       0.411  -1.907   5.864  0.00  0.00    -0.270 OA
ATOM      6  H   UNL     1      -0.191   0.892   4.705  0.00  0.00    +0.157 HD
BRANCH   4   7
ATOM      7  C   UNL     1       0.016   0.002   7.147  0.00  0.00    +0.080 A 
ATOM      8  C   UNL     1      -0.279   1.367   7.156  0.00  0.00    +0.032 A 
ATOM      9  C   UNL     1      -0.411   2.034   8.355  0.00  0.00    +0.019 A 
ATOM     10  C   UNL     1      -0.252   1.355   9.553  0.00  0.00    +0.019 A 
ATOM     11  C   UNL     1       0.041   0.006   9.558  0.00  0.00    +0.047 A 
ATOM     12  C   UNL     1       0.170  -0.682   8.361  0.00  0.00    +0.133 A 
ATOM     13 BR   UNL     1      -0.811   3.882   8.366  0.00  0.00    -0.050 Br
BRANCH  12  14
ATOM     14  O   UNL     1       0.452  -2.009   8.365  0.00  0.00    -0.491 OA
BRANCH  14  15
ATOM     15  C   UNL     1       0.595  -2.638   9.640  0.00  0.00    +0.232 C 
BRANCH  15  16
ATOM     16  C   UNL     1       0.908  -4.123   9.444  0.00  0.00    +0.020 C 
ATOM     17  C   UNL     1       2.271  -4.271   8.764  0.00  0.00    +0.010 C 
ATOM     18  C   UNL     1       0.938  -4.822  10.805  0.00  0.00    +0.010 C 
ENDBRANCH  15  16
ENDBRANCH  14  15
ENDBRANCH  12  14
ENDBRANCH   4   7
ENDBRANCH   1   3
BRANCH   1  19
ATOM     19  N   UNL     1      -0.008  -0.054   2.368  0.00  0.00    -0.296 N 
ATOM     20  H   UNL     1      -0.133   0.908   2.369  0.00  0.00    +0.154 HD
BRANCH  19  27
ATOM     21  C   UNL     1      -1.906   0.647   0.369  0.00  0.00    +0.047 C 
ATOM     22  C   UNL     1      -0.890  -0.445   0.156  0.00  0.00    -0.008 A 
ATOM     23  C   UNL     1      -0.857  -1.139  -1.045  0.00  0.00    +0.038 A 
ATOM     24  C   UNL     1       0.081  -2.146  -1.238  0.00  0.00    +0.024 A 
ATOM     25  C   UNL     1       0.980  -2.456  -0.236  0.00  0.00    +0.004 A 
ATOM     26  C   UNL     1       0.950  -1.767   0.961  0.00  0.00    +0.023 A 
ATOM     27  C   UNL     1       0.018  -0.755   1.158  0.00  0.00    +0.037 A 
BRANCH  23  28
ATOM     28  N   UNL     1      -1.768  -0.826  -2.060  0.00  0.00    -0.285 N 
ATOM     29  C   UNL     1      -2.119  -1.763  -2.963  0.00  0.00    +0.220 C 
ATOM     30  O   UNL     1      -1.585  -2.852  -2.946  0.00  0.00    -0.275 OA
ATOM     31  H   UNL     1      -2.147   0.065  -2.113  0.00  0.00    +0.155 HD
BRANCH  29  32
ATOM     32  C   UNL     1      -3.174  -1.458  -3.994  0.00  0.00    +0.075 C 
ATOM     33  C   UNL     1      -4.510  -2.195  -3.877  0.00  0.00    +0.013 C 
ATOM     34  C   UNL     1      -3.528  -2.563  -4.992  0.00  0.00    +0.013 C 
ENDBRANCH  29  32
ENDBRANCH  23  28
ENDBRANCH  19  27
ENDBRANCH   1  19
TORSDOF 9
