REMARK  Name = ZINC36691645
REMARK  7 active torsions:
REMARK  status: ('A' for Active; 'I' for Inactive)
REMARK    1  A    between atoms: C_1  and  C_2
REMARK    2  A    between atoms: C_2  and  C_3
REMARK    3  A    between atoms: C_3  and  C_4
REMARK    4  A    between atoms: C_4  and  C_5
REMARK    5  A    between atoms: C_11  and  C_13
REMARK    6  A    between atoms: C_13  and  N_14
REMARK    7  A    between atoms: C_20  and  C_23
REMARK                            x       y       z     vdW  Elec       q    Type
REMARK                         _______ _______ _______ _____ _____    ______ ____
ROOT
ATOM      1  C   UNL     1      -8.750  -4.776   0.507  0.00  0.00    +0.214 C 
ENDROOT
BRANCH   1   2
ATOM      2  N   UNL     1      -9.594  -5.085  -0.649  0.00  0.00    -0.215 N 
ATOM      3  C   UNL     1     -10.414  -4.197  -1.248  0.00  0.00    +0.247 C 
ATOM      4  O   UNL     1     -10.587  -3.036  -0.944  0.00  0.00    -0.273 OA
ATOM      5  C   UNL     1     -11.073  -4.954  -2.379  0.00  0.00    +0.113 C 
ATOM      6  C   UNL     1     -10.723  -4.318  -3.720  0.00  0.00    +0.035 C 
ATOM      7  C   UNL     1     -11.374  -5.117  -4.851  0.00  0.00    +0.006 C 
ATOM      8  C   UNL     1     -12.891  -5.132  -4.656  0.00  0.00    -0.014 C 
ATOM      9  C   UNL     1     -13.228  -5.794  -3.318  0.00  0.00    +0.006 C 
ATOM     10  C   UNL     1     -12.584  -4.997  -2.180  0.00  0.00    +0.035 C 
ATOM     11  C   UNL     1     -13.544  -5.920  -5.793  0.00  0.00    +0.007 C 
ATOM     12  N   UNL     1     -10.502  -6.303  -2.284  0.00  0.00    -0.285 N 
ATOM     13  C   UNL     1      -9.644  -6.282  -1.246  0.00  0.00    +0.310 C 
ATOM     14  O   UNL     1      -8.991  -7.243  -0.889  0.00  0.00    -0.252 OA
ATOM     15  H   UNL     1     -10.700  -7.059  -2.858  0.00  0.00    +0.151 HD
ENDBRANCH   1   2
BRANCH   1  22
ATOM     16  C   UNL     1      -2.826  -2.585   0.015  0.00  0.00    +0.104 A 
ATOM     17  N   UNL     1      -3.627  -2.878  -0.990  0.00  0.00    -0.145 NA
ATOM     18  N   UNL     1      -4.790  -3.308  -0.745  0.00  0.00    -0.126 NA
ATOM     19  C   UNL     1      -5.226  -3.473   0.488  0.00  0.00    +0.188 A 
ATOM     20  S   UNL     1      -3.889  -2.989   1.395  0.00  0.00    -0.035 S 
ATOM     21  N   UNL     1      -6.463  -3.932   0.927  0.00  0.00    -0.262 N 
ATOM     22  C   UNL     1      -7.409  -4.279   0.032  0.00  0.00    +0.237 C 
ATOM     23  O   UNL     1      -7.181  -4.191  -1.156  0.00  0.00    -0.274 OA
ATOM     24  H   UNL     1      -6.645  -4.002   1.877  0.00  0.00    +0.157 HD
BRANCH  16  25
ATOM     25  C   UNL     1      -1.413  -2.063   0.004  0.00  0.00    +0.065 C 
BRANCH  25  26
ATOM     26  C   UNL     1      -1.433  -0.534   0.013  0.00  0.00    +0.006 C 
BRANCH  26  28
ATOM     27  C   UNL     1      -0.019   1.526   0.010  0.00  0.00    +0.004 C 
ATOM     28  C   UNL     1       0.002  -0.004   0.002  0.00  0.00    -0.003 C 
ENDBRANCH  26  28
ENDBRANCH  25  26
ENDBRANCH  16  25
ENDBRANCH   1  22
TORSDOF 5
