REMARK  Name = ZINC59392502
REMARK  5 active torsions:
REMARK  status: ('A' for Active; 'I' for Inactive)
REMARK    1  A    between atoms: C_4  and  N_7
REMARK    2  A    between atoms: C_17  and  S_18
REMARK    3  A    between atoms: S_18  and  C_19
REMARK    4  A    between atoms: C_22  and  C_24
REMARK    5  A    between atoms: N_25  and  N_26
REMARK                            x       y       z     vdW  Elec       q    Type
REMARK                         _______ _______ _______ _____ _____    ______ ____
ROOT
ATOM      1  N   UNL     1       3.618  -0.636  -0.001  0.00  0.00    -0.255 N 
ATOM      2  C   UNL     1       3.635  -1.987   0.089  0.00  0.00    +0.267 A 
ATOM      3  O   UNL     1       2.605  -2.624   0.215  0.00  0.00    -0.267 OA
ATOM      4  C   UNL     1       4.942  -2.655   0.028  0.00  0.00    +0.065 A 
ATOM      5  C   UNL     1       5.065  -4.041   0.110  0.00  0.00    +0.015 A 
ATOM      6  C   UNL     1       6.306  -4.612   0.048  0.00  0.00    +0.001 A 
ATOM      7  C   UNL     1       7.442  -3.826  -0.097  0.00  0.00    +0.002 A 
ATOM      8  C   UNL     1       7.351  -2.466  -0.180  0.00  0.00    +0.028 A 
ATOM      9  C   UNL     1       6.096  -1.852  -0.120  0.00  0.00    +0.079 A 
ATOM     10  N   UNL     1       5.961  -0.513  -0.200  0.00  0.00    -0.222 NA
ATOM     11  C   UNL     1       4.785   0.063  -0.148  0.00  0.00    +0.184 A 
ENDROOT
BRANCH   1  15
ATOM     12  C   UNL     1      -0.012   1.404   0.155  0.00  0.00    +0.000 A 
ATOM     13  C   UNL     1       0.500   0.999  -1.064  0.00  0.00    +0.002 A 
ATOM     14  C   UNL     1       1.703   0.323  -1.119  0.00  0.00    +0.026 A 
ATOM     15  C   UNL     1       2.398   0.050   0.052  0.00  0.00    +0.052 A 
ATOM     16  C   UNL     1       1.881   0.457   1.274  0.00  0.00    +0.026 A 
ATOM     17  C   UNL     1       0.678   1.133   1.323  0.00  0.00    +0.002 A 
ENDBRANCH   1  15
BRANCH  11  18
ATOM     18  S   UNL     1       4.703   1.819  -0.266  0.00  0.00    -0.014 S 
BRANCH  18  19
ATOM     19  C   UNL     1       6.375   2.306  -0.539  0.00  0.00    +0.169 A 
ATOM     20  C   UNL     1       6.946   2.538  -1.750  0.00  0.00    +0.057 A 
ATOM     21  C   UNL     1       8.281   2.901  -1.513  0.00  0.00    +0.052 A 
ATOM     22  C   UNL     1       8.465   2.873  -0.159  0.00  0.00    +0.149 A 
ATOM     23  O   UNL     1       7.297   2.515   0.417  0.00  0.00    -0.447 OA
BRANCH  22  24
ATOM     24  C   UNL     1       9.710   3.182   0.545  0.00  0.00    +0.176 C 
ATOM     25  N   UNL     1       9.731   3.215   1.846  0.00  0.00    -0.183 NA
BRANCH  25  26
ATOM     26  N   UNL     1      10.894   3.614   2.518  0.00  0.00    -0.191 N 
ATOM     27  C   UNL     1      10.950   3.551   3.863  0.00  0.00    +0.317 C 
ATOM     28  O   UNL     1      11.924   3.981   4.452  0.00  0.00    -0.251 OA
ATOM     29  N   UNL     1       9.928   3.012   4.556  0.00  0.00    -0.312 N 
ATOM     30  H   UNL     1      11.659   3.936   2.015  0.00  0.00    +0.179 HD
ATOM     31  H   UNL     1       9.185   2.602   4.085  0.00  0.00    +0.147 HD
ATOM     32  H   UNL     1       9.934   3.033   5.526  0.00  0.00    +0.147 HD
ENDBRANCH  25  26
ENDBRANCH  22  24
ENDBRANCH  18  19
ENDBRANCH  11  18
TORSDOF 5
