REMARK  Name = ZINC12603450
REMARK  5 active torsions:
REMARK  status: ('A' for Active; 'I' for Inactive)
REMARK    1  A    between atoms: C_1  and  C_2
REMARK    2  A    between atoms: C_7  and  N_8
REMARK    3  A    between atoms: C_9  and  C_11
REMARK    4  A    between atoms: C_11  and  N_12
REMARK    5  A    between atoms: C_13  and  C_15
REMARK                            x       y       z     vdW  Elec       q    Type
REMARK                         _______ _______ _______ _____ _____    ______ ____
ROOT
ATOM      1  N   UNL     1      -0.240  -0.903   5.989  0.00  0.00    -0.303 N 
ATOM      2  C   UNL     1      -0.345  -0.460   7.257  0.00  0.00    +0.245 C 
ATOM      3  O   UNL     1      -0.377   0.734   7.483  0.00  0.00    -0.270 OA
ATOM      4  H   UNL     1      -0.214  -1.856   5.809  0.00  0.00    +0.150 HD
ENDROOT
BRANCH   2   5
ATOM      5  C   UNL     1      -0.419  -1.426   8.373  0.00  0.00    +0.039 A 
ATOM      6  C   UNL     1      -0.375  -2.802   8.110  0.00  0.00    +0.015 A 
ATOM      7  C   UNL     1      -0.442  -3.703   9.130  0.00  0.00    +0.030 A 
ATOM      8  C   UNL     1      -0.556  -3.262  10.446  0.00  0.00    +0.086 A 
ATOM      9  C   UNL     1      -0.601  -1.885  10.730  0.00  0.00    +0.113 A 
ATOM     10  C   UNL     1      -0.526  -0.966   9.679  0.00  0.00    +0.044 A 
ATOM     11  N   UNL     1      -0.712  -1.747  12.073  0.00  0.00    -0.130 NA
ATOM     12  N   UNL     1      -0.739  -2.903  12.636  0.00  0.00    -0.067 NA
ATOM     13  N   UNL     1      -0.643  -3.903  11.657  0.00  0.00    -0.257 N 
ATOM     14  H   UNL     1      -0.639  -4.862  11.807  0.00  0.00    +0.191 HD
ENDBRANCH   2   5
BRANCH   1  15
ATOM     15  C   UNL     1      -0.167   0.054   4.882  0.00  0.00    +0.200 C 
BRANCH  15  17
ATOM     16  N   UNL     1       0.026  -0.014   2.417  0.00  0.00    -0.284 N 
ATOM     17  C   UNL     1      -0.056  -0.694   3.578  0.00  0.00    +0.234 C 
ATOM     18  O   UNL     1      -0.040  -1.906   3.574  0.00  0.00    -0.274 OA
ATOM     19  H   UNL     1       0.079   0.955   2.425  0.00  0.00    +0.155 HD
BRANCH  16  26
ATOM     20  C   UNL     1      -1.265   1.183   0.182  0.00  0.00    +0.046 C 
ATOM     21  C   UNL     1      -0.584  -0.158   0.085  0.00  0.00    -0.028 A 
ATOM     22  C   UNL     1      -0.570  -0.840  -1.116  0.00  0.00    +0.020 A 
ATOM     23  C   UNL     1       0.055  -2.071  -1.206  0.00  0.00    +0.018 A 
ATOM     24  C   UNL     1       0.666  -2.623  -0.094  0.00  0.00    +0.017 A 
ATOM     25  C   UNL     1       0.655  -1.945   1.109  0.00  0.00    +0.024 A 
ATOM     26  C   UNL     1       0.034  -0.706   1.201  0.00  0.00    +0.036 A 
ATOM     27 BR   UNL     1       0.072  -3.002  -2.852  0.00  0.00    -0.050 Br
ENDBRANCH  16  26
ENDBRANCH  15  17
ENDBRANCH   1  15
TORSDOF 4
