REMARK  Name = ZINC06955647
REMARK  6 active torsions:
REMARK  status: ('A' for Active; 'I' for Inactive)
REMARK    1  A    between atoms: C_1  and  O_2
REMARK    2  A    between atoms: O_2  and  C_3
REMARK    3  A    between atoms: C_8  and  C_9
REMARK    4  A    between atoms: C_19  and  N_27
REMARK    5  A    between atoms: C_22  and  O_25
REMARK    6  A    between atoms: O_25  and  C_26
REMARK                            x       y       z     vdW  Elec       q    Type
REMARK                         _______ _______ _______ _____ _____    ______ ____
ROOT
ATOM      1  C   UNL     1       0.663   3.242  -2.061  0.00  0.00    +0.109 C 
ATOM      2  C   UNL     1       0.695   3.469  -0.548  0.00  0.00    +0.029 C 
ATOM      3  C   UNL     1       1.274   2.187   0.114  0.00  0.00    +0.033 C 
ATOM      4  C   UNL     1       0.073   1.267   0.215  0.00  0.00    -0.030 C 
ATOM      5  C   UNL     1      -1.040   1.955   0.158  0.00  0.00    -0.023 C 
ATOM      6  C   UNL     1      -0.743   3.430   0.013  0.00  0.00    +0.051 C 
ATOM      7  C   UNL     1      -1.718   4.061  -0.952  0.00  0.00    +0.014 A 
ATOM      8  C   UNL     1      -3.030   4.229  -0.526  0.00  0.00    +0.132 A 
ATOM      9  C   UNL     1      -3.970   4.809  -1.352  0.00  0.00    +0.037 A 
ATOM     10  C   UNL     1      -3.613   5.230  -2.620  0.00  0.00    +0.050 A 
ATOM     11  C   UNL     1      -2.310   5.069  -3.054  0.00  0.00    +0.141 A 
ATOM     12  C   UNL     1      -1.356   4.482  -2.217  0.00  0.00    +0.076 A 
ATOM     13  N   UNL     1      -0.053   4.344  -2.704  0.00  0.00    -0.333 N 
ATOM     14  H   UNL     1      -0.051   4.241  -3.707  0.00  0.00    +0.147 HD
ENDROOT
BRANCH   1  20
ATOM     15  C   UNL     1       2.822   4.344  -2.704  0.00  0.00    +0.125 A 
ATOM     16  C   UNL     1       4.121   4.285  -3.187  0.00  0.00    +0.046 A 
ATOM     17  C   UNL     1       4.662   3.071  -3.563  0.00  0.00    +0.004 A 
ATOM     18  C   UNL     1       3.912   1.914  -3.454  0.00  0.00    +0.001 A 
ATOM     19  C   UNL     1       2.619   1.970  -2.968  0.00  0.00    +0.009 A 
ATOM     20  C   UNL     1       2.073   3.182  -2.590  0.00  0.00    +0.015 A 
BRANCH  15  22
ATOM     21  C   UNL     1       3.114   6.693  -2.482  0.00  0.00    +0.277 C 
ATOM     22  O   UNL     1       2.285   5.538  -2.338  0.00  0.00    -0.495 OA
ENDBRANCH  15  22
ENDBRANCH   1  20
BRANCH   8  23
ATOM     23  N   UNL     1      -3.424   3.782   0.828  0.00  0.00    +0.057 N 
ATOM     24  O   UNL     1      -4.572   3.925   1.208  0.00  0.00    -0.126 OA
ATOM     25  O   UNL     1      -2.599   3.269   1.564  0.00  0.00    -0.126 OA
ENDBRANCH   8  23
BRANCH  11  26
ATOM     26  O   UNL     1      -1.955   5.484  -4.300  0.00  0.00    -0.493 OA
ATOM     27  C   UNL     1      -2.978   6.075  -5.103  0.00  0.00    +0.277 C 
ENDBRANCH  11  26
TORSDOF 4
