REMARK  Name = ZINC20150911
REMARK  7 active torsions:
REMARK  status: ('A' for Active; 'I' for Inactive)
REMARK    1  A    between atoms: C_4  and  N_14
REMARK    2  A    between atoms: C_6  and  C_7
REMARK    3  A    between atoms: C_10  and  C_12
REMARK    4  A    between atoms: C_12  and  O_13
REMARK    5  A    between atoms: C_15  and  C_17
REMARK    6  A    between atoms: C_18  and  C_19
REMARK    7  A    between atoms: C_22  and  C_24
REMARK                            x       y       z     vdW  Elec       q    Type
REMARK                         _______ _______ _______ _____ _____    ______ ____
ROOT
ATOM      1  N   UNL     1       3.633  -0.637  -0.037  0.00  0.00    -0.281 N 
ATOM      2  C   UNL     1       3.664  -1.981   0.056  0.00  0.00    +0.241 C 
ATOM      3  O   UNL     1       2.624  -2.616   0.063  0.00  0.00    -0.270 OA
ATOM      4  H   UNL     1       4.460  -0.138  -0.124  0.00  0.00    +0.155 HD
ENDROOT
BRANCH   1   8
ATOM      5  C   UNL     1      -0.017   1.391   0.033  0.00  0.00    +0.013 A 
ATOM      6  C   UNL     1       1.082   1.962  -0.578  0.00  0.00    +0.022 A 
ATOM      7  C   UNL     1       2.291   1.292  -0.602  0.00  0.00    +0.062 A 
ATOM      8  C   UNL     1       2.408   0.037  -0.010  0.00  0.00    +0.053 A 
ATOM      9  C   UNL     1       1.311  -0.543   0.605  0.00  0.00    +0.036 A 
ATOM     10  C   UNL     1       0.091   0.134   0.629  0.00  0.00    +0.019 A 
ATOM     11 CL   UNL     1       3.667   2.017  -1.372  0.00  0.00    -0.082 Cl
BRANCH  10  12
ATOM     12  C   UNL     1      -1.084  -0.479   1.285  0.00  0.00    +0.135 A 
ATOM     13  C   UNL     1      -2.325   0.070   1.373  0.00  0.00    +0.050 A 
ATOM     14  C   UNL     1      -3.127  -0.852   2.074  0.00  0.00    +0.047 A 
ATOM     15  C   UNL     1      -2.345  -1.907   2.377  0.00  0.00    +0.131 A 
ATOM     16  O   UNL     1      -1.113  -1.680   1.893  0.00  0.00    -0.457 OA
BRANCH  15  17
ATOM     17  C   UNL     1      -2.782  -3.138   3.128  0.00  0.00    +0.230 C 
BRANCH  17  18
ATOM     18  O   UNL     1      -3.263  -4.115   2.202  0.00  0.00    -0.387 OA
ATOM     19  H   UNL     1      -3.562  -4.936   2.617  0.00  0.00    +0.210 HD
ENDBRANCH  17  18
ENDBRANCH  15  17
ENDBRANCH  10  12
ENDBRANCH   1   8
BRANCH   2  20
ATOM     20  C   UNL     1       4.904  -2.655   0.146  0.00  0.00    +0.071 C 
ATOM     21  C   UNL     1       4.935  -4.010   0.241  0.00  0.00    +0.051 C 
BRANCH  21  22
ATOM     22  C   UNL     1       6.175  -4.683   0.331  0.00  0.00    +0.129 A 
ATOM     23  C   UNL     1       6.348  -6.051   0.426  0.00  0.00    +0.050 A 
ATOM     24  C   UNL     1       7.725  -6.281   0.492  0.00  0.00    +0.050 A 
ATOM     25  C   UNL     1       8.340  -5.051   0.436  0.00  0.00    +0.137 A 
ATOM     26  O   UNL     1       7.392  -4.102   0.333  0.00  0.00    -0.455 OA
BRANCH  25  27
ATOM     27  C   UNL     1       9.796  -4.813   0.476  0.00  0.00    +0.036 A 
ATOM     28  C   UNL     1      10.578  -5.410   1.469  0.00  0.00    +0.014 A 
ATOM     29  C   UNL     1      11.937  -5.184   1.500  0.00  0.00    +0.021 A 
ATOM     30  C   UNL     1      12.530  -4.367   0.551  0.00  0.00    +0.042 A 
ATOM     31  C   UNL     1      11.762  -3.771  -0.435  0.00  0.00    +0.040 A 
ATOM     32  C   UNL     1      10.400  -3.994  -0.483  0.00  0.00    +0.053 A 
ATOM     33 CL   UNL     1       9.440  -3.254  -1.725  0.00  0.00    -0.083 Cl
ATOM     34 CL   UNL     1      14.242  -4.088   0.600  0.00  0.00    -0.083 Cl
ENDBRANCH  25  27
ENDBRANCH  21  22
ENDBRANCH   2  20
TORSDOF 7
