REMARK  Name = ZINC59438464
REMARK  7 active torsions:
REMARK  status: ('A' for Active; 'I' for Inactive)
REMARK    1  A    between atoms: C_1  and  O_2
REMARK    2  A    between atoms: O_2  and  C_3
REMARK    3  A    between atoms: C_6  and  C_10
REMARK    4  A    between atoms: N_12  and  C_13
REMARK    5  A    between atoms: C_13  and  N_15
REMARK    6  A    between atoms: N_15  and  C_16
REMARK    7  A    between atoms: C_19  and  N_23
REMARK                            x       y       z     vdW  Elec       q    Type
REMARK                         _______ _______ _______ _____ _____    ______ ____
ROOT
ATOM      1  C   UNL     1       2.905  -4.459  -5.576  0.00  0.00    +0.141 C 
ATOM      2  S   UNL     1       3.295  -3.522  -6.955  0.00  0.00    -0.018 S 
ENDROOT
BRANCH   1   5
ATOM      3  C   UNL     1       2.037  -2.560  -4.531  0.00  0.00    +0.250 C 
ATOM      4  O   UNL     1       2.314  -1.895  -5.510  0.00  0.00    -0.270 OA
ATOM      5  N   UNL     1       2.317  -3.878  -4.511  0.00  0.00    -0.264 N 
ATOM      6  H   UNL     1       2.096  -4.409  -3.729  0.00  0.00    +0.157 HD
BRANCH   3  10
ATOM      7  C   UNL     1       0.184  -0.730  -1.177  0.00  0.00    +0.138 A 
ATOM      8  C   UNL     1       0.501   0.032  -2.295  0.00  0.00    +0.048 A 
ATOM      9  C   UNL     1       1.102  -0.558  -3.385  0.00  0.00    +0.017 A 
ATOM     10  C   UNL     1       1.394  -1.925  -3.365  0.00  0.00    +0.039 A 
ATOM     11  C   UNL     1       1.074  -2.688  -2.239  0.00  0.00    +0.036 A 
ATOM     12  C   UNL     1       0.478  -2.089  -1.151  0.00  0.00    +0.083 A 
ATOM     13 CL   UNL     1       0.086  -3.034   0.252  0.00  0.00    -0.080 Cl
BRANCH   7  15
ATOM     14  C   UNL     1      -0.682   1.255  -0.199  0.00  0.00    +0.277 C 
ATOM     15  O   UNL     1      -0.409  -0.145  -0.105  0.00  0.00    -0.494 OA
ENDBRANCH   7  15
ENDBRANCH   3  10
ENDBRANCH   1   5
BRANCH   1  16
ATOM     16  N   UNL     1       3.186  -5.777  -5.555  0.00  0.00    -0.295 N 
ATOM     17  H   UNL     1       3.022  -6.295  -4.752  0.00  0.00    +0.154 HD
BRANCH  16  18
ATOM     18  C   UNL     1       3.713  -6.398  -6.693  0.00  0.00    +0.051 A 
ATOM     19  C   UNL     1       4.775  -5.817  -7.374  0.00  0.00    +0.027 A 
ATOM     20  C   UNL     1       5.292  -6.433  -8.497  0.00  0.00    +0.034 A 
ATOM     21  C   UNL     1       4.755  -7.626  -8.944  0.00  0.00    +0.128 A 
ATOM     22  C   UNL     1       3.697  -8.207  -8.269  0.00  0.00    +0.054 A 
ATOM     23  C   UNL     1       3.178  -7.600  -7.141  0.00  0.00    +0.064 A 
ATOM     24 CL   UNL     1       1.855  -8.334  -6.290  0.00  0.00    -0.082 Cl
BRANCH  21  25
ATOM     25  N   UNL     1       5.312  -8.282 -10.148  0.00  0.00    +0.056 N 
ATOM     26  O   UNL     1       6.237  -7.774 -10.739  0.00  0.00    -0.126 OA
ATOM     27  O   UNL     1       4.843  -9.325 -10.540  0.00  0.00    -0.126 OA
ENDBRANCH  21  25
ENDBRANCH  16  18
ENDBRANCH   1  16
TORSDOF 6
