REMARK  Name = ZINC13319551
REMARK  6 active torsions:
REMARK  status: ('A' for Active; 'I' for Inactive)
REMARK    1  A    between atoms: C_9  and  C_31
REMARK    2  A    between atoms: C_10  and  O_11
REMARK    3  A    between atoms: O_11  and  C_12
REMARK    4  A    between atoms: C_12  and  C_13
REMARK    5  A    between atoms: N_18  and  C_19
REMARK    6  A    between atoms: C_19  and  C_20
REMARK                            x       y       z     vdW  Elec       q    Type
REMARK                         _______ _______ _______ _____ _____    ______ ____
ROOT
ATOM      1  C   UNL     1      -3.002  -1.807  -1.054  0.00  0.00    +0.258 C 
ATOM      2  O   UNL     1      -3.387  -2.053   0.069  0.00  0.00    -0.272 OA
ATOM      3  N   UNL     1      -3.715  -2.226  -2.118  0.00  0.00    -0.237 N 
ATOM      4  C   UNL     1      -4.857  -2.918  -1.934  0.00  0.00    +0.306 C 
ATOM      5  O   UNL     1      -5.243  -3.164  -0.808  0.00  0.00    -0.252 OA
ATOM      6  N   UNL     1      -5.570  -3.337  -2.998  0.00  0.00    -0.295 N 
ATOM      7  H   UNL     1      -3.406  -2.029  -3.016  0.00  0.00    +0.159 HD
ATOM      8  H   UNL     1      -5.261  -3.140  -3.896  0.00  0.00    +0.150 HD
ENDROOT
BRANCH   1   9
ATOM      9  C   UNL     1      -1.725  -1.033  -1.260  0.00  0.00    +0.325 C 
BRANCH   9  10
ATOM     10  O   UNL     1      -1.157  -0.705   0.010  0.00  0.00    -0.481 OA
BRANCH  10  20
ATOM     11  C   UNL     1      -0.011   4.178   0.024  0.00  0.00    +0.001 A 
ATOM     12  C   UNL     1      -1.214   3.476   0.031  0.00  0.00    +0.001 A 
ATOM     13  C   UNL     1      -1.229   2.114   0.019  0.00  0.00    +0.012 A 
ATOM     14  C   UNL     1      -0.017   1.405   0.010  0.00  0.00    +0.025 A 
ATOM     15  C   UNL     1       1.207   2.119   0.002  0.00  0.00    -0.014 A 
ATOM     16  C   UNL     1       1.183   3.523   0.009  0.00  0.00    +0.008 A 
ATOM     17  C   UNL     1       2.426   1.415  -0.014  0.00  0.00    +0.009 A 
ATOM     18  C   UNL     1       2.432   0.059  -0.021  0.00  0.00    +0.019 A 
ATOM     19  C   UNL     1       1.227  -0.669  -0.013  0.00  0.00    +0.105 A 
ATOM     20  C   UNL     1       0.002  -0.004   0.002  0.00  0.00    +0.143 A 
BRANCH  19  21
ATOM     21  C   UNL     1       1.261  -2.140  -0.021  0.00  0.00    +0.390 C 
ATOM     22  O   UNL     1       0.223  -2.772  -0.014  0.00  0.00    -0.240 OA
ATOM     23  O   UNL     1       2.444  -2.787  -0.036  0.00  0.00    -0.240 OA
ENDBRANCH  19  21
ENDBRANCH  10  20
ENDBRANCH   9  10
ENDBRANCH   1   9
BRANCH   6  24
ATOM     24  C   UNL     1      -6.811  -4.089  -2.798  0.00  0.00    +0.153 C 
BRANCH  24  25
ATOM     25  C   UNL     1      -7.419  -4.441  -4.157  0.00  0.00    +0.228 C 
ATOM     26  C   UNL     1      -8.774  -5.132  -3.954  0.00  0.00    +0.275 C 
ATOM     27  O   UNL     1      -9.307  -5.459  -5.242  0.00  0.00    -0.485 OA
ATOM     28  C   UNL     1      -8.453  -6.043  -6.128  0.00  0.00    +0.162 A 
ATOM     29  C   UNL     1      -8.966  -6.702  -7.235  0.00  0.00    +0.049 A 
ATOM     30  C   UNL     1      -8.112  -7.294  -8.146  0.00  0.00    +0.004 A 
ATOM     31  C   UNL     1      -6.744  -7.231  -7.956  0.00  0.00    +0.004 A 
ATOM     32  C   UNL     1      -6.226  -6.577  -6.854  0.00  0.00    +0.049 A 
ATOM     33  C   UNL     1      -7.078  -5.982  -5.935  0.00  0.00    +0.163 A 
ATOM     34  O   UNL     1      -6.554  -5.344  -4.854  0.00  0.00    -0.480 OA
ENDBRANCH  24  25
ENDBRANCH   6  24
TORSDOF 6
