REMARK  Name = ZINC35944951
REMARK  13 active torsions:
REMARK  status: ('A' for Active; 'I' for Inactive)
REMARK    1  A    between atoms: C_1  and  C_2
REMARK    2  A    between atoms: C_2  and  C_3
REMARK    3  A    between atoms: C_3  and  C_5
REMARK    4  A    between atoms: C_3  and  C_11
REMARK    5  A    between atoms: N_13  and  C_14
REMARK    6  A    between atoms: N_13  and  C_34
REMARK    7  A    between atoms: C_14  and  C_15
REMARK    8  A    between atoms: C_17  and  N_24
REMARK    9  A    between atoms: C_20  and  N_21
REMARK   10  A    between atoms: N_21  and  C_22
REMARK   11  A    between atoms: N_21  and  C_23
REMARK   12  A    between atoms: C_25  and  C_27
REMARK   13  A    between atoms: C_34  and  C_35
REMARK                            x       y       z     vdW  Elec       q    Type
REMARK                         _______ _______ _______ _____ _____    ______ ____
ROOT
ATOM      1  C   UNL     1       0.946  -4.231   0.600  0.00  0.00    -0.007 A 
ATOM      2  C   UNL     1       1.663  -3.239  -0.039  0.00  0.00    +0.030 A 
ATOM      3  C   UNL     1       2.667  -3.576  -0.937  0.00  0.00    +0.034 A 
ATOM      4  C   UNL     1       2.950  -4.912  -1.192  0.00  0.00    +0.025 A 
ATOM      5  C   UNL     1       2.233  -5.904  -0.553  0.00  0.00    +0.025 A 
ATOM      6  C   UNL     1       1.233  -5.566   0.349  0.00  0.00    +0.034 A 
ENDROOT
BRANCH   3   7
ATOM      7  N   UNL     1       3.394  -2.570  -1.586  0.00  0.00    -0.281 N 
ATOM      8  C   UNL     1       4.704  -2.747  -1.847  0.00  0.00    +0.250 C 
ATOM      9  O   UNL     1       5.236  -3.810  -1.595  0.00  0.00    -0.270 OA
ATOM     10  H   UNL     1       2.954  -1.746  -1.848  0.00  0.00    +0.155 HD
BRANCH   8  11
ATOM     11  C   UNL     1       5.494  -1.647  -2.439  0.00  0.00    +0.055 A 
ATOM     12  C   UNL     1       4.888  -0.423  -2.725  0.00  0.00    +0.014 A 
ATOM     13  C   UNL     1       5.631   0.599  -3.277  0.00  0.00    +0.001 A 
ATOM     14  C   UNL     1       6.975   0.413  -3.550  0.00  0.00    +0.001 A 
ATOM     15  C   UNL     1       7.583  -0.796  -3.270  0.00  0.00    +0.021 A 
ATOM     16  C   UNL     1       6.853  -1.827  -2.710  0.00  0.00    +0.053 A 
ATOM     17 CL   UNL     1       7.619  -3.343  -2.353  0.00  0.00    -0.083 Cl
ENDBRANCH   8  11
ENDBRANCH   3   7
BRANCH   6  18
ATOM     18  N   UNL     1       0.510  -6.571   1.000  0.00  0.00    -0.336 N 
ATOM     19  C   UNL     1       0.922  -7.024   2.331  0.00  0.00    +0.129 C 
ATOM     20  C   UNL     1      -0.659  -7.170   0.352  0.00  0.00    +0.129 C 
ENDBRANCH   6  18
BRANCH   1  21
ATOM     21  C   UNL     1      -0.143  -3.864   1.575  0.00  0.00    +0.144 C 
BRANCH  21  24
ATOM     22  C   UNL     1      -1.163  -1.846   0.667  0.00  0.00    +0.223 C 
ATOM     23  O   UNL     1      -1.273  -0.639   0.618  0.00  0.00    -0.275 OA
ATOM     24  N   UNL     1      -0.336  -2.412   1.568  0.00  0.00    -0.294 N 
BRANCH  22  25
ATOM     25  C   UNL     1      -1.952  -2.713  -0.281  0.00  0.00    +0.105 C 
BRANCH  25  26
ATOM     26  C   UNL     1      -2.525  -1.860  -1.383  0.00  0.00    -0.036 A 
ATOM     27  C   UNL     1      -3.386  -0.823  -1.078  0.00  0.00    +0.004 A 
ATOM     28  C   UNL     1      -3.911  -0.040  -2.089  0.00  0.00    +0.000 A 
ATOM     29  C   UNL     1      -3.576  -0.296  -3.406  0.00  0.00    +0.000 A 
ATOM     30  C   UNL     1      -2.714  -1.333  -3.711  0.00  0.00    +0.000 A 
ATOM     31  C   UNL     1      -2.185  -2.112  -2.699  0.00  0.00    +0.004 A 
ENDBRANCH  25  26
BRANCH  25  33
ATOM     32  C   UNL     1      -3.805  -4.380  -0.448  0.00  0.00    +0.005 C 
ATOM     33  C   UNL     1      -3.090  -3.396   0.480  0.00  0.00    +0.014 C 
ENDBRANCH  25  33
ENDBRANCH  22  25
BRANCH  24  34
ATOM     34  C   UNL     1       0.370  -1.574   2.541  0.00  0.00    +0.139 C 
BRANCH  34  35
ATOM     35  C   UNL     1      -0.449  -1.490   3.830  0.00  0.00    +0.136 C 
ATOM     36  C   UNL     1       0.227  -0.513   4.817  0.00  0.00    +0.035 C 
ATOM     37  C   UNL     1       0.023  -1.228   6.180  0.00  0.00    +0.031 C 
ATOM     38  C   UNL     1       0.126  -2.714   5.752  0.00  0.00    +0.160 C 
ATOM     39  O   UNL     1      -0.500  -2.776   4.458  0.00  0.00    -0.375 OA
ENDBRANCH  34  35
ENDBRANCH  24  34
ENDBRANCH  21  24
ENDBRANCH   1  21
TORSDOF 10
