REMARK  Name = ZINC39096765
REMARK  2 active torsions:
REMARK  status: ('A' for Active; 'I' for Inactive)
REMARK    1  A    between atoms: C_4  and  O_15
REMARK    2  A    between atoms: C_9  and  O_14
REMARK                            x       y       z     vdW  Elec       q    Type
REMARK                         _______ _______ _______ _____ _____    ______ ____
ROOT
ATOM      1  C   UNL     1      -0.017   1.387   0.010  0.00  0.00    +0.039 A 
ATOM      2  C   UNL     1       1.138   2.113   0.003  0.00  0.00    +0.015 A 
ATOM      3  C   UNL     1       2.383   1.447  -0.013  0.00  0.00    +0.031 A 
ATOM      4  C   UNL     1       3.581   2.164  -0.020  0.00  0.00    +0.176 C 
ATOM      5  C   UNL     1       4.878   1.414  -0.036  0.00  0.00    +0.271 C 
ATOM      6  O   UNL     1       5.931   2.015  -0.042  0.00  0.00    -0.280 OA
ATOM      7  C   UNL     1       4.864  -0.062  -0.044  0.00  0.00    +0.271 C 
ATOM      8  O   UNL     1       6.019  -0.738  -0.058  0.00  0.00    -0.280 OA
ATOM      9  C   UNL     1       3.680  -0.741  -0.036  0.00  0.00    +0.176 C 
ATOM     10  C   UNL     1       2.407  -0.020  -0.021  0.00  0.00    +0.034 A 
ATOM     11  C   UNL     1       1.198  -0.711  -0.013  0.00  0.00    +0.050 A 
ATOM     12  C   UNL     1       0.002  -0.004   0.002  0.00  0.00    +0.124 A 
ATOM     13  F   UNL     1      -1.167  -0.681   0.010  0.00  0.00    -0.205 F 
ENDROOT
BRANCH   9  14
ATOM     14  O   UNL     1       3.683  -2.101  -0.043  0.00  0.00    -0.503 OA
ATOM     15  H   UNL     1       3.693  -2.499   0.838  0.00  0.00    +0.292 HD
ENDBRANCH   9  14
BRANCH   4  16
ATOM     16  O   UNL     1       3.571   3.503  -0.013  0.00  0.00    -0.503 OA
ATOM     17  H   UNL     1       3.576   3.892   0.872  0.00  0.00    +0.292 HD
ENDBRANCH   4  16
TORSDOF 2
