REMARK  Name = ZINC39217692
REMARK  4 active torsions:
REMARK  status: ('A' for Active; 'I' for Inactive)
REMARK    1  A    between atoms: C_3  and  C_6
REMARK    2  A    between atoms: C_8  and  C_12
REMARK    3  A    between atoms: C_16  and  S_28
REMARK    4  A    between atoms: N_18  and  C_19
REMARK                            x       y       z     vdW  Elec       q    Type
REMARK                         _______ _______ _______ _____ _____    ______ ____
ROOT
ATOM      1  C   UNL     1       6.861   1.847   1.196  0.00  0.00    +0.188 C 
ATOM      2  N   UNL     1       6.066   2.120   2.415  0.00  0.00    -0.232 NA
ATOM      3  N   UNL     1       7.006   2.800   3.320  0.00  0.00    -0.226 NA
ATOM      4  C   UNL     1       7.800   3.653   2.398  0.00  0.00    +0.214 C 
ATOM      5  N   UNL     1       7.965   2.823   1.186  0.00  0.00    -0.286 N 
ATOM      6  H   UNL     1       5.725   1.263   2.824  0.00  0.00    +0.143 HD
ATOM      7  H   UNL     1       6.513   3.362   3.998  0.00  0.00    +0.143 HD
ENDROOT
BRANCH   5   8
ATOM      8  C   UNL     1       8.970   2.941   0.219  0.00  0.00    +0.037 A 
ATOM      9  C   UNL     1       8.986   2.084  -0.873  0.00  0.00    +0.027 A 
ATOM     10  C   UNL     1       9.978   2.199  -1.829  0.00  0.00    +0.051 A 
ATOM     11  C   UNL     1      10.959   3.169  -1.699  0.00  0.00    +0.166 A 
ATOM     12  C   UNL     1      10.945   4.030  -0.605  0.00  0.00    +0.168 A 
ATOM     13  C   UNL     1       9.948   3.917   0.350  0.00  0.00    +0.072 A 
ATOM     14  O   UNL     1      12.005   4.884  -0.708  0.00  0.00    -0.453 OA
ATOM     15  C   UNL     1      12.899   4.275  -1.658  0.00  0.00    +0.466 C 
ATOM     16  O   UNL     1      12.028   3.485  -2.489  0.00  0.00    -0.453 OA
ENDBRANCH   5   8
BRANCH   1  19
ATOM     17  C   UNL     1       3.739   1.825  -0.025  0.00  0.00    +0.098 C 
ATOM     18  C   UNL     1       4.837   1.040  -0.045  0.00  0.00    +0.035 C 
ATOM     19  C   UNL     1       5.990   2.028  -0.049  0.00  0.00    +0.189 C 
ATOM     20  N   UNL     1       5.313   3.335  -0.029  0.00  0.00    -0.176 NA
ATOM     21  N   UNL     1       4.097   3.137  -0.022  0.00  0.00    -0.153 NA
BRANCH  17  24
ATOM     22  C   UNL     1      -0.016   1.354   0.009  0.00  0.00    +0.008 A 
ATOM     23  C   UNL     1       1.177   2.041   0.002  0.00  0.00    +0.018 A 
ATOM     24  C   UNL     1       2.347   1.329  -0.013  0.00  0.00    +0.039 A 
ATOM     25  S   UNL     1       1.752  -0.354  -0.017  0.00  0.00    -0.095 S 
ATOM     26  C   UNL     1       0.002  -0.004   0.002  0.00  0.00    +0.046 A 
ENDBRANCH  17  24
ENDBRANCH   1  19
BRANCH   4  27
ATOM     27  S   UNL     1       6.898   5.178   2.009  0.00  0.00    -0.139 S 
ATOM     28  H   UNL     1       6.753   5.783   3.202  0.00  0.00    +0.105 HD
ENDBRANCH   4  27
TORSDOF 4
