REMARK  Name = ZINC66966390
REMARK  9 active torsions:
REMARK  status: ('A' for Active; 'I' for Inactive)
REMARK    1  A    between atoms: C_1  and  C_2
REMARK    2  A    between atoms: C_4  and  C_19
REMARK    3  A    between atoms: C_7  and  N_8
REMARK    4  A    between atoms: N_11  and  C_12
REMARK    5  A    between atoms: C_12  and  C_13
REMARK    6  A    between atoms: N_15  and  C_16
REMARK    7  A    between atoms: C_16  and  C_17
REMARK    8  A    between atoms: C_16  and  C_18
REMARK    9  A    between atoms: C_26  and  C_28
REMARK                            x       y       z     vdW  Elec       q    Type
REMARK                         _______ _______ _______ _____ _____    ______ ____
ROOT
ATOM      1  C   UNL     1       1.833   1.558  -0.782  0.00  0.00    +0.045 C 
ATOM      2  C   UNL     1       1.266   0.174  -0.600  0.00  0.00    -0.028 A 
ATOM      3  C   UNL     1       1.113  -0.656  -1.689  0.00  0.00    +0.018 A 
ATOM      4  C   UNL     1       0.588  -1.939  -1.519  0.00  0.00    +0.037 A 
ATOM      5  C   UNL     1       0.218  -2.377  -0.244  0.00  0.00    +0.015 A 
ATOM      6  C   UNL     1       0.374  -1.542   0.840  0.00  0.00    +0.024 A 
ATOM      7  C   UNL     1       0.903  -0.267   0.668  0.00  0.00    +0.038 A 
ENDROOT
BRANCH   4   8
ATOM      8  C   UNL     1       0.422  -2.830  -2.683  0.00  0.00    +0.247 C 
ATOM      9  O   UNL     1       0.213  -2.360  -3.784  0.00  0.00    -0.270 OA
ATOM     10  N   UNL     1       0.502  -4.167  -2.526  0.00  0.00    -0.295 N 
ATOM     11  C   UNL     1       0.872  -4.747  -1.227  0.00  0.00    +0.108 C 
ATOM     12  C   UNL     1       2.053  -5.700  -1.431  0.00  0.00    +0.019 C 
ATOM     13  C   UNL     1       1.691  -6.733  -2.501  0.00  0.00    +0.003 C 
ATOM     14  C   UNL     1       1.411  -6.021  -3.826  0.00  0.00    +0.022 C 
ATOM     15  C   UNL     1       0.217  -5.071  -3.648  0.00  0.00    +0.073 C 
ATOM     16  C   UNL     1       0.013  -4.255  -4.926  0.00  0.00    +0.028 C 
ENDBRANCH   4   8
BRANCH   7  17
ATOM     17  N   UNL     1       1.065   0.573   1.769  0.00  0.00    -0.269 N 
ATOM     18  C   UNL     1       0.253   0.448   2.837  0.00  0.00    +0.304 C 
ATOM     19  O   UNL     1      -0.574  -0.443   2.872  0.00  0.00    -0.252 OA
ATOM     20  N   UNL     1       0.356   1.310   3.868  0.00  0.00    -0.291 N 
ATOM     21  H   UNL     1       1.761   1.248   1.766  0.00  0.00    +0.156 HD
ATOM     22  H   UNL     1       1.016   2.021   3.841  0.00  0.00    +0.151 HD
BRANCH  20  23
ATOM     23  C   UNL     1      -0.526   1.174   5.029  0.00  0.00    +0.201 C 
BRANCH  23  24
ATOM     24  C   UNL     1      -0.208   2.253   6.032  0.00  0.00    +0.230 C 
ATOM     25  O   UNL     1       0.669   3.058   5.799  0.00  0.00    -0.274 OA
ATOM     26  N   UNL     1      -0.899   2.325   7.187  0.00  0.00    -0.312 N 
ATOM     27  H   UNL     1      -1.601   1.682   7.373  0.00  0.00    +0.149 HD
BRANCH  26  28
ATOM     28  C   UNL     1      -0.590   3.375   8.161  0.00  0.00    +0.067 C 
ATOM     29  C   UNL     1      -1.352   4.650   7.796  0.00  0.00    +0.027 C 
ATOM     30  C   UNL     1      -1.008   2.913   9.558  0.00  0.00    +0.027 C 
ENDBRANCH  26  28
ENDBRANCH  23  24
ENDBRANCH  20  23
ENDBRANCH   7  17
TORSDOF 5
