REMARK  Name = ZINC67649064
REMARK  6 active torsions:
REMARK  status: ('A' for Active; 'I' for Inactive)
REMARK    1  A    between atoms: C_1  and  C_2
REMARK    2  A    between atoms: C_2  and  C_4
REMARK    3  A    between atoms: C_2  and  S_14
REMARK    4  A    between atoms: N_6  and  C_7
REMARK    5  A    between atoms: S_14  and  C_15
REMARK    6  A    between atoms: C_16  and  N_21
REMARK                            x       y       z     vdW  Elec       q    Type
REMARK                         _______ _______ _______ _____ _____    ______ ____
ROOT
ATOM      1  C   UNL     1      -0.028   1.508   0.025  0.00  0.00    +0.029 C 
ATOM      2  C   UNL     1      -0.002  -0.021   0.006  0.00  0.00    +0.136 C 
ENDROOT
BRANCH   2   3
ATOM      3  C   UNL     1       0.706  -0.496  -1.237  0.00  0.00    +0.230 C 
ATOM      4  O   UNL     1       1.864  -0.852  -1.176  0.00  0.00    -0.274 OA
ATOM      5  N   UNL     1       0.053  -0.526  -2.415  0.00  0.00    -0.283 N 
ATOM      6  H   UNL     1      -0.891  -0.304  -2.453  0.00  0.00    +0.155 HD
BRANCH   5   7
ATOM      7  C   UNL     1       0.736  -0.877  -3.586  0.00  0.00    +0.052 A 
ATOM      8  C   UNL     1       1.748  -1.826  -3.542  0.00  0.00    +0.025 A 
ATOM      9  C   UNL     1       2.420  -2.171  -4.699  0.00  0.00    +0.002 A 
ATOM     10  C   UNL     1       2.086  -1.572  -5.899  0.00  0.00    +0.002 A 
ATOM     11  C   UNL     1       1.079  -0.626  -5.947  0.00  0.00    +0.022 A 
ATOM     12  C   UNL     1       0.398  -0.281  -4.794  0.00  0.00    +0.062 A 
ATOM     13 CL   UNL     1      -0.871   0.901  -4.856  0.00  0.00    -0.082 Cl
ENDBRANCH   5   7
ENDBRANCH   2   3
BRANCH   2  14
ATOM     14  S   UNL     1       0.875  -0.630   1.472  0.00  0.00    -0.091 S 
BRANCH  14  15
ATOM     15  C   UNL     1      -0.143  -0.125   2.818  0.00  0.00    +0.128 A 
ATOM     16  C   UNL     1       0.238  -0.426   4.123  0.00  0.00    +0.158 A 
ATOM     17  C   UNL     1      -0.570  -0.024   5.170  0.00  0.00    +0.037 A 
ATOM     18  C   UNL     1      -1.738   0.670   4.877  0.00  0.00    +0.022 A 
ATOM     19  C   UNL     1      -2.055   0.935   3.560  0.00  0.00    +0.112 A 
ATOM     20  N   UNL     1      -1.262   0.543   2.581  0.00  0.00    -0.246 NA
BRANCH  16  21
ATOM     21  N   UNL     1       1.492  -1.168   4.385  0.00  0.00    +0.059 N 
ATOM     22  O   UNL     1       1.815  -1.426   5.521  0.00  0.00    -0.126 OA
ATOM     23  O   UNL     1       2.192  -1.516   3.464  0.00  0.00    -0.126 OA
ENDBRANCH  16  21
ENDBRANCH  14  15
ENDBRANCH   2  14
TORSDOF 5
