REMARK  Name = ZINC40371586
REMARK  4 active torsions:
REMARK  status: ('A' for Active; 'I' for Inactive)
REMARK    1  A    between atoms: C_5  and  C_9
REMARK    2  A    between atoms: C_5  and  N_13
REMARK    3  A    between atoms: N_10  and  O_11
REMARK    4  A    between atoms: C_14  and  C_16
REMARK                            x       y       z     vdW  Elec       q    Type
REMARK                         _______ _______ _______ _____ _____    ______ ____
ROOT
ATOM      1  C   UNL     1       0.365   1.341   1.433  0.00  0.00    +0.000 C 
ATOM      2  C   UNL     1       1.692   1.913   0.894  0.00  0.00    +0.000 C 
ATOM      3  C   UNL     1       1.708   1.825  -0.639  0.00  0.00    +0.002 C 
ATOM      4  C   UNL     1       1.919   0.390  -1.115  0.00  0.00    +0.033 C 
ATOM      5  C   UNL     1       3.048  -0.367  -0.411  0.00  0.00    +0.093 C 
ATOM      6  C   UNL     1       2.405  -1.409   0.510  0.00  0.00    +0.033 C 
ATOM      7  C   UNL     1       1.727  -0.751   1.726  0.00  0.00    +0.002 C 
ATOM      8  C   UNL     1       0.368  -0.190   1.300  0.00  0.00    +0.000 C 
ENDROOT
BRANCH   5   9
ATOM      9  C   UNL     1       3.782  -1.152  -1.499  0.00  0.00    +0.155 C 
ATOM     10  N   UNL     1       3.153  -2.046  -2.187  0.00  0.00    -0.075 NA
ATOM     11  N   UNL     1       5.115  -0.905  -1.746  0.00  0.00    -0.342 N 
ATOM     12  H   UNL     1       5.562  -0.170  -1.300  0.00  0.00    +0.144 HD
ATOM     13  H   UNL     1       5.605  -1.468  -2.365  0.00  0.00    +0.144 HD
BRANCH  10  14
ATOM     14  O   UNL     1       1.755  -2.208  -2.026  0.00  0.00    -0.408 OA
ATOM     15  H   UNL     1       1.373  -2.901  -2.582  0.00  0.00    +0.328 HD
ENDBRANCH  10  14
ENDBRANCH   5   9
BRANCH   5  16
ATOM     16  N   UNL     1       4.029   0.465   0.244  0.00  0.00    -0.303 N 
ATOM     17  C   UNL     1       4.998  -0.098   0.993  0.00  0.00    +0.217 C 
ATOM     18  O   UNL     1       5.104  -1.306   1.039  0.00  0.00    -0.275 OA
ATOM     19  H   UNL     1       3.991   1.429   0.146  0.00  0.00    +0.150 HD
BRANCH  17  20
ATOM     20  C   UNL     1       5.949   0.772   1.773  0.00  0.00    +0.075 C 
ATOM     21  C   UNL     1       6.710   1.686   0.810  0.00  0.00    +0.013 C 
ATOM     22  C   UNL     1       7.676   2.570   1.602  0.00  0.00    +0.001 C 
ATOM     23  C   UNL     1       8.670   1.687   2.360  0.00  0.00    +0.000 C 
ATOM     24  C   UNL     1       7.909   0.773   3.323  0.00  0.00    +0.001 C 
ATOM     25  C   UNL     1       6.943  -0.111   2.531  0.00  0.00    +0.013 C 
ENDBRANCH  17  20
ENDBRANCH   5  16
TORSDOF 4
