REMARK  Name = ZINC07889483
REMARK  4 active torsions:
REMARK  status: ('A' for Active; 'I' for Inactive)
REMARK    1  A    between atoms: C_1  and  C_2
REMARK    2  A    between atoms: C_5  and  C_11
REMARK    3  A    between atoms: C_7  and  N_8
REMARK    4  A    between atoms: N_22  and  C_23
REMARK                            x       y       z     vdW  Elec       q    Type
REMARK                         _______ _______ _______ _____ _____    ______ ____
ROOT
ATOM      1  C   UNL     1      -1.324  -0.737  -0.429  0.00  0.00    +0.198 C 
ATOM      2  N   UNL     1      -1.123  -2.183  -0.284  0.00  0.00    -0.321 N 
ATOM      3  C   UNL     1      -1.133  -2.736   0.992  0.00  0.00    +0.041 A 
ATOM      4  C   UNL     1      -0.421  -3.884   1.295  0.00  0.00    +0.024 A 
ATOM      5  C   UNL     1      -0.483  -4.411   2.571  0.00  0.00    +0.002 A 
ATOM      6  C   UNL     1      -1.254  -3.801   3.548  0.00  0.00    +0.001 A 
ATOM      7  C   UNL     1      -1.965  -2.654   3.264  0.00  0.00    +0.015 A 
ATOM      8  C   UNL     1      -1.902  -2.104   1.986  0.00  0.00    +0.058 A 
ATOM      9  C   UNL     1      -2.639  -0.878   1.633  0.00  0.00    +0.254 C 
ATOM     10  O   UNL     1      -3.448  -0.405   2.407  0.00  0.00    -0.270 OA
ATOM     11  N   UNL     1      -2.408  -0.285   0.444  0.00  0.00    -0.244 N 
ATOM     12  H   UNL     1      -0.988  -2.744  -1.064  0.00  0.00    +0.148 HD
ENDROOT
BRANCH   1  17
ATOM     13  C   UNL     1       3.551   2.021   0.992  0.00  0.00    +0.046 C 
ATOM     14  C   UNL     1       2.280   1.302   0.621  0.00  0.00    -0.020 A 
ATOM     15  C   UNL     1       1.057   1.920   0.807  0.00  0.00    +0.006 A 
ATOM     16  C   UNL     1      -0.109   1.260   0.467  0.00  0.00    +0.007 A 
ATOM     17  C   UNL     1      -0.052  -0.018  -0.058  0.00  0.00    -0.007 A 
ATOM     18  C   UNL     1       1.170  -0.635  -0.245  0.00  0.00    +0.040 A 
ATOM     19  C   UNL     1       2.337   0.025   0.095  0.00  0.00    +0.129 A 
BRANCH  19  20
ATOM     20  N   UNL     1       3.646  -0.636  -0.103  0.00  0.00    +0.057 N 
ATOM     21  O   UNL     1       3.692  -1.802  -0.452  0.00  0.00    -0.126 OA
ATOM     22  O   UNL     1       4.677  -0.015   0.082  0.00  0.00    -0.126 OA
ENDBRANCH  19  20
ENDBRANCH   1  17
BRANCH  11  23
ATOM     23  C   UNL     1      -3.218   0.780   0.039  0.00  0.00    +0.039 A 
ATOM     24  C   UNL     1      -3.301   1.927   0.818  0.00  0.00    +0.023 A 
ATOM     25  C   UNL     1      -4.099   2.979   0.412  0.00  0.00    +0.002 A 
ATOM     26  C   UNL     1      -4.823   2.887  -0.762  0.00  0.00    +0.000 A 
ATOM     27  C   UNL     1      -4.747   1.744  -1.537  0.00  0.00    +0.002 A 
ATOM     28  C   UNL     1      -3.947   0.690  -1.140  0.00  0.00    +0.023 A 
ENDBRANCH  11  23
TORSDOF 3
