REMARK  Name = ZINC12375976
REMARK  7 active torsions:
REMARK  status: ('A' for Active; 'I' for Inactive)
REMARK    1  A    between atoms: C_4  and  C_7
REMARK    2  A    between atoms: C_7  and  C_8
REMARK    3  A    between atoms: C_7  and  C_32
REMARK    4  A    between atoms: C_8  and  N_9
REMARK    5  A    between atoms: C_13  and  N_17
REMARK    6  A    between atoms: C_20  and  C_23
REMARK    7  A    between atoms: C_20  and  N_26
REMARK                            x       y       z     vdW  Elec       q    Type
REMARK                         _______ _______ _______ _____ _____    ______ ____
ROOT
ATOM      1  N   UNL     1       4.129  -3.174   2.452  0.00  0.00    -0.240 N 
ATOM      2  C   UNL     1       4.243  -4.495   2.262  0.00  0.00    +0.224 C 
ATOM      3  O   UNL     1       3.320  -5.277   2.198  0.00  0.00    -0.275 OA
ATOM      4  C   UNL     1       5.707  -4.855   2.138  0.00  0.00    +0.124 C 
ATOM      5  C   UNL     1       6.428  -3.500   2.291  0.00  0.00    +0.152 C 
ATOM      6  C   UNL     1       5.294  -2.515   2.479  0.00  0.00    +0.240 C 
ATOM      7  O   UNL     1       5.421  -1.319   2.634  0.00  0.00    -0.273 OA
ENDROOT
BRANCH   5   8
ATOM      8  N   UNL     1       7.312  -3.514   3.464  0.00  0.00    -0.291 NA
ATOM      9  C   UNL     1       6.548  -3.749   4.696  0.00  0.00    +0.084 C 
ATOM     10  C   UNL     1       7.512  -3.901   5.874  0.00  0.00    +0.013 C 
ATOM     11  C   UNL     1       8.352  -2.629   6.008  0.00  0.00    +0.015 C 
ATOM     12  C   UNL     1       9.100  -2.380   4.695  0.00  0.00    +0.013 C 
ATOM     13  C   UNL     1       8.090  -2.272   3.551  0.00  0.00    +0.084 C 
BRANCH  11  14
ATOM     14  N   UNL     1       9.320  -2.792   7.101  0.00  0.00    +0.389 N 
ATOM     15  C   UNL     1       8.601  -3.032   8.357  0.00  0.00    -0.077 C 
ATOM     16  C   UNL     1       9.605  -3.283   9.485  0.00  0.00    -0.019 C 
ATOM     17  C   UNL     1      10.509  -2.057   9.638  0.00  0.00    -0.004 C 
ATOM     18  C   UNL     1      11.197  -1.772   8.300  0.00  0.00    -0.019 C 
ATOM     19  C   UNL     1      10.134  -1.576   7.217  0.00  0.00    -0.077 C 
ATOM     20  H   UNL     1       9.919  -3.579   6.903  0.00  0.00    -0.080 HD
ENDBRANCH  11  14
BRANCH  11  21
ATOM     21  C   UNL     1       7.450  -1.458   6.303  0.00  0.00    +0.200 C 
ATOM     22  O   UNL     1       6.306  -1.648   6.657  0.00  0.00    -0.278 OA
ATOM     23  N   UNL     1       7.915  -0.200   6.173  0.00  0.00    -0.330 N 
ATOM     24  H   UNL     1       8.805  -0.045   5.819  0.00  0.00    +0.145 HD
ATOM     25  H   UNL     1       7.361   0.552   6.435  0.00  0.00    +0.145 HD
ENDBRANCH  11  21
ENDBRANCH   5   8
BRANCH   1  26
ATOM     26  C   UNL     1       2.836  -2.505   2.610  0.00  0.00    +0.129 C 
BRANCH  26  27
ATOM     27  C   UNL     1       2.310  -2.079   1.238  0.00  0.00    +0.067 C 
BRANCH  27  31
ATOM     28  C   UNL     1      -1.286   0.174   1.725  0.00  0.00    +0.000 A 
ATOM     29  C   UNL     1      -0.313   0.607   0.844  0.00  0.00    +0.000 A 
ATOM     30  C   UNL     1       0.850  -0.122   0.686  0.00  0.00    +0.004 A 
ATOM     31  C   UNL     1       1.042  -1.284   1.411  0.00  0.00    -0.038 A 
ATOM     32  C   UNL     1       0.069  -1.716   2.293  0.00  0.00    +0.004 A 
ATOM     33  C   UNL     1      -1.095  -0.988   2.450  0.00  0.00    +0.000 A 
ENDBRANCH  27  31
BRANCH  27  34
ATOM     34  C   UNL     1       2.026  -3.304   0.407  0.00  0.00    -0.038 A 
ATOM     35  C   UNL     1       1.025  -4.178   0.784  0.00  0.00    +0.004 A 
ATOM     36  C   UNL     1       0.764  -5.301   0.022  0.00  0.00    +0.000 A 
ATOM     37  C   UNL     1       1.505  -5.550  -1.119  0.00  0.00    +0.000 A 
ATOM     38  C   UNL     1       2.506  -4.674  -1.497  0.00  0.00    +0.000 A 
ATOM     39  C   UNL     1       2.763  -3.549  -0.737  0.00  0.00    +0.004 A 
ENDBRANCH  27  34
ENDBRANCH  26  27
ENDBRANCH   1  26
TORSDOF 7
