REMARK  Name = ZINC12858533
REMARK  7 active torsions:
REMARK  status: ('A' for Active; 'I' for Inactive)
REMARK    1  A    between atoms: C_1  and  C_2
REMARK    2  A    between atoms: C_2  and  C_3
REMARK    3  A    between atoms: C_3  and  N_4
REMARK    4  A    between atoms: C_15  and  C_26
REMARK    5  A    between atoms: C_21  and  N_25
REMARK    6  A    between atoms: C_22  and  C_23
REMARK    7  A    between atoms: C_26  and  C_27
REMARK                            x       y       z     vdW  Elec       q    Type
REMARK                         _______ _______ _______ _____ _____    ______ ____
ROOT
ATOM      1  N   UNL     1       0.738  -1.962  -1.265  0.00  0.00    -0.270 N 
ATOM      2  C   UNL     1       1.745  -2.725  -0.700  0.00  0.00    +0.041 A 
ATOM      3  C   UNL     1       2.903  -2.315  -0.037  0.00  0.00    +0.024 A 
ATOM      4  C   UNL     1       3.750  -3.307   0.432  0.00  0.00    +0.002 A 
ATOM      5  C   UNL     1       3.472  -4.648   0.259  0.00  0.00    +0.000 A 
ATOM      6  C   UNL     1       2.322  -5.070  -0.399  0.00  0.00    +0.007 A 
ATOM      7  C   UNL     1       1.475  -4.089  -0.869  0.00  0.00    -0.001 A 
ATOM      8  C   UNL     1       0.178  -4.169  -1.609  0.00  0.00    +0.145 C 
ATOM      9  C   UNL     1      -0.227  -2.727  -1.819  0.00  0.00    +0.240 C 
ATOM     10  O   UNL     1      -1.226  -2.333  -2.381  0.00  0.00    -0.274 OA
ATOM     11  C   UNL     1       0.345  -4.869  -2.928  0.00  0.00    +0.061 A 
ATOM     12  C   UNL     1       0.999  -4.484  -4.034  0.00  0.00    +0.044 A 
ATOM     13  N   UNL     1       0.860  -5.464  -4.956  0.00  0.00    -0.278 N 
ATOM     14  H   UNL     1       1.230  -5.459  -5.853  0.00  0.00    +0.189 HD
ATOM     15  N   UNL     1       0.087  -6.490  -4.390  0.00  0.00    -0.135 NA
ATOM     16  C   UNL     1      -0.225  -6.139  -3.176  0.00  0.00    +0.245 A 
ATOM     17  O   UNL     1      -0.956  -6.795  -2.236  0.00  0.00    -0.421 OA
ATOM     18  C   UNL     1      -1.350  -6.102  -1.150  0.00  0.00    +0.201 C 
ATOM     19  C   UNL     1      -0.868  -4.887  -0.803  0.00  0.00    +0.110 C 
ENDROOT
BRANCH  18  20
ATOM     20  N   UNL     1      -2.304  -6.667  -0.341  0.00  0.00    -0.328 N 
ATOM     21  H   UNL     1      -2.671  -7.537  -0.559  0.00  0.00    +0.145 HD
ATOM     22  H   UNL     1      -2.610  -6.196   0.450  0.00  0.00    +0.145 HD
ENDBRANCH  18  20
BRANCH  19  23
ATOM     23  C   UNL     1      -1.375  -4.259   0.380  0.00  0.00    +0.102 C 
ATOM     24  N   UNL     1      -1.778  -3.761   1.318  0.00  0.00    -0.191 NA
ENDBRANCH  19  23
BRANCH  12  25
ATOM     25  C   UNL     1       1.754  -3.193  -4.216  0.00  0.00    +0.052 C 
ATOM     26  C   UNL     1       3.176  -3.352  -3.671  0.00  0.00    +0.010 C 
ENDBRANCH  12  25
BRANCH   1  27
ATOM     27  C   UNL     1       0.718  -0.497  -1.257  0.00  0.00    +0.113 C 
BRANCH  27  29
ATOM     28  C   UNL     1      -0.019   1.526   0.010  0.00  0.00    +0.005 C 
ATOM     29  C   UNL     1       0.002  -0.004   0.002  0.00  0.00    +0.016 C 
ENDBRANCH  27  29
ENDBRANCH   1  27
TORSDOF 5
