REMARK  Name = ZINC09144444
REMARK  12 active torsions:
REMARK  status: ('A' for Active; 'I' for Inactive)
REMARK    1  A    between atoms: C_1  and  C_2
REMARK    2  A    between atoms: C_2  and  C_3
REMARK    3  A    between atoms: C_2  and  C_4
REMARK    4  A    between atoms: C_2  and  P_5
REMARK    5  A    between atoms: P_5  and  N_20
REMARK    6  A    between atoms: P_5  and  N_26
REMARK    7  A    between atoms: N_6  and  C_7
REMARK    8  A    between atoms: C_7  and  N_9
REMARK    9  A    between atoms: N_9  and  N_10
REMARK   10  A    between atoms: C_11  and  C_12
REMARK   11  A    between atoms: C_16  and  O_19
REMARK   12  A    between atoms: C_17  and  O_18
REMARK                            x       y       z     vdW  Elec       q    Type
REMARK                         _______ _______ _______ _____ _____    ______ ____
ROOT
ATOM      1  P   UNL     1       7.256   3.917  -0.206  0.00  0.00    +0.102 P 
ATOM      2  N   UNL     1       5.867   3.390   0.247  0.00  0.00    -0.179 NA
ENDROOT
BRANCH   1   3
ATOM      3  N   UNL     1       7.377   5.558   0.149  0.00  0.00    -0.254 NA
ATOM      4  C   UNL     1       8.773   6.013   0.069  0.00  0.00    +0.119 C 
ATOM      5  C   UNL     1       8.829   7.519   0.340  0.00  0.00    +0.175 C 
ATOM      6  O   UNL     1       8.244   7.791   1.616  0.00  0.00    -0.377 OA
ATOM      7  C   UNL     1       6.885   7.361   1.729  0.00  0.00    +0.175 C 
ATOM      8  C   UNL     1       6.808   5.854   1.472  0.00  0.00    +0.119 C 
ENDBRANCH   1   3
BRANCH   1   9
ATOM      9  N   UNL     1       8.467   3.077   0.607  0.00  0.00    -0.254 NA
ATOM     10  C   UNL     1       8.548   1.686   0.138  0.00  0.00    +0.119 C 
ATOM     11  C   UNL     1       9.698   0.976   0.858  0.00  0.00    +0.175 C 
ATOM     12  O   UNL     1       9.493   1.060   2.271  0.00  0.00    -0.377 OA
ATOM     13  C   UNL     1       9.410   2.401   2.762  0.00  0.00    +0.175 C 
ATOM     14  C   UNL     1       8.257   3.125   2.061  0.00  0.00    +0.119 C 
ENDBRANCH   1   9
BRANCH   1  16
ATOM     15  C   UNL     1       8.931   3.658  -2.362  0.00  0.00    +0.019 C 
ATOM     16  C   UNL     1       7.444   3.669  -2.002  0.00  0.00    +0.021 C 
ATOM     17  C   UNL     1       6.813   2.334  -2.401  0.00  0.00    +0.019 C 
ATOM     18  C   UNL     1       6.747   4.807  -2.750  0.00  0.00    +0.019 C 
ENDBRANCH   1  16
BRANCH   2  19
ATOM     19  C   UNL     1       4.804   4.156   0.133  0.00  0.00    +0.175 C 
ATOM     20  S   UNL     1       4.960   5.752  -0.467  0.00  0.00    -0.015 S 
BRANCH  19  21
ATOM     21  N   UNL     1       3.593   3.684   0.488  0.00  0.00    -0.217 N 
ATOM     22  H   UNL     1       2.809   4.249   0.404  0.00  0.00    +0.176 HD
BRANCH  21  23
ATOM     23  N   UNL     1       3.476   2.482   0.940  0.00  0.00    -0.188 NA
ATOM     24  C   UNL     1       2.286   2.019   1.288  0.00  0.00    +0.142 C 
BRANCH  24  25
ATOM     25  C   UNL     1       2.158   0.704   1.782  0.00  0.00    +0.040 A 
ATOM     26  C   UNL     1       0.892   0.204   2.156  0.00  0.00    +0.013 A 
ATOM     27  C   UNL     1       0.776  -1.065   2.637  0.00  0.00    +0.004 A 
ATOM     28  C   UNL     1       1.896  -1.885   2.757  0.00  0.00    +0.049 A 
ATOM     29  C   UNL     1       3.151  -1.422   2.399  0.00  0.00    +0.159 A 
ATOM     30  C   UNL     1       3.300  -0.128   1.909  0.00  0.00    +0.167 A 
BRANCH  30  31
ATOM     31  O   UNL     1       4.524   0.333   1.555  0.00  0.00    -0.503 OA
ATOM     32  H   UNL     1       5.005   0.764   2.275  0.00  0.00    +0.292 HD
ENDBRANCH  30  31
BRANCH  29  33
ATOM     33  O   UNL     1       4.237  -2.231   2.525  0.00  0.00    -0.503 OA
ATOM     34  H   UNL     1       4.676  -2.168   3.384  0.00  0.00    +0.292 HD
ENDBRANCH  29  33
ENDBRANCH  24  25
ENDBRANCH  21  23
ENDBRANCH  19  21
ENDBRANCH   2  19
TORSDOF 9
