REMARK  Name = ZINC65523296
REMARK  6 active torsions:
REMARK  status: ('A' for Active; 'I' for Inactive)
REMARK    1  A    between atoms: C_1  and  C_2
REMARK    2  A    between atoms: C_5  and  N_9
REMARK    3  A    between atoms: N_12  and  C_13
REMARK    4  A    between atoms: C_13  and  C_14
REMARK    5  A    between atoms: C_14  and  S_15
REMARK    6  A    between atoms: S_15  and  C_18
REMARK                            x       y       z     vdW  Elec       q    Type
REMARK                         _______ _______ _______ _____ _____    ______ ____
ROOT
ATOM      1  N   UNL     1       0.059  -4.173  -0.025  0.00  0.00    -0.267 N 
ATOM      2  C   UNL     1      -0.040  -4.840  -1.192  0.00  0.00    +0.304 C 
ATOM      3  O   UNL     1      -0.054  -4.229  -2.243  0.00  0.00    -0.253 OA
ATOM      4  N   UNL     1      -0.124  -6.185  -1.194  0.00  0.00    -0.298 N 
ATOM      5  H   UNL     1       0.152  -4.662   0.807  0.00  0.00    +0.156 HD
ATOM      6  H   UNL     1      -0.113  -6.673  -0.355  0.00  0.00    +0.150 HD
ENDROOT
BRANCH   1  11
ATOM      7  C   UNL     1      -0.074   1.502   0.017  0.00  0.00    +0.044 C 
ATOM      8  C   UNL     1      -0.038  -0.005   0.007  0.00  0.00    -0.048 A 
ATOM      9  C   UNL     1      -0.627  -0.702  -1.032  0.00  0.00    +0.005 A 
ATOM     10  C   UNL     1      -0.597  -2.083  -1.045  0.00  0.00    +0.026 A 
ATOM     11  C   UNL     1       0.027  -2.772  -0.015  0.00  0.00    +0.070 A 
ATOM     12  C   UNL     1       0.619  -2.070   1.029  0.00  0.00    +0.145 A 
ATOM     13  C   UNL     1       0.589  -0.687   1.033  0.00  0.00    +0.043 A 
ATOM     14  F   UNL     1       1.227  -2.736   2.034  0.00  0.00    -0.204 F 
ENDBRANCH   1  11
BRANCH   4  15
ATOM     15  C   UNL     1      -0.232  -6.911  -2.462  0.00  0.00    +0.129 C 
BRANCH  15  16
ATOM     16  C   UNL     1      -0.311  -8.413  -2.184  0.00  0.00    +0.190 C 
BRANCH  16  17
ATOM     17  S   UNL     1      -0.445  -9.312  -3.755  0.00  0.00    -0.002 S 
ATOM     18  O   UNL     1      -1.697  -9.040  -4.370  0.00  0.00    -0.169 OA
ATOM     19  O   UNL     1       0.765  -9.193  -4.491  0.00  0.00    -0.169 OA
BRANCH  17  20
ATOM     20  C   UNL     1      -0.528 -11.012  -3.298  0.00  0.00    +0.088 A 
ATOM     21  C   UNL     1       0.633 -11.751  -3.172  0.00  0.00    +0.028 A 
ATOM     22  C   UNL     1       0.569 -13.084  -2.814  0.00  0.00    +0.022 A 
ATOM     23  C   UNL     1      -0.658 -13.679  -2.582  0.00  0.00    +0.041 A 
ATOM     24  C   UNL     1      -1.820 -12.939  -2.708  0.00  0.00    +0.022 A 
ATOM     25  C   UNL     1      -1.754 -11.604  -3.060  0.00  0.00    +0.028 A 
ATOM     26 CL   UNL     1      -0.740 -15.354  -2.133  0.00  0.00    -0.084 Cl
ENDBRANCH  17  20
ENDBRANCH  16  17
ENDBRANCH  15  16
ENDBRANCH   4  15
TORSDOF 5
