REMARK  Name = ZINC03536288
REMARK  10 active torsions:
REMARK  status: ('A' for Active; 'I' for Inactive)
REMARK    1  A    between atoms: C_3  and  O_30
REMARK    2  A    between atoms: C_6  and  C_7
REMARK    3  A    between atoms: C_10  and  S_13
REMARK    4  A    between atoms: N_11  and  N_12
REMARK    5  A    between atoms: S_13  and  C_14
REMARK    6  A    between atoms: C_14  and  C_15
REMARK    7  A    between atoms: N_17  and  N_18
REMARK    8  A    between atoms: C_19  and  C_21
REMARK    9  A    between atoms: C_24  and  N_27
REMARK   10  A    between atoms: O_30  and  C_31
REMARK                            x       y       z     vdW  Elec       q    Type
REMARK                         _______ _______ _______ _____ _____    ______ ____
ROOT
ATOM      1  S   UNL     1       5.068  -6.943  -0.508  0.00  0.00    -0.075 S 
ENDROOT
BRANCH   1   5
ATOM      2  C   UNL     1       5.530 -10.776   0.095  0.00  0.00    +0.182 A 
ATOM      3  N   UNL     1       4.228 -10.658  -0.028  0.00  0.00    -0.127 NA
ATOM      4  N   UNL     1       3.916  -9.428  -0.231  0.00  0.00    -0.121 NA
ATOM      5  C   UNL     1       5.000  -8.686  -0.257  0.00  0.00    +0.209 A 
ATOM      6  N   UNL     1       6.065  -9.516  -0.047  0.00  0.00    -0.224 N 
BRANCH   2  12
ATOM      7  C   UNL     1       5.670 -13.262   0.120  0.00  0.00    +0.015 A 
ATOM      8  C   UNL     1       6.375 -14.426   0.346  0.00  0.00    +0.046 A 
ATOM      9  C   UNL     1       7.684 -14.369   0.804  0.00  0.00    +0.127 A 
ATOM     10  C   UNL     1       8.292 -13.141   1.030  0.00  0.00    +0.046 A 
ATOM     11  C   UNL     1       7.597 -11.973   0.801  0.00  0.00    +0.015 A 
ATOM     12  C   UNL     1       6.280 -12.026   0.342  0.00  0.00    +0.021 A 
BRANCH   9  13
ATOM     13  O   UNL     1       8.373 -15.518   1.031  0.00  0.00    -0.434 OA
BRANCH  13  14
ATOM     14  C   UNL     1       7.688 -16.746   0.777  0.00  0.00    +0.541 C 
ATOM     15  F   UNL     1       6.551 -16.822   1.590  0.00  0.00    -0.166 F 
ATOM     16  F   UNL     1       7.304 -16.797  -0.567  0.00  0.00    -0.166 F 
ENDBRANCH  13  14
ENDBRANCH   9  13
ENDBRANCH   2  12
BRANCH   6  17
ATOM     17  N   UNL     1       7.385  -9.169   0.009  0.00  0.00    -0.295 N 
ATOM     18  H   UNL     1       7.683  -8.118  -0.122  0.00  0.00    +0.163 HD
ATOM     19  H   UNL     1       8.149  -9.939   0.185  0.00  0.00    +0.163 HD
ENDBRANCH   6  17
ENDBRANCH   1   5
BRANCH   1  20
ATOM     20  C   UNL     1       3.305  -6.585  -0.706  0.00  0.00    +0.174 C 
BRANCH  20  21
ATOM     21  C   UNL     1       3.115  -5.109  -0.939  0.00  0.00    +0.239 C 
ATOM     22  O   UNL     1       4.077  -4.371  -0.969  0.00  0.00    -0.273 OA
ATOM     23  N   UNL     1       1.876  -4.608  -1.115  0.00  0.00    -0.233 N 
ATOM     24  H   UNL     1       1.003  -5.277  -1.088  0.00  0.00    +0.173 HD
BRANCH  23  25
ATOM     25  N   UNL     1       1.699  -3.235  -1.332  0.00  0.00    -0.230 N 
ATOM     26  C   UNL     1       0.460  -2.735  -1.507  0.00  0.00    +0.260 C 
ATOM     27  O   UNL     1      -0.504  -3.474  -1.477  0.00  0.00    -0.269 OA
ATOM     28  H   UNL     1       2.572  -2.566  -1.359  0.00  0.00    +0.173 HD
BRANCH  26  29
ATOM     29  C   UNL     1       0.274  -1.286  -1.736  0.00  0.00    +0.038 A 
ATOM     30  C   UNL     1      -1.008  -0.764  -1.918  0.00  0.00    +0.015 A 
ATOM     31  C   UNL     1      -1.175   0.588  -2.131  0.00  0.00    +0.033 A 
ATOM     32  C   UNL     1      -0.075   1.427  -2.164  0.00  0.00    +0.126 A 
ATOM     33  C   UNL     1       1.198   0.917  -1.984  0.00  0.00    +0.033 A 
ATOM     34  C   UNL     1       1.379  -0.434  -1.770  0.00  0.00    +0.015 A 
BRANCH  32  35
ATOM     35  N   UNL     1      -0.262   2.878  -2.393  0.00  0.00    +0.056 N 
ATOM     36  O   UNL     1      -1.382   3.330  -2.551  0.00  0.00    -0.126 OA
ATOM     37  O   UNL     1       0.704   3.619  -2.422  0.00  0.00    -0.126 OA
ENDBRANCH  32  35
ENDBRANCH  26  29
ENDBRANCH  23  25
ENDBRANCH  20  21
ENDBRANCH   1  20
TORSDOF 10
