REMARK  Name = ZINC15958077
REMARK  17 active torsions:
REMARK  status: ('A' for Active; 'I' for Inactive)
REMARK    1  A    between atoms: C_1  and  C_2
REMARK    2  A    between atoms: C_2  and  C_4
REMARK    3  A    between atoms: C_2  and  C_42
REMARK    4  A    between atoms: C_4  and  C_5
REMARK    5  A    between atoms: C_5  and  C_6
REMARK    6  A    between atoms: C_6  and  O_8
REMARK    7  A    between atoms: O_8  and  C_9
REMARK    8  A    between atoms: C_20  and  O_38
REMARK    9  A    between atoms: C_24  and  C_37
REMARK   10  A    between atoms: C_29  and  C_36
REMARK   11  A    between atoms: C_30  and  N_32
REMARK   12  A    between atoms: C_33  and  C_35
REMARK   13  A    between atoms: O_38  and  C_39
REMARK   14  A    between atoms: C_39  and  C_41
REMARK   15  A    between atoms: C_42  and  O_43
REMARK   16  A    between atoms: O_43  and  C_44
REMARK   17  A    between atoms: C_44  and  C_46
REMARK                            x       y       z     vdW  Elec       q    Type
REMARK                         _______ _______ _______ _____ _____    ______ ____
ROOT
ATOM      1  C   UNL     1       2.005   0.429  -1.311  0.00  0.00    +0.197 C 
ATOM      2  C   UNL     1       1.744   1.585  -0.298  0.00  0.00    +0.051 C 
ATOM      3  C   UNL     1       0.218   1.515  -0.143  0.00  0.00    +0.004 C 
ATOM      4  C   UNL     1      -0.446   2.343   0.909  0.00  0.00    +0.000 C 
ATOM      5  C   UNL     1       0.112   2.161   2.317  0.00  0.00    +0.031 C 
ATOM      6  C   UNL     1      -0.653   3.063   3.252  0.00  0.00    -0.027 C 
ATOM      7  C   UNL     1      -1.897   3.370   3.050  0.00  0.00    -0.064 C 
ATOM      8  C   UNL     1      -2.599   4.262   4.062  0.00  0.00    +0.075 C 
ATOM      9  C   UNL     1      -3.335   5.363   3.289  0.00  0.00    +0.180 C 
ATOM     10  C   UNL     1      -2.820   5.408   1.853  0.00  0.00    +0.046 C 
ATOM     11  C   UNL     1      -3.192   4.136   1.099  0.00  0.00    +0.015 C 
ATOM     12  C   UNL     1      -2.703   2.900   1.868  0.00  0.00    -0.008 C 
ATOM     13  C   UNL     1      -1.946   1.986   0.930  0.00  0.00    +0.003 C 
ATOM     14  C   UNL     1      -2.145   0.500   1.158  0.00  0.00    +0.005 C 
ATOM     15  C   UNL     1      -1.470  -0.320   0.041  0.00  0.00    +0.009 C 
ATOM     16  C   UNL     1       0.002  -0.004   0.002  0.00  0.00    -0.007 C 
ATOM     17  C   UNL     1       0.756  -0.489  -1.256  0.00  0.00    +0.120 C 
ATOM     18  C   UNL     1       0.719  -0.621   1.200  0.00  0.00    +0.013 C 
ATOM     19  C   UNL     1      -3.946   2.186   2.402  0.00  0.00    +0.016 C 
ENDROOT
BRANCH  17  20
ATOM     20  N   UNL     1       1.149  -1.885  -1.090  0.00  0.00    -0.309 N 
ATOM     21  C   UNL     1       1.350  -2.662  -2.173  0.00  0.00    +0.210 C 
ATOM     22  O   UNL     1       1.204  -2.202  -3.285  0.00  0.00    -0.276 OA
ATOM     23  C   UNL     1       1.756  -4.103  -2.002  0.00  0.00    +0.109 C 
ATOM     24  H   UNL     1       1.267  -2.254  -0.200  0.00  0.00    +0.149 HD
ENDBRANCH  17  20
BRANCH   1  25
ATOM     25  O   UNL     1       2.162   0.974  -2.647  0.00  0.00    -0.459 OA
BRANCH  25  26
ATOM     26  C   UNL     1       3.413   1.244  -3.052  0.00  0.00    +0.307 C 
ATOM     27  O   UNL     1       4.346   1.033  -2.313  0.00  0.00    -0.251 OA
BRANCH  26  28
ATOM     28  C   UNL     1       3.655   1.811  -4.427  0.00  0.00    +0.121 C 
BRANCH  28  29
ATOM     29  C   UNL     1       5.155   2.026  -4.634  0.00  0.00    +0.018 C 
BRANCH  29  31
ATOM     30  C   UNL     1       4.989   1.573  -7.085  0.00  0.00    +0.011 C 
ATOM     31  C   UNL     1       5.401   2.602  -6.030  0.00  0.00    +0.024 C 
BRANCH  31  32
ATOM     32  C   UNL     1       6.886   2.932  -6.192  0.00  0.00    +0.235 C 
BRANCH  32  33
ATOM     33  O   UNL     1       7.099   3.587  -7.470  0.00  0.00    -0.465 OA
BRANCH  33  34
ATOM     34  C   UNL     1       8.358   3.945  -7.769  0.00  0.00    +0.304 C 
ATOM     35  O   UNL     1       9.252   3.719  -6.988  0.00  0.00    -0.251 OA
ATOM     36  C   UNL     1       8.656   4.629  -9.078  0.00  0.00    +0.136 C 
ENDBRANCH  33  34
ENDBRANCH  32  33
ENDBRANCH  31  32
ENDBRANCH  29  31
ENDBRANCH  28  29
ENDBRANCH  26  28
ENDBRANCH  25  26
ENDBRANCH   1  25
BRANCH   9  37
ATOM     37  O   UNL     1      -3.105   6.646   3.929  0.00  0.00    -0.461 OA
BRANCH  37  38
ATOM     38  C   UNL     1      -3.976   7.017   4.880  0.00  0.00    +0.304 C 
ATOM     39  O   UNL     1      -4.900   6.293   5.169  0.00  0.00    -0.251 OA
ATOM     40  C   UNL     1      -3.802   8.336   5.588  0.00  0.00    +0.136 C 
ENDBRANCH  37  38
ENDBRANCH   9  37
TORSDOF 11
