REMARK  Name = ZINC25210106
REMARK  5 active torsions:
REMARK  status: ('A' for Active; 'I' for Inactive)
REMARK    1  A    between atoms: C_1  and  C_2
REMARK    2  A    between atoms: C_9  and  C_11
REMARK    3  A    between atoms: C_11  and  N_12
REMARK    4  A    between atoms: C_15  and  C_19
REMARK    5  A    between atoms: C_15  and  C_20
REMARK                            x       y       z     vdW  Elec       q    Type
REMARK                         _______ _______ _______ _____ _____    ______ ____
ROOT
ATOM      1  N   UNL     1      -1.426  -2.784  -2.946  0.00  0.00    -0.215 N 
ATOM      2  C   UNL     1      -1.983  -2.417  -4.117  0.00  0.00    +0.251 C 
ATOM      3  O   UNL     1      -2.307  -1.298  -4.455  0.00  0.00    -0.272 OA
ATOM      4  C   UNL     1      -2.121  -3.693  -4.923  0.00  0.00    +0.135 C 
ATOM      5  N   UNL     1      -1.580  -4.729  -4.027  0.00  0.00    -0.281 N 
ATOM      6  C   UNL     1      -1.201  -4.102  -2.899  0.00  0.00    +0.310 C 
ATOM      7  O   UNL     1      -0.708  -4.669  -1.943  0.00  0.00    -0.252 OA
ATOM      8  C   UNL     1      -1.297  -3.612  -6.210  0.00  0.00    +0.047 C 
ATOM      9  H   UNL     1      -1.555  -5.779  -4.352  0.00  0.00    +0.152 HD
ENDROOT
BRANCH   4  10
ATOM     10  C   UNL     1      -3.569  -3.967  -5.238  0.00  0.00    -0.015 A 
ATOM     11  C   UNL     1      -4.438  -2.916  -5.466  0.00  0.00    +0.006 A 
ATOM     12  C   UNL     1      -5.763  -3.170  -5.760  0.00  0.00    +0.004 A 
ATOM     13  C   UNL     1      -6.228  -4.473  -5.817  0.00  0.00    -0.044 A 
ATOM     14  C   UNL     1      -5.360  -5.524  -5.584  0.00  0.00    -0.044 A 
ATOM     15  C   UNL     1      -4.030  -5.267  -5.294  0.00  0.00    +0.010 A 
ATOM     16  C   UNL     1      -6.102  -6.837  -5.702  0.00  0.00    +0.036 C 
ATOM     17  C   UNL     1      -7.597  -6.467  -5.600  0.00  0.00    +0.009 C 
ATOM     18  C   UNL     1      -7.613  -5.010  -6.108  0.00  0.00    +0.036 C 
ENDBRANCH   4  10
BRANCH   1  19
ATOM     19  C   UNL     1      -1.111  -1.855  -1.858  0.00  0.00    +0.213 C 
BRANCH  19  27
ATOM     20  C   UNL     1       3.551   2.140  -1.301  0.00  0.00    +0.009 C 
ATOM     21  C   UNL     1       2.124   1.587  -1.276  0.00  0.00    +0.003 C 
ATOM     22  C   UNL     1       1.419   2.053  -0.001  0.00  0.00    +0.006 C 
ATOM     23  C   UNL     1      -0.019   1.528   0.010  0.00  0.00    +0.019 C 
ATOM     24  C   UNL     1       0.002  -0.004   0.002  0.00  0.00    +0.108 C 
ATOM     25  N   UNL     1       0.803  -0.460  -1.143  0.00  0.00    -0.300 N 
ATOM     26  C   UNL     1       2.170   0.056  -1.299  0.00  0.00    +0.111 C 
ATOM     27  C   UNL     1       0.293  -1.335  -2.032  0.00  0.00    +0.234 C 
ATOM     28  O   UNL     1       0.964  -1.703  -2.973  0.00  0.00    -0.274 OA
ENDBRANCH  19  27
ENDBRANCH   1  19
TORSDOF 3
