REMARK  Name = ZINC39653872
REMARK  9 active torsions:
REMARK  status: ('A' for Active; 'I' for Inactive)
REMARK    1  A    between atoms: C_1  and  C_2
REMARK    2  A    between atoms: C_2  and  O_3
REMARK    3  A    between atoms: O_3  and  C_4
REMARK    4  A    between atoms: C_7  and  C_10
REMARK    5  A    between atoms: C_10  and  C_11
REMARK    6  A    between atoms: C_11  and  N_12
REMARK    7  A    between atoms: C_13  and  C_15
REMARK    8  A    between atoms: C_26  and  C_28
REMARK    9  A    between atoms: C_32  and  C_35
REMARK                            x       y       z     vdW  Elec       q    Type
REMARK                         _______ _______ _______ _____ _____    ______ ____
ROOT
ATOM      1  C   UNL     1      -0.834 -10.175  -3.638  0.00  0.00    +0.100 C 
ATOM      2  C   UNL     1      -0.726 -10.876  -2.265  0.00  0.00    +0.121 C 
ATOM      3  N   UNL     1      -2.115 -11.275  -1.939  0.00  0.00    -0.296 N 
ATOM      4  C   UNL     1      -2.682 -11.729  -3.232  0.00  0.00    +0.115 C 
ATOM      5  C   UNL     1      -2.116 -10.741  -4.271  0.00  0.00    -0.004 C 
ATOM      6  C   UNL     1      -1.788 -11.470  -5.570  0.00  0.00    -0.010 C 
ATOM      7  C   UNL     1      -3.085 -11.973  -6.210  0.00  0.00    -0.082 C 
ATOM      8  N   UNL     1      -3.974 -10.835  -6.476  0.00  0.00    +0.379 N 
ATOM      9  C   UNL     1      -4.360 -10.196  -5.212  0.00  0.00    -0.082 C 
ATOM     10  C   UNL     1      -3.117  -9.618  -4.529  0.00  0.00    -0.010 C 
ATOM     11  C   UNL     1      -2.725 -11.236  -0.738  0.00  0.00    +0.251 C 
ATOM     12  O   UNL     1      -3.880 -11.602  -0.631  0.00  0.00    -0.270 OA
ATOM     13  H   UNL     1      -3.496 -10.165  -7.058  0.00  0.00    -0.086 HD
ATOM     14  H   UNL     1      -4.801 -11.162  -6.952  0.00  0.00    -0.086 HD
ENDROOT
BRANCH  11  15
ATOM     15  C   UNL     1      -1.992 -10.748   0.447  0.00  0.00    +0.091 A 
ATOM     16  C   UNL     1      -2.026  -9.392   0.785  0.00  0.00    +0.056 A 
ATOM     17  C   UNL     1      -1.339  -8.944   1.895  0.00  0.00    +0.021 A 
ATOM     18  C   UNL     1      -0.616  -9.832   2.672  0.00  0.00    +0.007 A 
ATOM     19  C   UNL     1      -0.577 -11.175   2.345  0.00  0.00    -0.014 A 
ATOM     20  C   UNL     1      -1.266 -11.641   1.240  0.00  0.00    +0.140 A 
ATOM     21  F   UNL     1      -1.231 -12.954   0.925  0.00  0.00    -0.204 F 
ATOM     22  C   UNL     1       0.213 -12.133   3.199  0.00  0.00    +0.047 C 
ATOM     23 CL   UNL     1      -2.930  -8.275  -0.189  0.00  0.00    -0.083 Cl
ENDBRANCH  11  15
BRANCH   1  25
ATOM     24  N   UNL     1      -0.560  -7.853  -4.445  0.00  0.00    -0.315 N 
ATOM     25  C   UNL     1      -0.951  -8.684  -3.458  0.00  0.00    +0.218 C 
ATOM     26  O   UNL     1      -1.397  -8.231  -2.425  0.00  0.00    -0.275 OA
ATOM     27  H   UNL     1      -0.204  -8.215  -5.271  0.00  0.00    +0.149 HD
BRANCH  24  28
ATOM     28  C   UNL     1      -0.674  -6.403  -4.270  0.00  0.00    +0.109 C 
BRANCH  28  29
ATOM     29  C   UNL     1      -0.167  -5.696  -5.528  0.00  0.00    +0.054 C 
BRANCH  29  33
ATOM     30  C   UNL     1      -0.499  -1.466  -5.017  0.00  0.00    +0.121 A 
ATOM     31  C   UNL     1       0.662  -2.123  -4.636  0.00  0.00    +0.046 A 
ATOM     32  C   UNL     1       0.767  -3.490  -4.802  0.00  0.00    +0.007 A 
ATOM     33  C   UNL     1      -0.284  -4.204  -5.348  0.00  0.00    -0.046 A 
ATOM     34  C   UNL     1      -1.442  -3.552  -5.729  0.00  0.00    +0.007 A 
ATOM     35  C   UNL     1      -1.554  -2.185  -5.559  0.00  0.00    +0.046 A 
BRANCH  30  36
ATOM     36  O   UNL     1      -0.605  -0.121  -4.855  0.00  0.00    -0.492 OA
BRANCH  36  38
ATOM     37  C   UNL     1       0.218   2.051  -4.186  0.00  0.00    +0.048 C 
ATOM     38  C   UNL     1       0.521   0.555  -4.291  0.00  0.00    +0.225 C 
ENDBRANCH  36  38
ENDBRANCH  30  36
ENDBRANCH  29  33
ENDBRANCH  28  29
ENDBRANCH  24  28
ENDBRANCH   1  25
TORSDOF 7
