REMARK  Name = ZINC09949720
REMARK  8 active torsions:
REMARK  status: ('A' for Active; 'I' for Inactive)
REMARK    1  A    between atoms: C_1  and  C_2
REMARK    2  A    between atoms: C_2  and  C_4
REMARK    3  A    between atoms: C_2  and  S_18
REMARK    4  A    between atoms: N_6  and  C_7
REMARK    5  A    between atoms: C_8  and  C_15
REMARK    6  A    between atoms: S_18  and  C_19
REMARK    7  A    between atoms: N_23  and  C_24
REMARK    8  A    between atoms: C_24  and  C_25
REMARK                            x       y       z     vdW  Elec       q    Type
REMARK                         _______ _______ _______ _____ _____    ______ ____
ROOT
ATOM      1  C   UNL     1       4.396   5.793   4.104  0.00  0.00    +0.231 C 
ATOM      2  O   UNL     1       5.387   5.495   3.472  0.00  0.00    -0.274 OA
ATOM      3  N   UNL     1       4.497   6.091   5.415  0.00  0.00    -0.278 N 
ATOM      4  H   UNL     1       3.704   6.329   5.920  0.00  0.00    +0.155 HD
ENDROOT
BRANCH   3   5
ATOM      5  C   UNL     1       5.734   6.057   6.040  0.00  0.00    +0.084 A 
ATOM      6  C   UNL     1       6.037   6.334   7.362  0.00  0.00    +0.068 A 
ATOM      7  C   UNL     1       7.436   6.220   7.774  0.00  0.00    -0.023 A 
ATOM      8  C   UNL     1       8.291   5.860   6.800  0.00  0.00    -0.004 A 
ATOM      9  S   UNL     1       7.275   5.666   5.356  0.00  0.00    -0.077 S 
ATOM     10  C   UNL     1       9.707   5.767   7.299  0.00  0.00    +0.043 C 
ATOM     11  C   UNL     1       9.575   5.699   8.836  0.00  0.00    +0.010 C 
ATOM     12  C   UNL     1       8.229   6.414   9.067  0.00  0.00    +0.037 C 
BRANCH   6  13
ATOM     13  C   UNL     1       4.994   6.723   8.316  0.00  0.00    +0.244 C 
ATOM     14  O   UNL     1       4.409   5.872   8.959  0.00  0.00    -0.270 OA
ATOM     15  N   UNL     1       4.683   8.024   8.480  0.00  0.00    -0.325 N 
ATOM     16  H   UNL     1       5.149   8.703   7.967  0.00  0.00    +0.145 HD
ATOM     17  H   UNL     1       3.992   8.282   9.111  0.00  0.00    +0.145 HD
ENDBRANCH   6  13
ENDBRANCH   3   5
BRANCH   1  19
ATOM     18  C   UNL     1       2.748   7.259   2.972  0.00  0.00    +0.029 C 
ATOM     19  C   UNL     1       3.052   5.830   3.425  0.00  0.00    +0.137 C 
BRANCH  19  20
ATOM     20  S   UNL     1       3.073   4.733   1.985  0.00  0.00    -0.072 S 
BRANCH  20  21
ATOM     21  C   UNL     1       1.387   4.848   1.487  0.00  0.00    +0.210 A 
ATOM     22  N   UNL     1       0.448   5.562   2.068  0.00  0.00    -0.101 NA
ATOM     23  N   UNL     1      -0.670   5.421   1.452  0.00  0.00    -0.022 NA
ATOM     24  N   UNL     1      -0.531   4.627   0.446  0.00  0.00    -0.043 NA
ATOM     25  N   UNL     1       0.814   4.218   0.434  0.00  0.00    -0.218 N 
BRANCH  25  26
ATOM     26  C   UNL     1       1.459   3.310  -0.517  0.00  0.00    +0.179 C 
BRANCH  26  27
ATOM     27  C   UNL     1       1.358   1.873  -0.001  0.00  0.00    +0.140 C 
ATOM     28  C   UNL     1       2.044   0.890  -0.983  0.00  0.00    +0.035 C 
ATOM     29  C   UNL     1       1.318  -0.441  -0.670  0.00  0.00    +0.031 C 
ATOM     30  C   UNL     1       0.002  -0.004   0.002  0.00  0.00    +0.160 C 
ATOM     31  O   UNL     1      -0.017   1.433   0.010  0.00  0.00    -0.375 OA
ENDBRANCH  26  27
ENDBRANCH  25  26
ENDBRANCH  20  21
ENDBRANCH  19  20
ENDBRANCH   1  19
TORSDOF 7
