REMARK  Name = ZINC21228047
REMARK  10 active torsions:
REMARK  status: ('A' for Active; 'I' for Inactive)
REMARK    1  A    between atoms: C_1  and  C_2
REMARK    2  A    between atoms: C_2  and  O_3
REMARK    3  A    between atoms: O_3  and  C_4
REMARK    4  A    between atoms: C_6  and  C_14
REMARK    5  A    between atoms: C_9  and  O_10
REMARK    6  A    between atoms: O_10  and  C_11
REMARK    7  A    between atoms: C_11  and  C_12
REMARK    8  A    between atoms: C_11  and  C_13
REMARK    9  A    between atoms: C_19  and  C_24
REMARK   10  A    between atoms: C_27  and  C_30
REMARK                            x       y       z     vdW  Elec       q    Type
REMARK                         _______ _______ _______ _____ _____    ______ ____
ROOT
ATOM      1  C   UNL     1      -2.766   1.537  -0.663  0.00  0.00    +0.136 C 
ATOM      2  C   UNL     1      -2.995   1.308  -2.137  0.00  0.00    +0.036 C 
ATOM      3  C   UNL     1      -3.030   0.114  -2.754  0.00  0.00    +0.017 C 
ATOM      4  C   UNL     1      -3.284   0.024  -4.249  0.00  0.00    +0.059 C 
ATOM      5  C   UNL     1      -2.709   1.253  -4.951  0.00  0.00    +0.032 C 
ATOM      6  C   UNL     1      -3.398   2.491  -4.364  0.00  0.00    +0.088 C 
ATOM      7  C   UNL     1      -3.180   2.498  -2.881  0.00  0.00    +0.163 C 
ATOM      8  O   UNL     1      -3.162   3.563  -2.296  0.00  0.00    -0.292 OA
ATOM      9  N   UNL     1      -2.867  -1.081  -2.131  0.00  0.00    -0.316 N 
ATOM     10  C   UNL     1      -1.868  -1.369  -1.208  0.00  0.00    +0.052 A 
ATOM     11  C   UNL     1      -0.915  -2.347  -1.431  0.00  0.00    +0.025 A 
ATOM     12  C   UNL     1      -0.020  -2.665  -0.423  0.00  0.00    +0.002 A 
ATOM     13  C   UNL     1      -0.079  -2.010   0.794  0.00  0.00    +0.002 A 
ATOM     14  C   UNL     1      -1.018  -1.016   1.011  0.00  0.00    +0.025 A 
ATOM     15  C   UNL     1      -1.902  -0.683  -0.003  0.00  0.00    +0.049 A 
ATOM     16  N   UNL     1      -2.834   0.342   0.150  0.00  0.00    -0.331 N 
ATOM     17  H   UNL     1      -3.556  -1.911  -2.344  0.00  0.00    +0.152 HD
ATOM     18  H   UNL     1      -3.629   0.233   0.903  0.00  0.00    +0.147 HD
ENDROOT
BRANCH   5  19
ATOM     19  C   UNL     1      -2.983   1.170  -6.431  0.00  0.00    -0.043 A 
ATOM     20  C   UNL     1      -4.285   1.102  -6.890  0.00  0.00    +0.004 A 
ATOM     21  C   UNL     1      -4.537   1.030  -8.247  0.00  0.00    +0.003 A 
ATOM     22  C   UNL     1      -3.486   1.018  -9.145  0.00  0.00    -0.050 A 
ATOM     23  C   UNL     1      -2.183   1.081  -8.686  0.00  0.00    +0.003 A 
ATOM     24  C   UNL     1      -1.932   1.157  -7.329  0.00  0.00    +0.004 A 
ATOM     25  C   UNL     1      -3.760   0.936 -10.625  0.00  0.00    +0.044 C 
ENDBRANCH   5  19
BRANCH   1  28
ATOM     26  C   UNL     1      -0.047   4.023   0.174  0.00  0.00    +0.162 A 
ATOM     27  C   UNL     1      -1.297   3.446   0.014  0.00  0.00    +0.055 A 
ATOM     28  C   UNL     1      -1.406   2.160  -0.483  0.00  0.00    -0.019 A 
ATOM     29  C   UNL     1      -0.270   1.443  -0.809  0.00  0.00    +0.009 A 
ATOM     30  C   UNL     1       0.980   2.013  -0.651  0.00  0.00    +0.050 A 
ATOM     31  C   UNL     1       1.096   3.303  -0.160  0.00  0.00    +0.162 A 
BRANCH  26  32
ATOM     32  O   UNL     1       0.062   5.290   0.656  0.00  0.00    -0.489 OA
BRANCH  32  34
ATOM     33  C   UNL     1      -0.833   7.370   1.502  0.00  0.00    +0.048 C 
ATOM     34  C   UNL     1      -1.154   5.968   0.978  0.00  0.00    +0.226 C 
ENDBRANCH  32  34
ENDBRANCH  26  32
BRANCH  31  35
ATOM     35  O   UNL     1       2.325   3.865  -0.004  0.00  0.00    -0.486 OA
BRANCH  35  36
ATOM     36  C   UNL     1       3.457   3.030  -0.256  0.00  0.00    +0.167 C 
ATOM     37  C   UNL     1       3.781   3.046  -1.751  0.00  0.00    +0.051 C 
ATOM     38  C   UNL     1       4.660   3.550   0.532  0.00  0.00    +0.051 C 
ENDBRANCH  35  36
ENDBRANCH  31  35
ENDBRANCH   1  28
TORSDOF 6
