REMARK  Name = ZINC20571100
REMARK  5 active torsions:
REMARK  status: ('A' for Active; 'I' for Inactive)
REMARK    1  A    between atoms: C_4  and  S_7
REMARK    2  A    between atoms: S_7  and  N_10
REMARK    3  A    between atoms: N_10  and  C_11
REMARK    4  A    between atoms: C_14  and  C_17
REMARK    5  A    between atoms: C_22  and  C_25
REMARK                            x       y       z     vdW  Elec       q    Type
REMARK                         _______ _______ _______ _____ _____    ______ ____
ROOT
ATOM      1  C   UNL     1       0.060  -2.778   0.011  0.00  0.00    +0.048 A 
ATOM      2  C   UNL     1      -1.142  -2.082   0.098  0.00  0.00    +0.025 A 
ATOM      3  C   UNL     1      -1.142  -0.706   0.129  0.00  0.00    +0.015 A 
ATOM      4  C   UNL     1       0.068  -0.008   0.071  0.00  0.00    +0.037 A 
ATOM      5  C   UNL     1       1.274  -0.710  -0.023  0.00  0.00    +0.015 A 
ATOM      6  C   UNL     1       1.266  -2.086  -0.047  0.00  0.00    +0.025 A 
ENDROOT
BRANCH   4   7
ATOM      7  C   UNL     1       0.072   1.467   0.104  0.00  0.00    +0.250 C 
ATOM      8  O   UNL     1      -0.977   2.076   0.176  0.00  0.00    -0.270 OA
ATOM      9  N   UNL     1       1.240   2.138   0.048  0.00  0.00    -0.261 N 
ATOM     10  C   UNL     1       1.244   3.526   0.079  0.00  0.00    +0.165 A 
ATOM     11  N   UNL     1       2.267   4.359   0.036  0.00  0.00    -0.224 NA
ATOM     12  C   UNL     1       2.085   5.677   0.075  0.00  0.00    +0.087 A 
ATOM     13  C   UNL     1       0.813   6.173   0.163  0.00  0.00    +0.077 A 
ATOM     14  S   UNL     1      -0.136   4.658   0.180  0.00  0.00    -0.060 S 
ATOM     15  H   UNL     1       2.189   1.587  -0.022  0.00  0.00    +0.157 HD
BRANCH  12  16
ATOM     16  C   UNL     1       3.244   6.593   0.025  0.00  0.00    +0.040 A 
ATOM     17  C   UNL     1       4.577   6.294  -0.056  0.00  0.00    +0.019 A 
ATOM     18  C   UNL     1       5.488   7.330  -0.095  0.00  0.00    +0.028 A 
ATOM     19  C   UNL     1       5.037   8.609  -0.039  0.00  0.00    +0.079 A 
ATOM     20  S   UNL     1       3.269   8.378   0.063  0.00  0.00    -0.075 S 
ATOM     21 CL   UNL     1       5.944  10.089  -0.061  0.00  0.00    -0.076 Cl
ENDBRANCH  12  16
ENDBRANCH   4   7
BRANCH   1  22
ATOM     22  N   UNL     1       0.056  -4.168  -0.020  0.00  0.00    -0.216 N 
ATOM     23  H   UNL     1      -0.562  -4.733   0.694  0.00  0.00    +0.174 HD
BRANCH  22  24
ATOM     24  S   UNL     1       0.981  -4.975  -1.132  0.00  0.00    +0.072 S 
ATOM     25  O   UNL     1       2.301  -4.462  -1.010  0.00  0.00    -0.150 OA
ATOM     26  O   UNL     1       0.684  -6.356  -0.982  0.00  0.00    -0.150 OA
BRANCH  24  30
ATOM     27  C   UNL     1      -0.501  -3.769  -5.235  0.00  0.00    +0.000 A 
ATOM     28  C   UNL     1       0.573  -3.110  -4.667  0.00  0.00    +0.002 A 
ATOM     29  C   UNL     1       1.026  -3.478  -3.414  0.00  0.00    +0.029 A 
ATOM     30  C   UNL     1       0.404  -4.505  -2.729  0.00  0.00    +0.108 A 
ATOM     31  C   UNL     1      -0.666  -5.168  -3.299  0.00  0.00    +0.029 A 
ATOM     32  C   UNL     1      -1.123  -4.797  -4.550  0.00  0.00    +0.002 A 
ENDBRANCH  24  30
ENDBRANCH  22  24
ENDBRANCH   1  22
TORSDOF 5
