REMARK  Name = ZINC39147188
REMARK  3 active torsions:
REMARK  status: ('A' for Active; 'I' for Inactive)
REMARK    1  A    between atoms: C_1  and  C_2
REMARK    2  A    between atoms: C_10  and  C_14
REMARK    3  A    between atoms: N_11  and  C_13
REMARK                            x       y       z     vdW  Elec       q    Type
REMARK                         _______ _______ _______ _____ _____    ______ ____
ROOT
ATOM      1  C   UNL     1      -0.018   1.503   0.010  0.00  0.00    +0.044 C 
ATOM      2  C   UNL     1       0.002  -0.004   0.002  0.00  0.00    -0.038 C 
ATOM      3  C   UNL     1       0.006  -0.695  -1.173  0.00  0.00    +0.071 C 
ATOM      4  C   UNL     1       0.003  -2.099  -1.232  0.00  0.00    +0.239 C 
ATOM      5  O   UNL     1      -0.217  -2.644  -2.299  0.00  0.00    -0.271 OA
ATOM      6  N   UNL     1       0.236  -2.866  -0.140  0.00  0.00    -0.291 N 
ATOM      7  C   UNL     1       0.517  -2.168   1.113  0.00  0.00    +0.191 C 
ATOM      8  C   UNL     1       0.023  -0.727   1.201  0.00  0.00    +0.010 C 
ATOM      9  C   UNL     1      -0.305  -0.563   2.490  0.00  0.00    +0.025 C 
ATOM     10  N   UNL     1      -0.314  -1.765   3.147  0.00  0.00    -0.272 N 
ATOM     11  N   UNL     1      -0.166  -2.801   2.249  0.00  0.00    -0.216 NA
ATOM     12  C   UNL     1      -0.471  -1.927   4.594  0.00  0.00    +0.149 C 
ATOM     13  C   UNL     1      -0.621   0.764   3.131  0.00  0.00    +0.062 C 
ATOM     14  H   UNL     1       0.217  -3.834  -0.188  0.00  0.00    +0.151 HD
ATOM     15  H   UNL     1       0.399  -3.536   2.647  0.00  0.00    +0.147 HD
ENDROOT
TORSDOF 0
