REMARK  Name = ZINC15319247
REMARK  10 active torsions:
REMARK  status: ('A' for Active; 'I' for Inactive)
REMARK    1  A    between atoms: C_1  and  O_2
REMARK    2  A    between atoms: O_2  and  C_3
REMARK    3  A    between atoms: C_3  and  C_5
REMARK    4  A    between atoms: C_7  and  C_37
REMARK    5  A    between atoms: C_14  and  C_30
REMARK    6  A    between atoms: C_16  and  C_26
REMARK    7  A    between atoms: C_17  and  N_25
REMARK    8  A    between atoms: N_18  and  C_19
REMARK    9  A    between atoms: C_26  and  O_28
REMARK   10  A    between atoms: O_28  and  C_29
REMARK                            x       y       z     vdW  Elec       q    Type
REMARK                         _______ _______ _______ _____ _____    ______ ____
ROOT
ATOM      1  C   UNL     1      -4.170   5.533  -1.926  0.00  0.00    +0.176 C 
ATOM      2  C   UNL     1      -5.328   4.617  -1.514  0.00  0.00    +0.046 C 
ATOM      3  C   UNL     1      -4.867   3.164  -1.645  0.00  0.00    +0.061 C 
ATOM      4  C   UNL     1      -3.652   2.938  -0.779  0.00  0.00    +0.025 C 
ATOM      5  C   UNL     1      -2.777   3.935  -0.533  0.00  0.00    +0.026 C 
ATOM      6  C   UNL     1      -2.972   5.219  -1.073  0.00  0.00    +0.176 C 
ATOM      7  O   UNL     1      -2.157   6.091  -0.846  0.00  0.00    -0.291 OA
ATOM      8  C   UNL     1      -1.562   3.706   0.330  0.00  0.00    +0.097 C 
ATOM      9  C   UNL     1      -1.265   2.242   0.470  0.00  0.00    +0.084 C 
ATOM     10  C   UNL     1      -2.207   1.303   0.179  0.00  0.00    +0.103 C 
ATOM     11  N   UNL     1      -3.455   1.688  -0.249  0.00  0.00    -0.261 N 
ENDROOT
BRANCH   8  12
ATOM     12  C   UNL     1      -1.809   4.293   1.696  0.00  0.00    +0.000 A 
ATOM     13  C   UNL     1      -2.844   3.816   2.477  0.00  0.00    +0.007 A 
ATOM     14  C   UNL     1      -3.067   4.350   3.732  0.00  0.00    +0.000 A 
ATOM     15  C   UNL     1      -2.261   5.371   4.203  0.00  0.00    +0.003 A 
ATOM     16  C   UNL     1      -1.229   5.853   3.421  0.00  0.00    +0.038 A 
ATOM     17  C   UNL     1      -1.002   5.315   2.166  0.00  0.00    +0.127 A 
ATOM     18  F   UNL     1       0.007   5.786   1.401  0.00  0.00    -0.205 F 
ENDBRANCH   8  12
BRANCH  11  19
ATOM     19  C   UNL     1      -4.531   0.799  -0.148  0.00  0.00    +0.040 A 
ATOM     20  C   UNL     1      -4.573  -0.336  -0.947  0.00  0.00    +0.024 A 
ATOM     21  C   UNL     1      -5.634  -1.214  -0.842  0.00  0.00    +0.002 A 
ATOM     22  C   UNL     1      -6.659  -0.959   0.051  0.00  0.00    +0.000 A 
ATOM     23  C   UNL     1      -6.623   0.174   0.843  0.00  0.00    +0.002 A 
ATOM     24  C   UNL     1      -5.563   1.053   0.747  0.00  0.00    +0.024 A 
ENDBRANCH  11  19
BRANCH   2  25
ATOM     25  C   UNL     1      -6.510   4.857  -2.418  0.00  0.00    -0.043 A 
ATOM     26  C   UNL     1      -6.390   4.655  -3.780  0.00  0.00    +0.004 A 
ATOM     27  C   UNL     1      -7.476   4.870  -4.609  0.00  0.00    +0.000 A 
ATOM     28  C   UNL     1      -8.678   5.297  -4.076  0.00  0.00    +0.000 A 
ATOM     29  C   UNL     1      -8.796   5.505  -2.714  0.00  0.00    +0.000 A 
ATOM     30  C   UNL     1      -7.712   5.285  -1.885  0.00  0.00    +0.004 A 
ENDBRANCH   2  25
BRANCH  10  31
ATOM     31  N   UNL     1      -1.913  -0.029   0.319  0.00  0.00    -0.346 N 
ATOM     32  H   UNL     1      -2.603  -0.652   0.594  0.00  0.00    +0.143 HD
ATOM     33  H   UNL     1      -1.014  -0.348   0.142  0.00  0.00    +0.143 HD
ENDBRANCH  10  31
BRANCH   1  34
ATOM     34  C   UNL     1      -4.568   6.973  -1.728  0.00  0.00    +0.318 C 
ATOM     35  O   UNL     1      -5.668   7.244  -1.308  0.00  0.00    -0.250 OA
BRANCH  34  37
ATOM     36  C   UNL     1      -4.150   9.318  -1.802  0.00  0.00    +0.280 C 
ATOM     37  O   UNL     1      -3.700   7.955  -2.017  0.00  0.00    -0.467 OA
ENDBRANCH  34  37
ENDBRANCH   1  34
BRANCH   9  38
ATOM     38  C   UNL     1       0.005   1.834   0.902  0.00  0.00    +0.339 C 
ATOM     39  O   UNL     1       0.229   0.654   1.105  0.00  0.00    -0.245 OA
BRANCH  38  40
ATOM     40  O   UNL     1       0.981   2.749   1.088  0.00  0.00    -0.465 OA
ATOM     41  C   UNL     1       2.252   2.262   1.524  0.00  0.00    +0.280 C 
ENDBRANCH  38  40
ENDBRANCH   9  38
TORSDOF 8
