REMARK  Name = ZINC12844828
REMARK  8 active torsions:
REMARK  status: ('A' for Active; 'I' for Inactive)
REMARK    1  A    between atoms: C_1  and  C_2
REMARK    2  A    between atoms: C_8  and  C_30
REMARK    3  A    between atoms: C_12  and  C_13
REMARK    4  A    between atoms: N_15  and  N_16
REMARK    5  A    between atoms: C_19  and  C_23
REMARK    6  A    between atoms: C_19  and  C_24
REMARK    7  A    between atoms: C_30  and  S_31
REMARK    8  A    between atoms: S_31  and  C_32
REMARK                            x       y       z     vdW  Elec       q    Type
REMARK                         _______ _______ _______ _____ _____    ______ ____
ROOT
ATOM      1  C   UNL     1       2.263  -2.204  -1.158  0.00  0.00    +0.268 C 
ATOM      2  O   UNL     1       2.310  -1.535  -2.173  0.00  0.00    -0.268 OA
ATOM      3  N   UNL     1       1.767  -1.673  -0.023  0.00  0.00    -0.219 N 
ATOM      4  H   UNL     1       1.729  -2.207   0.786  0.00  0.00    +0.174 HD
ENDROOT
BRANCH   1  16
ATOM      5  C   UNL     1       3.416  -3.657  -3.565  0.00  0.00    +0.046 C 
ATOM      6  C   UNL     1       3.273  -4.298  -2.209  0.00  0.00    -0.017 A 
ATOM      7  C   UNL     1       3.684  -5.618  -2.012  0.00  0.00    +0.076 A 
ATOM      8  C   UNL     1       4.281  -6.567  -2.980  0.00  0.00    +0.260 A 
ATOM      9  O   UNL     1       4.484  -6.236  -4.135  0.00  0.00    -0.267 OA
ATOM     10  N   UNL     1       4.592  -7.805  -2.550  0.00  0.00    -0.310 N 
ATOM     11  H   UNL     1       4.984  -8.439  -3.172  0.00  0.00    +0.170 HD
ATOM     12  C   UNL     1       4.370  -8.184  -1.268  0.00  0.00    +0.121 A 
ATOM     13  N   UNL     1       3.847  -7.373  -0.389  0.00  0.00    -0.226 NA
ATOM     14  C   UNL     1       3.503  -6.131  -0.707  0.00  0.00    +0.116 A 
ATOM     15  S   UNL     1       2.787  -4.766   0.172  0.00  0.00    -0.064 S 
ATOM     16  C   UNL     1       2.747  -3.588  -1.169  0.00  0.00    +0.081 A 
BRANCH  12  17
ATOM     17  C   UNL     1       4.739  -9.582  -0.843  0.00  0.00    +0.143 C 
BRANCH  17  18
ATOM     18  S   UNL     1       4.334  -9.809   0.910  0.00  0.00    -0.156 S 
ATOM     19  C   UNL     1       4.832 -11.518   1.258  0.00  0.00    +0.084 C 
ENDBRANCH  17  18
ENDBRANCH  12  17
ENDBRANCH   1  16
BRANCH   3  20
ATOM     20  N   UNL     1       1.304  -0.351  -0.012  0.00  0.00    -0.137 N 
ATOM     21  C   UNL     1       0.002  -0.004   0.002  0.00  0.00    +0.267 C 
ATOM     22  O   UNL     1      -0.954  -0.749   0.006  0.00  0.00    -0.271 OA
ATOM     23  C   UNL     1      -0.018   1.512   0.010  0.00  0.00    +0.137 C 
ATOM     24  N   UNL     1       1.409   1.877  -0.001  0.00  0.00    -0.280 N 
ATOM     25  C   UNL     1       2.101   0.724  -0.014  0.00  0.00    +0.327 C 
ATOM     26  O   UNL     1       3.315   0.665  -0.026  0.00  0.00    -0.251 OA
ATOM     27  C   UNL     1      -0.722   2.047  -1.238  0.00  0.00    +0.047 C 
ATOM     28  H   UNL     1       1.777   2.775  -0.000  0.00  0.00    +0.152 HD
BRANCH  23  29
ATOM     29  C   UNL     1      -0.687   2.026   1.259  0.00  0.00    -0.015 A 
ATOM     30  C   UNL     1      -1.685   1.284   1.864  0.00  0.00    +0.006 A 
ATOM     31  C   UNL     1      -2.295   1.754   3.012  0.00  0.00    +0.000 A 
ATOM     32  C   UNL     1      -1.915   2.970   3.549  0.00  0.00    +0.000 A 
ATOM     33  C   UNL     1      -0.922   3.714   2.941  0.00  0.00    +0.000 A 
ATOM     34  C   UNL     1      -0.308   3.242   1.796  0.00  0.00    +0.006 A 
ENDBRANCH  23  29
ENDBRANCH   3  20
TORSDOF 5
