REMARK  Name = ZINC06587716
REMARK  9 active torsions:
REMARK  status: ('A' for Active; 'I' for Inactive)
REMARK    1  A    between atoms: C_1  and  C_2
REMARK    2  A    between atoms: C_4  and  C_29
REMARK    3  A    between atoms: C_8  and  C_28
REMARK    4  A    between atoms: C_10  and  S_12
REMARK    5  A    between atoms: S_12  and  C_13
REMARK    6  A    between atoms: C_13  and  C_14
REMARK    7  A    between atoms: N_16  and  C_17
REMARK    8  A    between atoms: C_17  and  C_18
REMARK    9  A    between atoms: N_20  and  C_21
REMARK                            x       y       z     vdW  Elec       q    Type
REMARK                         _______ _______ _______ _____ _____    ______ ____
ROOT
ATOM      1  C   UNL     1       4.198   5.108  -0.001  0.00  0.00    +0.224 C 
ATOM      2  O   UNL     1       5.353   4.737  -0.005  0.00  0.00    -0.275 OA
ATOM      3  N   UNL     1       3.914   6.425   0.002  0.00  0.00    -0.306 N 
ATOM      4  H   UNL     1       2.991   6.722   0.006  0.00  0.00    +0.149 HD
ENDROOT
BRANCH   1   5
ATOM      5  C   UNL     1       3.081   4.096   0.000  0.00  0.00    +0.171 C 
BRANCH   5   6
ATOM      6  S   UNL     1       3.780   2.426  -0.005  0.00  0.00    -0.097 S 
BRANCH   6  16
ATOM      7  C   UNL     1      -3.686  -0.798   0.011  0.00  0.00    +0.044 C 
ATOM      8  C   UNL     1      -2.387  -0.034   0.009  0.00  0.00    -0.050 A 
ATOM      9  C   UNL     1      -2.409   1.358   0.011  0.00  0.00    +0.008 A 
ATOM     10  C   UNL     1      -1.254   2.078   0.015  0.00  0.00    -0.024 A 
ATOM     11  C   UNL     1      -0.016   1.411   0.004  0.00  0.00    +0.075 A 
ATOM     12  C   UNL     1       0.003  -0.005   0.001  0.00  0.00    +0.004 A 
ATOM     13  C   UNL     1      -1.207  -0.715   0.004  0.00  0.00    +0.013 A 
ATOM     14  C   UNL     1       1.244  -0.674  -0.004  0.00  0.00    -0.039 A 
ATOM     15  C   UNL     1       2.382   0.074  -0.006  0.00  0.00    +0.038 A 
ATOM     16  C   UNL     1       2.297   1.474  -0.003  0.00  0.00    +0.098 A 
ATOM     17  N   UNL     1       1.134   2.095   0.002  0.00  0.00    -0.240 NA
ATOM     18  C   UNL     1       1.310  -2.180  -0.007  0.00  0.00    +0.044 C 
ATOM     19  C   UNL     1      -1.301   3.584   0.018  0.00  0.00    +0.046 C 
ENDBRANCH   6  16
ENDBRANCH   5   6
ENDBRANCH   1   5
BRANCH   3  20
ATOM     20  C   UNL     1       5.000   7.409   0.001  0.00  0.00    +0.200 C 
BRANCH  20  21
ATOM     21  C   UNL     1       4.418   8.799   0.006  0.00  0.00    +0.234 C 
ATOM     22  O   UNL     1       3.215   8.953   0.009  0.00  0.00    -0.274 OA
ATOM     23  N   UNL     1       5.235   9.871   0.005  0.00  0.00    -0.284 N 
ATOM     24  H   UNL     1       6.195   9.749   0.070  0.00  0.00    +0.155 HD
BRANCH  23  25
ATOM     25  C   UNL     1       4.697  11.161  -0.088  0.00  0.00    +0.034 A 
ATOM     26  C   UNL     1       5.382  12.151  -0.781  0.00  0.00    +0.026 A 
ATOM     27  C   UNL     1       4.847  13.420  -0.877  0.00  0.00    +0.040 A 
ATOM     28  C   UNL     1       3.635  13.710  -0.274  0.00  0.00    +0.124 A 
ATOM     29  C   UNL     1       2.954  12.726   0.423  0.00  0.00    +0.040 A 
ATOM     30  C   UNL     1       3.482  11.453   0.516  0.00  0.00    +0.026 A 
ATOM     31  F   UNL     1       3.116  14.954  -0.364  0.00  0.00    -0.205 F 
ENDBRANCH  23  25
ENDBRANCH  20  21
ENDBRANCH   3  20
TORSDOF 6
