REMARK  Name = ZINC09428171
REMARK  11 active torsions:
REMARK  status: ('A' for Active; 'I' for Inactive)
REMARK    1  A    between atoms: C_1  and  C_2
REMARK    2  A    between atoms: C_2  and  O_3
REMARK    3  A    between atoms: O_3  and  C_4
REMARK    4  A    between atoms: C_13  and  C_14
REMARK    5  A    between atoms: N_16  and  C_17
REMARK    6  A    between atoms: C_17  and  C_18
REMARK    7  A    between atoms: C_18  and  C_19
REMARK    8  A    between atoms: C_22  and  O_33
REMARK    9  A    between atoms: C_25  and  O_31
REMARK   10  A    between atoms: O_31  and  C_32
REMARK   11  A    between atoms: O_33  and  C_34
REMARK                            x       y       z     vdW  Elec       q    Type
REMARK                         _______ _______ _______ _____ _____    ______ ____
ROOT
ATOM      1  C   UNL     1      -3.228   7.138  -1.100  0.00  0.00    +0.109 C 
ENDROOT
BRANCH   1   4
ATOM      2  C   UNL     1      -1.372   6.050   0.045  0.00  0.00    +0.248 C 
ATOM      3  O   UNL     1      -1.887   6.353   1.105  0.00  0.00    -0.270 OA
ATOM      4  N   UNL     1      -1.964   6.397  -1.115  0.00  0.00    -0.311 N 
ATOM      5  H   UNL     1      -1.553   6.156  -1.960  0.00  0.00    +0.149 HD
BRANCH   2  15
ATOM      6  C   UNL     1       1.118   5.981   0.022  0.00  0.00    +0.133 A 
ATOM      7  C   UNL     1       2.318   5.268   0.007  0.00  0.00    +0.047 A 
ATOM      8  C   UNL     1       2.343   3.910  -0.000  0.00  0.00    +0.012 A 
ATOM      9  C   UNL     1       1.148   3.167   0.008  0.00  0.00    -0.017 A 
ATOM     10  C   UNL     1       1.164   1.763   0.000  0.00  0.00    +0.008 A 
ATOM     11  C   UNL     1      -0.013   1.076   0.008  0.00  0.00    +0.001 A 
ATOM     12  C   UNL     1      -1.234   1.745   0.017  0.00  0.00    +0.001 A 
ATOM     13  C   UNL     1      -1.285   3.107   0.030  0.00  0.00    +0.009 A 
ATOM     14  C   UNL     1      -0.095   3.845   0.023  0.00  0.00    -0.002 A 
ATOM     15  C   UNL     1      -0.104   5.307   0.030  0.00  0.00    +0.086 A 
BRANCH   6  16
ATOM     16  O   UNL     1       1.140   7.336   0.028  0.00  0.00    -0.491 OA
BRANCH  16  18
ATOM     17  C   UNL     1       2.247   9.484   0.028  0.00  0.00    +0.048 C 
ATOM     18  C   UNL     1       2.423   7.965   0.019  0.00  0.00    +0.226 C 
ENDBRANCH  16  18
ENDBRANCH   6  16
ENDBRANCH   2  15
ENDBRANCH   1   4
BRANCH   1  19
ATOM     19  C   UNL     1      -3.680   7.403  -2.537  0.00  0.00    +0.059 C 
BRANCH  19  20
ATOM     20  C   UNL     1      -4.980   8.165  -2.522  0.00  0.00    +0.019 A 
ATOM     21  C   UNL     1      -4.972   9.519  -2.618  0.00  0.00    +0.022 A 
ATOM     22  C   UNL     1      -6.249  10.229  -2.600  0.00  0.00    +0.044 A 
ATOM     23  C   UNL     1      -6.303  11.629  -2.696  0.00  0.00    +0.129 A 
ATOM     24  C   UNL     1      -7.527  12.268  -2.676  0.00  0.00    +0.050 A 
ATOM     25  C   UNL     1      -8.700  11.535  -2.563  0.00  0.00    +0.051 A 
ATOM     26  C   UNL     1      -8.664  10.156  -2.467  0.00  0.00    +0.144 A 
ATOM     27  C   UNL     1      -7.440   9.489  -2.485  0.00  0.00    +0.095 A 
ATOM     28  N   UNL     1      -7.381   8.113  -2.391  0.00  0.00    -0.319 N 
ATOM     29  H   UNL     1      -8.203   7.604  -2.312  0.00  0.00    +0.169 HD
ATOM     30  C   UNL     1      -6.202   7.469  -2.413  0.00  0.00    +0.252 A 
ATOM     31  O   UNL     1      -6.187   6.252  -2.333  0.00  0.00    -0.268 OA
BRANCH  26  32
ATOM     32  O   UNL     1      -9.823   9.452  -2.356  0.00  0.00    -0.493 OA
ATOM     33  C   UNL     1     -11.039  10.201  -2.345  0.00  0.00    +0.277 C 
ENDBRANCH  26  32
BRANCH  23  34
ATOM     34  O   UNL     1      -5.157  12.351  -2.807  0.00  0.00    -0.494 OA
ATOM     35  C   UNL     1      -5.292  13.771  -2.901  0.00  0.00    +0.277 C 
ENDBRANCH  23  34
ENDBRANCH  19  20
ENDBRANCH   1  19
TORSDOF 8
