REMARK  Name = ZINC45061042
REMARK  5 active torsions:
REMARK  status: ('A' for Active; 'I' for Inactive)
REMARK    1  A    between atoms: C_1  and  N_2
REMARK    2  A    between atoms: N_2  and  C_3
REMARK    3  A    between atoms: C_3  and  C_4
REMARK    4  A    between atoms: C_4  and  N_6
REMARK    5  A    between atoms: C_7  and  C_9
REMARK                            x       y       z     vdW  Elec       q    Type
REMARK                         _______ _______ _______ _____ _____    ______ ____
ROOT
ATOM      1  C   UNL     1      -0.018   1.461   0.010  0.00  0.00    +0.132 C 
ATOM      2  N   UNL     1       0.002  -0.004   0.002  0.00  0.00    -0.298 N 
ATOM      3  C   UNL     1       0.000  -0.672  -1.169  0.00  0.00    +0.219 C 
ATOM      4  O   UNL     1       0.017  -1.884  -1.175  0.00  0.00    -0.275 OA
ENDROOT
BRANCH   3   5
ATOM      5  C   UNL     1      -0.023   0.089  -2.470  0.00  0.00    +0.079 C 
ATOM      6  C   UNL     1      -1.326   0.910  -2.591  0.00  0.00    +0.016 C 
ATOM      7  C   UNL     1      -2.034   0.342  -3.859  0.00  0.00    -0.010 C 
ATOM      8  C   UNL     1      -1.162   0.844  -5.050  0.00  0.00    +0.004 C 
ATOM      9  C   UNL     1       0.151   0.037  -4.941  0.00  0.00    +0.004 C 
ATOM     10  C   UNL     1      -0.062  -0.898  -3.676  0.00  0.00    +0.001 C 
ATOM     11  C   UNL     1      -1.608  -1.166  -3.777  0.00  0.00    +0.008 C 
ENDBRANCH   3   5
BRANCH   2  12
ATOM     12  C   UNL     1       0.024  -0.743   1.267  0.00  0.00    +0.165 C 
BRANCH  12  13
ATOM     13  C   UNL     1      -1.389  -1.016   1.714  0.00  0.00    +0.064 C 
ATOM     14  S   UNL     1      -2.620  -0.508   0.828  0.00  0.00    -0.039 S 
BRANCH  13  15
ATOM     15  N   UNL     1      -1.615  -1.688   2.860  0.00  0.00    -0.354 N 
ATOM     16  H   UNL     1      -0.869  -1.996   3.397  0.00  0.00    +0.143 HD
ATOM     17  H   UNL     1      -2.525  -1.864   3.148  0.00  0.00    +0.143 HD
ENDBRANCH  13  15
ENDBRANCH  12  13
ENDBRANCH   2  12
TORSDOF 4
