REMARK  Name = ZINC10585351
REMARK  5 active torsions:
REMARK  status: ('A' for Active; 'I' for Inactive)
REMARK    1  A    between atoms: C_4  and  C_7
REMARK    2  A    between atoms: C_7  and  C_8
REMARK    3  A    between atoms: C_7  and  N_70
REMARK    4  A    between atoms: N_21  and  C_22
REMARK    5  A    between atoms: N_27  and  C_29
REMARK                            x       y       z     vdW  Elec       q    Type
REMARK                         _______ _______ _______ _____ _____    ______ ____
ROOT
ATOM      1  C   UNL     1      -6.851   6.451   5.441  0.00  0.00    -0.058 C 
ATOM      2  C   UNL     1      -7.154   5.448   4.323  0.00  0.00    +0.091 C 
ATOM      3  N   UNL     1      -5.880   4.933   3.799  0.00  0.00    -0.289 N 
ATOM      4  C   UNL     1      -4.898   4.401   4.756  0.00  0.00    +0.091 C 
ATOM      5  C   UNL     1      -4.681   5.451   5.857  0.00  0.00    -0.058 C 
ATOM      6  C   UNL     1      -5.622   4.943   2.476  0.00  0.00    +0.302 C 
ATOM      7  O   UNL     1      -4.607   4.425   2.051  0.00  0.00    -0.253 OA
ATOM      8  N   UNL     1      -6.488   5.527   1.625  0.00  0.00    -0.294 N 
ATOM      9  H   UNL     1      -7.258   6.007   1.969  0.00  0.00    +0.151 HD
ATOM     10  N   UNL     1      -5.993   5.792   6.450  0.00  0.00    +0.389 N 
ATOM     11  H   UNL     1      -6.451   4.929   6.764  0.00  0.00    -0.080 HD
ENDROOT
BRANCH   8  12
ATOM     12  C   UNL     1      -6.268   5.438   0.179  0.00  0.00    +0.101 C 
ATOM     13  C   UNL     1      -6.886   4.143  -0.396  0.00  0.00    +0.120 C 
ATOM     14  C   UNL     1      -8.268   4.561  -0.848  0.00  0.00    +0.222 C 
ATOM     15  O   UNL     1      -9.178   3.798  -1.099  0.00  0.00    -0.275 OA
ATOM     16  N   UNL     1      -8.341   5.900  -0.933  0.00  0.00    -0.269 N 
ATOM     17  C   UNL     1      -7.063   6.527  -0.577  0.00  0.00    +0.136 C 
BRANCH  16  18
ATOM     18  C   UNL     1      -9.489   6.607  -1.317  0.00  0.00    +0.040 A 
ATOM     19  C   UNL     1      -9.501   7.994  -1.261  0.00  0.00    +0.027 A 
ATOM     20  C   UNL     1     -10.634   8.691  -1.633  0.00  0.00    +0.051 A 
ATOM     21  C   UNL     1     -11.759   8.008  -2.073  0.00  0.00    +0.162 A 
ATOM     22  C   UNL     1     -11.747   6.620  -2.136  0.00  0.00    +0.164 A 
ATOM     23  C   UNL     1     -10.611   5.921  -1.757  0.00  0.00    +0.073 A 
ATOM     24  O   UNL     1     -12.839   5.933  -2.570  0.00  0.00    -0.485 OA
ATOM     25  C   UNL     1     -14.082   6.644  -2.585  0.00  0.00    +0.270 C 
ATOM     26  C   UNL     1     -13.841   8.018  -3.223  0.00  0.00    +0.270 C 
ATOM     27  O   UNL     1     -12.866   8.713  -2.437  0.00  0.00    -0.485 OA
ENDBRANCH  16  18
ENDBRANCH   8  12
BRANCH  10  28
ATOM     28  C   UNL     1      -5.804   6.686   7.611  0.00  0.00    -0.007 C 
BRANCH  28  32
ATOM     29  C   UNL     1      -9.631   7.723   9.200  0.00  0.00    +0.000 A 
ATOM     30  C   UNL     1      -8.662   8.696   9.040  0.00  0.00    +0.000 A 
ATOM     31  C   UNL     1      -7.424   8.360   8.525  0.00  0.00    +0.002 A 
ATOM     32  C   UNL     1      -7.154   7.052   8.172  0.00  0.00    -0.057 A 
ATOM     33  C   UNL     1      -8.125   6.080   8.327  0.00  0.00    +0.002 A 
ATOM     34  C   UNL     1      -9.362   6.415   8.845  0.00  0.00    +0.000 A 
ENDBRANCH  28  32
BRANCH  28  35
ATOM     35  C   UNL     1      -5.005   5.957   8.661  0.00  0.00    -0.057 A 
ATOM     36  C   UNL     1      -5.181   4.598   8.843  0.00  0.00    +0.002 A 
ATOM     37  C   UNL     1      -4.445   3.929   9.803  0.00  0.00    +0.000 A 
ATOM     38  C   UNL     1      -3.540   4.620  10.587  0.00  0.00    +0.000 A 
ATOM     39  C   UNL     1      -3.368   5.980  10.408  0.00  0.00    +0.000 A 
ATOM     40  C   UNL     1      -4.101   6.648   9.446  0.00  0.00    +0.002 A 
ENDBRANCH  28  35
ENDBRANCH  10  28
TORSDOF 5
