REMARK  Name = ZINC04698784
REMARK  6 active torsions:
REMARK  status: ('A' for Active; 'I' for Inactive)
REMARK    1  A    between atoms: C_6  and  C_7
REMARK    2  A    between atoms: C_8  and  C_9
REMARK    3  A    between atoms: N_11  and  N_12
REMARK    4  A    between atoms: C_13  and  C_15
REMARK    5  A    between atoms: C_18  and  N_21
REMARK    6  A    between atoms: C_22  and  C_24
REMARK                            x       y       z     vdW  Elec       q    Type
REMARK                         _______ _______ _______ _____ _____    ______ ____
ROOT
ATOM      1  N   UNL     1       1.496  -4.851  -0.040  0.00  0.00    -0.230 N 
ATOM      2  C   UNL     1       0.299  -4.242   0.071  0.00  0.00    +0.260 C 
ATOM      3  O   UNL     1      -0.713  -4.907   0.185  0.00  0.00    -0.269 OA
ATOM      4  H   UNL     1       2.303  -4.321  -0.132  0.00  0.00    +0.173 HD
ENDROOT
BRANCH   2   5
ATOM      5  C   UNL     1       0.216  -2.768   0.055  0.00  0.00    +0.038 A 
ATOM      6  C   UNL     1      -1.024  -2.135   0.170  0.00  0.00    +0.015 A 
ATOM      7  C   UNL     1      -1.098  -0.761   0.155  0.00  0.00    +0.024 A 
ATOM      8  C   UNL     1       0.061  -0.002   0.025  0.00  0.00    +0.033 A 
ATOM      9  C   UNL     1       1.297  -0.629  -0.096  0.00  0.00    +0.024 A 
ATOM     10  C   UNL     1       1.378  -2.003  -0.076  0.00  0.00    +0.015 A 
BRANCH   8  11
ATOM     11  N   UNL     1      -0.017   1.390   0.010  0.00  0.00    -0.285 N 
ATOM     12  C   UNL     1       0.962   2.126   0.573  0.00  0.00    +0.220 C 
ATOM     13  O   UNL     1       1.949   1.582   1.020  0.00  0.00    -0.275 OA
ATOM     14  H   UNL     1      -0.773   1.829  -0.410  0.00  0.00    +0.155 HD
BRANCH  12  15
ATOM     15  C   UNL     1       0.828   3.625   0.649  0.00  0.00    +0.075 C 
ATOM     16  C   UNL     1       0.702   4.198  -0.764  0.00  0.00    +0.013 C 
ATOM     17  C   UNL     1       0.567   5.720  -0.687  0.00  0.00    +0.001 C 
ATOM     18  C   UNL     1       1.804   6.309  -0.006  0.00  0.00    +0.000 C 
ATOM     19  C   UNL     1       1.930   5.736   1.407  0.00  0.00    +0.001 C 
ATOM     20  C   UNL     1       2.066   4.214   1.330  0.00  0.00    +0.013 C 
ENDBRANCH  12  15
ENDBRANCH   8  11
ENDBRANCH   2   5
BRANCH   1  23
ATOM     21  C   UNL     1       2.771  -6.859  -0.136  0.00  0.00    +0.253 C 
ATOM     22  O   UNL     1       3.784  -6.194  -0.251  0.00  0.00    -0.269 OA
ATOM     23  N   UNL     1       1.574  -6.250  -0.025  0.00  0.00    -0.231 N 
ATOM     24  H   UNL     1       0.767  -6.780   0.067  0.00  0.00    +0.173 HD
BRANCH  21  26
ATOM     25  C   UNL     1       4.051  -8.930  -0.231  0.00  0.00    +0.013 C 
ATOM     26  C   UNL     1       2.853  -8.320  -0.120  0.00  0.00    +0.069 C 
BRANCH  25  32
ATOM     27  C   UNL     1       2.972 -11.166  -0.078  0.00  0.00    +0.011 A 
ATOM     28  C   UNL     1       3.055 -12.541  -0.067  0.00  0.00    +0.039 A 
ATOM     29  C   UNL     1       4.289 -13.165  -0.183  0.00  0.00    +0.123 A 
ATOM     30  C   UNL     1       5.445 -12.410  -0.314  0.00  0.00    +0.039 A 
ATOM     31  C   UNL     1       5.375 -11.034  -0.330  0.00  0.00    +0.011 A 
ATOM     32  C   UNL     1       4.134 -10.398  -0.215  0.00  0.00    -0.025 A 
ATOM     33  F   UNL     1       4.364 -14.513  -0.167  0.00  0.00    -0.205 F 
ENDBRANCH  25  32
ENDBRANCH  21  26
ENDBRANCH   1  23
TORSDOF 6
