REMARK  Name = ZINC10246447
REMARK  8 active torsions:
REMARK  status: ('A' for Active; 'I' for Inactive)
REMARK    1  A    between atoms: C_1  and  C_2
REMARK    2  A    between atoms: C_5  and  N_8
REMARK    3  A    between atoms: C_10  and  C_15
REMARK    4  A    between atoms: N_17  and  C_18
REMARK    5  A    between atoms: C_26  and  C_27
REMARK    6  A    between atoms: N_29  and  C_30
REMARK    7  A    between atoms: C_33  and  C_37
REMARK    8  A    between atoms: C_34  and  C_36
REMARK                            x       y       z     vdW  Elec       q    Type
REMARK                         _______ _______ _______ _____ _____    ______ ____
ROOT
ATOM      1  C   UNL     1      -1.905   4.268   0.465  0.00  0.00    +0.092 A 
ATOM      2  C   UNL     1      -0.816   3.384   0.034  0.00  0.00    +0.042 A 
ATOM      3  C   UNL     1      -0.731   2.024  -0.270  0.00  0.00    +0.013 A 
ATOM      4  C   UNL     1       0.468   1.488  -0.648  0.00  0.00    +0.001 A 
ATOM      5  C   UNL     1       1.597   2.288  -0.743  0.00  0.00    +0.004 A 
ATOM      6  C   UNL     1       1.533   3.634  -0.452  0.00  0.00    +0.047 A 
ATOM      7  C   UNL     1       0.325   4.200  -0.060  0.00  0.00    +0.138 A 
ATOM      8  O   UNL     1      -0.036   5.453   0.280  0.00  0.00    -0.448 OA
ATOM      9  C   UNL     1      -1.350   5.511   0.593  0.00  0.00    +0.212 A 
ENDROOT
BRANCH   1  12
ATOM     10  C   UNL     1      -3.538   2.649   1.045  0.00  0.00    +0.222 C 
ATOM     11  O   UNL     1      -2.655   1.837   1.223  0.00  0.00    -0.275 OA
ATOM     12  N   UNL     1      -3.230   3.914   0.696  0.00  0.00    -0.282 N 
ATOM     13  H   UNL     1      -3.932   4.577   0.605  0.00  0.00    +0.155 HD
BRANCH  10  16
ATOM     14  N   UNL     1      -5.248   0.023   0.355  0.00  0.00    -0.271 N 
ATOM     15  C   UNL     1      -5.093   0.757   1.616  0.00  0.00    +0.127 C 
ATOM     16  C   UNL     1      -4.980   2.245   1.216  0.00  0.00    +0.102 C 
ATOM     17  C   UNL     1      -5.724   2.264  -0.139  0.00  0.00    +0.110 C 
ATOM     18  C   UNL     1      -5.607   0.844  -0.647  0.00  0.00    +0.221 C 
ATOM     19  O   UNL     1      -5.808   0.496  -1.791  0.00  0.00    -0.275 OA
BRANCH  14  24
ATOM     20  C   UNL     1      -4.437  -5.563  -0.217  0.00  0.00    +0.044 C 
ATOM     21  C   UNL     1      -4.652  -4.079  -0.066  0.00  0.00    -0.050 A 
ATOM     22  C   UNL     1      -4.595  -3.498   1.188  0.00  0.00    +0.005 A 
ATOM     23  C   UNL     1      -4.792  -2.139   1.331  0.00  0.00    +0.024 A 
ATOM     24  C   UNL     1      -5.048  -1.355   0.214  0.00  0.00    +0.036 A 
ATOM     25  C   UNL     1      -5.110  -1.942  -1.043  0.00  0.00    +0.024 A 
ATOM     26  C   UNL     1      -4.906  -3.301  -1.180  0.00  0.00    +0.005 A 
ENDBRANCH  14  24
ENDBRANCH  10  16
ENDBRANCH   1  12
BRANCH   9  27
ATOM     27  C   UNL     1      -2.067   6.716   1.004  0.00  0.00    +0.285 C 
ATOM     28  O   UNL     1      -3.272   6.680   1.175  0.00  0.00    -0.266 OA
ATOM     29  N   UNL     1      -1.394   7.869   1.194  0.00  0.00    -0.279 N 
ATOM     30  H   UNL     1      -0.446   7.916   0.994  0.00  0.00    +0.155 HD
BRANCH  29  31
ATOM     31  C   UNL     1      -2.063   8.997   1.679  0.00  0.00    +0.034 A 
ATOM     32  C   UNL     1      -3.377   9.244   1.301  0.00  0.00    +0.023 A 
ATOM     33  C   UNL     1      -4.036  10.356   1.785  0.00  0.00    +0.005 A 
ATOM     34  C   UNL     1      -3.386  11.230   2.638  0.00  0.00    -0.047 A 
ATOM     35  C   UNL     1      -2.077  10.990   3.013  0.00  0.00    -0.046 A 
ATOM     36  C   UNL     1      -1.414   9.876   2.536  0.00  0.00    +0.027 A 
ATOM     37  C   UNL     1      -1.373  11.945   3.942  0.00  0.00    +0.044 C 
ATOM     38  C   UNL     1      -4.106  12.447   3.160  0.00  0.00    +0.044 C 
ENDBRANCH  29  31
ENDBRANCH   9  27
TORSDOF 5
