REMARK  Name = ZINC39676920
REMARK  11 active torsions:
REMARK  status: ('A' for Active; 'I' for Inactive)
REMARK    1  A    between atoms: C_1  and  C_2
REMARK    2  A    between atoms: C_5  and  C_36
REMARK    3  A    between atoms: C_6  and  C_8
REMARK    4  A    between atoms: C_8  and  C_9
REMARK    5  A    between atoms: C_9  and  N_10
REMARK    6  A    between atoms: C_11  and  C_13
REMARK    7  A    between atoms: C_24  and  C_26
REMARK    8  A    between atoms: C_29  and  O_34
REMARK    9  A    between atoms: C_31  and  O_32
REMARK   10  A    between atoms: O_32  and  C_33
REMARK   11  A    between atoms: O_34  and  C_35
REMARK                            x       y       z     vdW  Elec       q    Type
REMARK                         _______ _______ _______ _____ _____    ______ ____
ROOT
ATOM      1  C   UNL     1       2.696  -5.098   5.947  0.00  0.00    +0.100 C 
ATOM      2  C   UNL     1       2.272  -4.179   7.115  0.00  0.00    +0.121 C 
ATOM      3  N   UNL     1       3.127  -4.598   8.250  0.00  0.00    -0.296 N 
ATOM      4  C   UNL     1       4.451  -4.861   7.638  0.00  0.00    +0.115 C 
ATOM      5  C   UNL     1       4.127  -5.543   6.294  0.00  0.00    -0.004 C 
ATOM      6  C   UNL     1       5.101  -5.076   5.217  0.00  0.00    -0.010 C 
ATOM      7  C   UNL     1       6.507  -5.580   5.553  0.00  0.00    -0.082 C 
ATOM      8  N   UNL     1       6.498  -7.045   5.631  0.00  0.00    +0.379 N 
ATOM      9  C   UNL     1       5.630  -7.483   6.730  0.00  0.00    -0.082 C 
ATOM     10  C   UNL     1       4.187  -7.060   6.444  0.00  0.00    -0.010 C 
ATOM     11  C   UNL     1       2.779  -4.714   9.547  0.00  0.00    +0.250 C 
ATOM     12  O   UNL     1       1.621  -4.556   9.883  0.00  0.00    -0.270 OA
ATOM     13  H   UNL     1       6.154  -7.425   4.761  0.00  0.00    -0.086 HD
ATOM     14  H   UNL     1       7.437  -7.378   5.792  0.00  0.00    -0.086 HD
ENDROOT
BRANCH  11  15
ATOM     15  C   UNL     1       3.802  -5.033  10.558  0.00  0.00    +0.079 A 
ATOM     16  C   UNL     1       5.101  -4.532  10.425  0.00  0.00    +0.020 A 
ATOM     17  C   UNL     1       6.053  -4.832  11.371  0.00  0.00    +0.046 A 
ATOM     18  C   UNL     1       5.729  -5.632  12.463  0.00  0.00    +0.124 A 
ATOM     19  C   UNL     1       4.444  -6.134  12.605  0.00  0.00    +0.092 A 
ATOM     20  C   UNL     1       3.475  -5.835  11.662  0.00  0.00    +0.136 A 
BRANCH  20  21
ATOM     21  O   UNL     1       2.216  -6.320  11.802  0.00  0.00    -0.494 OA
ATOM     22  C   UNL     1       1.956  -7.129  12.951  0.00  0.00    +0.277 C 
ENDBRANCH  20  21
BRANCH  18  23
ATOM     23  O   UNL     1       6.674  -5.923  13.392  0.00  0.00    -0.495 OA
ATOM     24  C   UNL     1       7.978  -5.375  13.185  0.00  0.00    +0.277 C 
ENDBRANCH  18  23
ENDBRANCH  11  15
BRANCH   1  26
ATOM     25  N   UNL     1       2.608  -5.000   3.477  0.00  0.00    -0.315 N 
ATOM     26  C   UNL     1       2.684  -4.335   4.648  0.00  0.00    +0.218 C 
ATOM     27  O   UNL     1       2.742  -3.124   4.655  0.00  0.00    -0.275 OA
ATOM     28  H   UNL     1       2.562  -5.968   3.471  0.00  0.00    +0.149 HD
BRANCH  25  29
ATOM     29  C   UNL     1       2.596  -4.258   2.214  0.00  0.00    +0.109 C 
BRANCH  29  30
ATOM     30  C   UNL     1       2.506  -5.242   1.046  0.00  0.00    +0.054 C 
BRANCH  30  36
ATOM     31  C   UNL     1      -0.031  -3.120  -2.711  0.00  0.00    +0.044 C 
ATOM     32  C   UNL     1       1.280  -3.465  -2.051  0.00  0.00    -0.050 A 
ATOM     33  C   UNL     1       2.471  -3.081  -2.639  0.00  0.00    +0.003 A 
ATOM     34  C   UNL     1       3.673  -3.397  -2.034  0.00  0.00    +0.004 A 
ATOM     35  C   UNL     1       3.684  -4.097  -0.842  0.00  0.00    -0.047 A 
ATOM     36  C   UNL     1       2.493  -4.479  -0.254  0.00  0.00    -0.043 A 
ATOM     37  C   UNL     1       1.291  -4.160  -0.856  0.00  0.00    +0.007 A 
ATOM     38  C   UNL     1       4.995  -4.442  -0.183  0.00  0.00    +0.044 C 
ENDBRANCH  30  36
ENDBRANCH  29  30
ENDBRANCH  25  29
ENDBRANCH   1  26
TORSDOF 7
