REMARK  Name = ZINC12782932
REMARK  5 active torsions:
REMARK  status: ('A' for Active; 'I' for Inactive)
REMARK    1  A    between atoms: C_4  and  S_8
REMARK    2  A    between atoms: S_8  and  N_11
REMARK    3  A    between atoms: N_11  and  C_12
REMARK    4  A    between atoms: C_15  and  N_18
REMARK    5  A    between atoms: C_19  and  C_21
REMARK                            x       y       z     vdW  Elec       q    Type
REMARK                         _______ _______ _______ _____ _____    ______ ____
ROOT
ATOM      1  N   UNL     1      -3.114   1.375   1.631  0.00  0.00    -0.216 N 
ATOM      2  H   UNL     1      -3.137   0.502   2.052  0.00  0.00    +0.174 HD
ENDROOT
BRANCH   1   3
ATOM      3  C   UNL     1      -3.460   2.515   2.365  0.00  0.00    +0.048 A 
ATOM      4  C   UNL     1      -2.666   3.652   2.296  0.00  0.00    +0.026 A 
ATOM      5  C   UNL     1      -3.011   4.779   3.015  0.00  0.00    +0.025 A 
ATOM      6  C   UNL     1      -4.145   4.771   3.817  0.00  0.00    +0.034 A 
ATOM      7  C   UNL     1      -4.936   3.632   3.890  0.00  0.00    +0.025 A 
ATOM      8  C   UNL     1      -4.594   2.507   3.166  0.00  0.00    +0.026 A 
BRANCH   6   9
ATOM      9  N   UNL     1      -4.492   5.913   4.551  0.00  0.00    -0.285 N 
ATOM     10  C   UNL     1      -5.079   5.786   5.758  0.00  0.00    +0.220 C 
ATOM     11  O   UNL     1      -5.223   4.686   6.249  0.00  0.00    -0.275 OA
ATOM     12  H   UNL     1      -4.311   6.795   4.191  0.00  0.00    +0.155 HD
BRANCH  10  13
ATOM     13  C   UNL     1      -5.554   7.009   6.498  0.00  0.00    +0.075 C 
ATOM     14  C   UNL     1      -4.807   7.399   7.775  0.00  0.00    +0.013 C 
ATOM     15  C   UNL     1      -6.212   6.799   7.863  0.00  0.00    +0.013 C 
ENDBRANCH  10  13
ENDBRANCH   6   9
ENDBRANCH   1   3
BRANCH   1  16
ATOM     16  S   UNL     1      -2.665   1.517   0.043  0.00  0.00    +0.075 S 
ATOM     17  O   UNL     1      -2.479   0.196  -0.446  0.00  0.00    -0.150 OA
ATOM     18  O   UNL     1      -1.639   2.498  -0.003  0.00  0.00    -0.150 OA
BRANCH  16  22
ATOM     19  C   UNL     1      -6.200   3.238  -2.204  0.00  0.00    +0.003 A 
ATOM     20  C   UNL     1      -6.139   1.881  -1.947  0.00  0.00    +0.022 A 
ATOM     21  C   UNL     1      -5.061   1.355  -1.257  0.00  0.00    +0.069 A 
ATOM     22  C   UNL     1      -4.042   2.187  -0.829  0.00  0.00    +0.145 A 
ATOM     23  C   UNL     1      -4.106   3.545  -1.082  0.00  0.00    +0.069 A 
ATOM     24  C   UNL     1      -5.184   4.070  -1.772  0.00  0.00    +0.022 A 
ATOM     25 CL   UNL     1      -2.830   4.591  -0.540  0.00  0.00    -0.081 Cl
ATOM     26 CL   UNL     1      -4.984  -0.349  -0.935  0.00  0.00    -0.081 Cl
ENDBRANCH  16  22
ENDBRANCH   1  16
TORSDOF 5
