REMARK  Name = ZINC09329451
REMARK  6 active torsions:
REMARK  status: ('A' for Active; 'I' for Inactive)
REMARK    1  A    between atoms: C_5  and  N_8
REMARK    2  A    between atoms: C_11  and  C_15
REMARK    3  A    between atoms: C_11  and  N_19
REMARK    4  A    between atoms: C_20  and  C_22
REMARK    5  A    between atoms: C_22  and  C_23
REMARK    6  A    between atoms: C_23  and  C_24
REMARK                            x       y       z     vdW  Elec       q    Type
REMARK                         _______ _______ _______ _____ _____    ______ ____
ROOT
ATOM      1  N   UNL     1       1.976  -1.046  -2.987  0.00  0.00    -0.219 N 
ATOM      2  C   UNL     1       3.096  -1.795  -2.988  0.00  0.00    +0.274 C 
ATOM      3  O   UNL     1       3.949  -1.837  -2.127  0.00  0.00    -0.271 OA
ATOM      4  C   UNL     1       3.067  -2.575  -4.287  0.00  0.00    +0.278 C 
ATOM      5  N   UNL     1       1.816  -2.133  -4.928  0.00  0.00    -0.263 N 
ATOM      6  C   UNL     1       1.248  -1.246  -4.092  0.00  0.00    +0.311 C 
ATOM      7  O   UNL     1       0.193  -0.686  -4.316  0.00  0.00    -0.252 OA
ATOM      8  H   UNL     1       1.469  -2.427  -5.785  0.00  0.00    +0.153 HD
ENDROOT
BRANCH   1  13
ATOM      9  C   UNL     1      -0.019   1.538   0.011  0.00  0.00    +0.000 C 
ATOM     10  C   UNL     1       1.401   2.036  -0.000  0.00  0.00    +0.000 C 
ATOM     11  C   UNL     1       1.910   2.335  -1.423  0.00  0.00    +0.002 C 
ATOM     12  C   UNL     1       1.480   1.268  -2.449  0.00  0.00    +0.023 C 
ATOM     13  C   UNL     1       1.598  -0.131  -1.907  0.00  0.00    +0.086 C 
ATOM     14  C   UNL     1       0.231  -0.548  -1.328  0.00  0.00    +0.023 C 
ATOM     15  C   UNL     1       0.002  -0.004   0.002  0.00  0.00    +0.002 C 
ENDBRANCH   1  13
BRANCH   4  16
ATOM     16  C   UNL     1       4.274  -2.216  -5.157  0.00  0.00    +0.436 C 
ATOM     17  F   UNL     1       5.452  -2.524  -4.470  0.00  0.00    -0.166 F 
ATOM     18  F   UNL     1       4.223  -2.948  -6.348  0.00  0.00    -0.166 F 
ATOM     19  F   UNL     1       4.248  -0.848  -5.449  0.00  0.00    -0.166 F 
ENDBRANCH   4  16
BRANCH   4  20
ATOM     20  N   UNL     1       3.030  -4.015  -4.023  0.00  0.00    -0.280 N 
ATOM     21  C   UNL     1       4.030  -4.600  -3.334  0.00  0.00    +0.215 C 
ATOM     22  O   UNL     1       4.961  -3.933  -2.932  0.00  0.00    -0.276 OA
ATOM     23  H   UNL     1       2.287  -4.548  -4.344  0.00  0.00    +0.151 HD
BRANCH  21  24
ATOM     24  C   UNL     1       3.993  -6.081  -3.062  0.00  0.00    +0.096 C 
BRANCH  24  25
ATOM     25  C   UNL     1       5.237  -6.486  -2.269  0.00  0.00    +0.013 C 
BRANCH  25  26
ATOM     26  C   UNL     1       5.198  -7.991  -1.993  0.00  0.00    -0.011 C 
ATOM     27  C   UNL     1       4.013  -8.312  -1.080  0.00  0.00    +0.003 C 
ATOM     28  C   UNL     1       3.975  -9.816  -0.804  0.00  0.00    +0.000 C 
ATOM     29  C   UNL     1       5.276 -10.243  -0.121  0.00  0.00    +0.000 C 
ATOM     30  C   UNL     1       6.461  -9.922  -1.034  0.00  0.00    +0.000 C 
ATOM     31  C   UNL     1       6.499  -8.417  -1.310  0.00  0.00    +0.003 C 
ENDBRANCH  25  26
ENDBRANCH  24  25
ENDBRANCH  21  24
ENDBRANCH   4  20
TORSDOF 6
