REMARK  Name = ZINC36067307
REMARK  11 active torsions:
REMARK  status: ('A' for Active; 'I' for Inactive)
REMARK    1  A    between atoms: C_1  and  C_2
REMARK    2  A    between atoms: C_7  and  N_12
REMARK    3  A    between atoms: C_9  and  C_11
REMARK    4  A    between atoms: C_13  and  C_15
REMARK    5  A    between atoms: C_15  and  C_17
REMARK    6  A    between atoms: C_15  and  N_21
REMARK    7  A    between atoms: C_17  and  C_18
REMARK    8  A    between atoms: C_18  and  C_19
REMARK    9  A    between atoms: C_18  and  C_20
REMARK   10  A    between atoms: C_22  and  C_24
REMARK   11  A    between atoms: C_27  and  C_30
REMARK                            x       y       z     vdW  Elec       q    Type
REMARK                         _______ _______ _______ _____ _____    ______ ____
ROOT
ATOM      1  N   UNL     1      -2.306  -5.644   2.320  0.00  0.00    -0.300 N 
ATOM      2  C   UNL     1      -3.431  -6.115   2.895  0.00  0.00    +0.245 C 
ATOM      3  O   UNL     1      -4.429  -5.423   2.935  0.00  0.00    -0.270 OA
ATOM      4  H   UNL     1      -1.510  -6.197   2.288  0.00  0.00    +0.150 HD
ENDROOT
BRANCH   2   5
ATOM      5  C   UNL     1      -3.450  -7.474   3.477  0.00  0.00    +0.037 A 
ATOM      6  C   UNL     1      -2.304  -8.270   3.438  0.00  0.00    +0.013 A 
ATOM      7  C   UNL     1      -2.329  -9.537   3.983  0.00  0.00    +0.005 A 
ATOM      8  C   UNL     1      -3.486 -10.019   4.567  0.00  0.00    -0.041 A 
ATOM      9  C   UNL     1      -4.626  -9.236   4.609  0.00  0.00    +0.005 A 
ATOM     10  C   UNL     1      -4.613  -7.965   4.073  0.00  0.00    +0.013 A 
BRANCH   8  11
ATOM     11  C   UNL     1      -3.506 -11.404   5.161  0.00  0.00    -0.003 C 
ATOM     12  C   UNL     1      -2.462 -11.497   6.274  0.00  0.00    +0.015 C 
ATOM     13  C   UNL     1      -2.482 -12.904   6.877  0.00  0.00    -0.010 C 
ATOM     14  C   UNL     1      -3.869 -13.191   7.454  0.00  0.00    +0.007 C 
ATOM     15  C   UNL     1      -4.914 -13.098   6.340  0.00  0.00    -0.010 C 
ATOM     16  C   UNL     1      -4.894 -11.692   5.738  0.00  0.00    +0.015 C 
ATOM     17  C   UNL     1      -4.592 -14.124   5.252  0.00  0.00    +0.007 C 
ATOM     18  C   UNL     1      -3.204 -13.836   4.675  0.00  0.00    -0.010 C 
ATOM     19  C   UNL     1      -2.159 -13.929   5.788  0.00  0.00    +0.007 C 
ATOM     20  C   UNL     1      -3.184 -12.430   4.072  0.00  0.00    +0.015 C 
ENDBRANCH   8  11
ENDBRANCH   2   5
BRANCH   1  21
ATOM     21  C   UNL     1      -2.287  -4.298   1.743  0.00  0.00    +0.159 C 
BRANCH  21  23
ATOM     22  N   UNL     1      -0.612  -2.548   1.244  0.00  0.00    -0.311 N 
ATOM     23  C   UNL     1      -0.873  -3.776   1.733  0.00  0.00    +0.234 C 
ATOM     24  O   UNL     1       0.030  -4.462   2.164  0.00  0.00    -0.274 OA
ATOM     25  H   UNL     1      -1.333  -2.000   0.898  0.00  0.00    +0.149 HD
BRANCH  22  31
ATOM     26  C   UNL     1      -0.019   1.526   0.010  0.00  0.00    +0.008 C 
ATOM     27  C   UNL     1       0.002  -0.004   0.002  0.00  0.00    -0.009 C 
ATOM     28  C   UNL     1       0.718  -0.497  -1.257  0.00  0.00    +0.003 C 
ATOM     29  C   UNL     1       0.739  -2.027  -1.265  0.00  0.00    +0.002 C 
ATOM     30  C   UNL     1       1.479  -2.534  -0.026  0.00  0.00    +0.022 C 
ATOM     31  C   UNL     1       0.763  -2.041   1.233  0.00  0.00    +0.076 C 
ATOM     32  C   UNL     1       0.742  -0.511   1.242  0.00  0.00    +0.009 C 
ATOM     33  C   UNL     1       0.026  -0.018   2.500  0.00  0.00    +0.009 C 
ENDBRANCH  22  31
ENDBRANCH  21  23
BRANCH  21  34
ATOM     34  C   UNL     1      -2.822  -4.349   0.311  0.00  0.00    +0.034 C 
BRANCH  34  35
ATOM     35  C   UNL     1      -4.296  -4.759   0.332  0.00  0.00    -0.015 C 
ATOM     36  C   UNL     1      -5.117  -3.675   1.033  0.00  0.00    +0.007 C 
ATOM     37  C   UNL     1      -4.798  -4.931  -1.103  0.00  0.00    +0.007 C 
ENDBRANCH  34  35
ENDBRANCH  21  34
ENDBRANCH   1  21
TORSDOF 7
