REMARK  Name = ZINC39954618
REMARK  8 active torsions:
REMARK  status: ('A' for Active; 'I' for Inactive)
REMARK    1  A    between atoms: C_1  and  C_2
REMARK    2  A    between atoms: C_2  and  C_3
REMARK    3  A    between atoms: C_2  and  C_4
REMARK    4  A    between atoms: C_4  and  C_5
REMARK    5  A    between atoms: C_7  and  C_11
REMARK    6  A    between atoms: C_19  and  C_21
REMARK    7  A    between atoms: C_24  and  O_27
REMARK    8  A    between atoms: O_27  and  C_28
REMARK                            x       y       z     vdW  Elec       q    Type
REMARK                         _______ _______ _______ _____ _____    ______ ____
ROOT
ATOM      1  C   UNL     1       5.053   0.283   0.435  0.00  0.00    +0.206 C 
ATOM      2  N   UNL     1       4.126   1.029   1.320  0.00  0.00    -0.231 NA
ATOM      3  N   UNL     1       4.739   2.347   1.555  0.00  0.00    -0.224 NA
ATOM      4  C   UNL     1       5.615   2.519   0.378  0.00  0.00    +0.240 C 
ATOM      5  N   UNL     1       6.237   1.157   0.271  0.00  0.00    -0.206 N 
ATOM      6  N   UNL     1       7.609   1.181   0.151  0.00  0.00    -0.173 NA
ATOM      7  C   UNL     1       8.325   2.233   0.428  0.00  0.00    +0.125 C 
ATOM      8  S   UNL     1       7.091   3.525   0.781  0.00  0.00    -0.063 S 
ATOM      9  H   UNL     1       3.217   1.124   0.893  0.00  0.00    +0.143 HD
ATOM     10  H   UNL     1       4.038   3.071   1.593  0.00  0.00    +0.144 HD
ENDROOT
BRANCH   7  11
ATOM     11  C   UNL     1       9.798   2.354   0.442  0.00  0.00    +0.009 A 
ATOM     12  C   UNL     1      10.397   3.572   0.772  0.00  0.00    +0.014 A 
ATOM     13  C   UNL     1      11.771   3.681   0.784  0.00  0.00    +0.046 A 
ATOM     14  C   UNL     1      12.559   2.583   0.468  0.00  0.00    +0.120 A 
ATOM     15  C   UNL     1      11.968   1.370   0.138  0.00  0.00    +0.046 A 
ATOM     16  C   UNL     1      10.594   1.251   0.130  0.00  0.00    +0.014 A 
BRANCH  14  17
ATOM     17  O   UNL     1      13.913   2.695   0.480  0.00  0.00    -0.495 OA
ATOM     18  C   UNL     1      14.664   1.526   0.144  0.00  0.00    +0.277 C 
ENDBRANCH  14  17
ENDBRANCH   7  11
BRANCH   1  21
ATOM     19  C   UNL     1       2.165  -0.079  -1.208  0.00  0.00    +0.062 C 
ATOM     20  C   UNL     1       3.162  -0.848  -0.763  0.00  0.00    +0.029 C 
ATOM     21  C   UNL     1       4.395   0.024  -0.922  0.00  0.00    +0.190 C 
ATOM     22  N   UNL     1       3.849   1.269  -1.487  0.00  0.00    -0.177 NA
ATOM     23  N   UNL     1       2.631   1.122  -1.615  0.00  0.00    -0.159 NA
BRANCH  19  24
ATOM     24  C   UNL     1       0.718  -0.497  -1.257  0.00  0.00    +0.060 C 
BRANCH  24  26
ATOM     25  C   UNL     1      -0.019   1.526   0.010  0.00  0.00    +0.007 C 
ATOM     26  C   UNL     1       0.002  -0.004   0.002  0.00  0.00    -0.011 C 
ATOM     27  C   UNL     1      -1.433  -0.534   0.013  0.00  0.00    +0.007 C 
ENDBRANCH  24  26
ENDBRANCH  19  24
ENDBRANCH   1  21
TORSDOF 5
