REMARK  Name = ZINC41021038
REMARK  10 active torsions:
REMARK  status: ('A' for Active; 'I' for Inactive)
REMARK    1  A    between atoms: C_1  and  C_2
REMARK    2  A    between atoms: C_2  and  C_3
REMARK    3  A    between atoms: C_3  and  S_4
REMARK    4  A    between atoms: S_4  and  C_5
REMARK    5  A    between atoms: C_10  and  C_26
REMARK    6  A    between atoms: C_12  and  C_16
REMARK    7  A    between atoms: C_13  and  C_15
REMARK    8  A    between atoms: N_18  and  C_19
REMARK    9  A    between atoms: C_23  and  C_25
REMARK   10  A    between atoms: C_29  and  O_33
REMARK                            x       y       z     vdW  Elec       q    Type
REMARK                         _______ _______ _______ _____ _____    ______ ____
ROOT
ATOM      1  C   UNL     1      -3.087  -2.905   0.032  0.00  0.00    +0.210 A 
ATOM      2  N   UNL     1      -4.093  -2.018   0.062  0.00  0.00    -0.187 NA
ATOM      3  C   UNL     1      -5.234  -2.652   0.058  0.00  0.00    +0.219 A 
ATOM      4  N   UNL     1      -4.976  -3.983   0.030  0.00  0.00    -0.220 N 
ATOM      5  N   UNL     1      -3.589  -4.121   0.005  0.00  0.00    -0.141 NA
ATOM      6  C   UNL     1      -6.017  -5.008   0.026  0.00  0.00    +0.177 C 
ATOM      7  C   UNL     1      -7.352  -4.365  -0.240  0.00  0.00    +0.060 C 
ATOM      8  C   UNL     1      -7.547  -3.039  -0.202  0.00  0.00    +0.018 C 
ATOM      9  N   UNL     1      -6.531  -2.158   0.075  0.00  0.00    -0.287 N 
ATOM     10  C   UNL     1      -8.927  -2.498  -0.473  0.00  0.00    +0.061 C 
ATOM     11  H   UNL     1      -6.712  -1.226   0.275  0.00  0.00    +0.155 HD
ENDROOT
BRANCH   6  12
ATOM     12  C   UNL     1      -6.049  -5.695   1.367  0.00  0.00    -0.017 A 
ATOM     13  C   UNL     1      -6.309  -4.964   2.512  0.00  0.00    +0.010 A 
ATOM     14  C   UNL     1      -6.338  -5.592   3.742  0.00  0.00    +0.047 A 
ATOM     15  C   UNL     1      -6.108  -6.957   3.829  0.00  0.00    +0.131 A 
ATOM     16  C   UNL     1      -5.847  -7.689   2.679  0.00  0.00    +0.060 A 
ATOM     17  C   UNL     1      -5.824  -7.057   1.450  0.00  0.00    +0.025 A 
ATOM     18 BR   UNL     1      -5.531  -9.550   2.793  0.00  0.00    -0.047 Br
BRANCH  15  19
ATOM     19  O   UNL     1      -6.136  -7.576   5.038  0.00  0.00    -0.506 OA
ATOM     20  H   UNL     1      -7.008  -7.908   5.290  0.00  0.00    +0.292 HD
ENDBRANCH  15  19
ENDBRANCH   6  12
BRANCH   7  21
ATOM     21  C   UNL     1      -8.453  -5.200  -0.546  0.00  0.00    +0.248 C 
ATOM     22  O   UNL     1      -8.586  -5.644  -1.672  0.00  0.00    -0.270 OA
ATOM     23  N   UNL     1      -9.354  -5.503   0.409  0.00  0.00    -0.282 N 
ATOM     24  H   UNL     1      -9.296  -5.084   1.282  0.00  0.00    +0.155 HD
BRANCH  23  25
ATOM     25  C   UNL     1     -10.373  -6.423   0.142  0.00  0.00    +0.034 A 
ATOM     26  C   UNL     1     -10.188  -7.406  -0.823  0.00  0.00    +0.023 A 
ATOM     27  C   UNL     1     -11.196  -8.313  -1.084  0.00  0.00    +0.002 A 
ATOM     28  C   UNL     1     -12.388  -8.244  -0.387  0.00  0.00    +0.003 A 
ATOM     29  C   UNL     1     -12.575  -7.267   0.574  0.00  0.00    -0.049 A 
ATOM     30  C   UNL     1     -11.569  -6.361   0.844  0.00  0.00    +0.026 A 
ATOM     31  C   UNL     1     -13.876  -7.196   1.332  0.00  0.00    +0.044 C 
ENDBRANCH  23  25
ENDBRANCH   7  21
BRANCH   1  32
ATOM     32  S   UNL     1      -1.371  -2.506   0.024  0.00  0.00    -0.084 S 
BRANCH  32  33
ATOM     33  C   UNL     1      -1.342  -0.693   0.073  0.00  0.00    +0.077 C 
BRANCH  33  35
ATOM     34  C   UNL     1       0.134   1.323   0.111  0.00  0.00    +0.004 C 
ATOM     35  C   UNL     1       0.109  -0.206   0.069  0.00  0.00    +0.008 C 
ENDBRANCH  33  35
ENDBRANCH  32  33
ENDBRANCH   1  32
TORSDOF 7
