REMARK  Name = ZINC12635517
REMARK  13 active torsions:
REMARK  status: ('A' for Active; 'I' for Inactive)
REMARK    1  A    between atoms: C_1  and  C_2
REMARK    2  A    between atoms: C_2  and  N_3
REMARK    3  A    between atoms: C_7  and  C_9
REMARK    4  A    between atoms: C_9  and  N_10
REMARK    5  A    between atoms: N_10  and  C_11
REMARK    6  A    between atoms: N_10  and  C_25
REMARK    7  A    between atoms: C_11  and  C_12
REMARK    8  A    between atoms: C_17  and  C_24
REMARK    9  A    between atoms: C_25  and  N_27
REMARK   10  A    between atoms: N_27  and  C_28
REMARK   11  A    between atoms: C_33  and  C_34
REMARK   12  A    between atoms: C_34  and  O_36
REMARK   13  A    between atoms: O_36  and  C_37
REMARK                            x       y       z     vdW  Elec       q    Type
REMARK                         _______ _______ _______ _____ _____    ______ ____
ROOT
ATOM      1  N   UNL     1      -1.508  -1.999  -2.898  0.00  0.00    -0.309 N 
ENDROOT
BRANCH   1   2
ATOM      2  C   UNL     1      -2.500  -2.639  -2.249  0.00  0.00    +0.137 C 
ATOM      3  S   UNL     1      -4.130  -2.199  -2.529  0.00  0.00    -0.018 S 
BRANCH   2   4
ATOM      4  N   UNL     1      -2.209  -3.627  -1.379  0.00  0.00    -0.296 N 
ATOM      5  H   UNL     1      -1.288  -3.902  -1.249  0.00  0.00    +0.154 HD
BRANCH   4   6
ATOM      6  C   UNL     1      -3.229  -4.251  -0.668  0.00  0.00    +0.047 A 
ATOM      7  C   UNL     1      -4.283  -3.504  -0.158  0.00  0.00    +0.024 A 
ATOM      8  C   UNL     1      -5.294  -4.125   0.546  0.00  0.00    +0.002 A 
ATOM      9  C   UNL     1      -5.267  -5.496   0.751  0.00  0.00    +0.001 A 
ATOM     10  C   UNL     1      -4.230  -6.253   0.253  0.00  0.00    +0.017 A 
ATOM     11  C   UNL     1      -3.201  -5.640  -0.467  0.00  0.00    +0.080 A 
BRANCH  11  12
ATOM     12  C   UNL     1      -2.092  -6.445  -1.008  0.00  0.00    +0.341 C 
ATOM     13  O   UNL     1      -1.154  -5.898  -1.554  0.00  0.00    -0.245 OA
BRANCH  12  14
ATOM     14  O   UNL     1      -2.117  -7.788  -0.896  0.00  0.00    -0.464 OA
ATOM     15  C   UNL     1      -1.008  -8.505  -1.442  0.00  0.00    +0.280 C 
ENDBRANCH  12  14
ENDBRANCH  11  12
ENDBRANCH   4   6
ENDBRANCH   2   4
ENDBRANCH   1   2
BRANCH   1  16
ATOM     16  C   UNL     1      -0.112  -2.376  -2.658  0.00  0.00    +0.092 C 
BRANCH  16  21
ATOM     17  N   UNL     1       0.291  -0.199  -1.585  0.00  0.00    +0.382 N 
ATOM     18  C   UNL     1       1.646   0.388  -1.516  0.00  0.00    -0.078 C 
ATOM     19  C   UNL     1       2.477  -0.632  -0.698  0.00  0.00    -0.020 C 
ATOM     20  C   UNL     1       1.896  -1.982  -1.195  0.00  0.00    -0.016 C 
ATOM     21  C   UNL     1       0.402  -1.659  -1.408  0.00  0.00    -0.051 C 
ATOM     22  H   UNL     1      -0.119   0.003  -2.485  0.00  0.00    -0.081 HD
BRANCH  17  24
ATOM     23  C   UNL     1      -0.763   1.858  -0.777  0.00  0.00    -0.017 C 
ATOM     24  C   UNL     1      -0.548   0.366  -0.520  0.00  0.00    -0.082 C 
ENDBRANCH  17  24
ENDBRANCH  16  21
ENDBRANCH   1  16
BRANCH   1  25
ATOM     25  C   UNL     1      -1.824  -0.925  -3.844  0.00  0.00    +0.147 C 
BRANCH  25  26
ATOM     26  C   UNL     1      -2.117  -1.519  -5.198  0.00  0.00    +0.035 A 
ATOM     27  C   UNL     1      -3.398  -1.771  -5.562  0.00  0.00    +0.020 A 
ATOM     28  C   UNL     1      -3.649  -2.348  -6.885  0.00  0.00    -0.001 A 
ATOM     29  C   UNL     1      -4.949  -2.630  -7.316  0.00  0.00    +0.010 A 
ATOM     30  C   UNL     1      -5.149  -3.167  -8.556  0.00  0.00    +0.004 A 
ATOM     31  C   UNL     1      -4.073  -3.436  -9.392  0.00  0.00    -0.048 A 
ATOM     32  C   UNL     1      -2.784  -3.167  -8.987  0.00  0.00    +0.029 A 
ATOM     33  C   UNL     1      -2.555  -2.619  -7.729  0.00  0.00    +0.049 A 
ATOM     34  N   UNL     1      -1.276  -2.338  -7.298  0.00  0.00    -0.322 N 
ATOM     35  H   UNL     1      -0.524  -2.526  -7.881  0.00  0.00    +0.169 HD
ATOM     36  C   UNL     1      -1.056  -1.804  -6.084  0.00  0.00    +0.254 A 
ATOM     37  O   UNL     1       0.088  -1.565  -5.739  0.00  0.00    -0.268 OA
ATOM     38  C   UNL     1      -4.318  -4.029 -10.755  0.00  0.00    +0.044 C 
ENDBRANCH  25  26
ENDBRANCH   1  25
TORSDOF 10
