REMARK  Name = ZINC35140106
REMARK  14 active torsions:
REMARK  status: ('A' for Active; 'I' for Inactive)
REMARK    1  A    between atoms: C_1  and  C_2
REMARK    2  A    between atoms: C_5  and  N_8
REMARK    3  A    between atoms: C_9  and  N_17
REMARK    4  A    between atoms: C_11  and  C_13
REMARK    5  A    between atoms: C_13  and  C_14
REMARK    6  A    between atoms: C_13  and  C_15
REMARK    7  A    between atoms: C_13  and  C_16
REMARK    8  A    between atoms: C_18  and  C_20
REMARK    9  A    between atoms: C_20  and  N_21
REMARK   10  A    between atoms: N_21  and  C_22
REMARK   11  A    between atoms: C_22  and  C_23
REMARK   12  A    between atoms: C_23  and  O_24
REMARK   13  A    between atoms: O_24  and  C_25
REMARK   14  A    between atoms: C_26  and  C_28
REMARK                            x       y       z     vdW  Elec       q    Type
REMARK                         _______ _______ _______ _____ _____    ______ ____
ROOT
ATOM      1  N   UNL     1       2.481  -3.193   2.769  0.00  0.00    -0.269 N 
ATOM      2  C   UNL     1       2.796  -4.414   3.245  0.00  0.00    +0.236 C 
ATOM      3  O   UNL     1       2.710  -5.386   2.525  0.00  0.00    -0.274 OA
ATOM      4  H   UNL     1       2.549  -2.415   3.344  0.00  0.00    +0.156 HD
ENDROOT
BRANCH   1   6
ATOM      5  N   UNL     1       1.708  -1.883   0.838  0.00  0.00    -0.218 N 
ATOM      6  C   UNL     1       2.056  -3.048   1.448  0.00  0.00    +0.129 A 
ATOM      7  C   UNL     1       1.915  -4.046   0.534  0.00  0.00    +0.069 A 
ATOM      8  C   UNL     1       1.470  -3.474  -0.661  0.00  0.00    +0.071 A 
ATOM      9  N   UNL     1       1.340  -2.184  -0.480  0.00  0.00    -0.169 NA
BRANCH   5  14
ATOM     10  C   UNL     1       1.718   3.272   3.213  0.00  0.00    +0.044 C 
ATOM     11  C   UNL     1       1.715   1.903   2.582  0.00  0.00    -0.050 A 
ATOM     12  C   UNL     1       2.047   1.757   1.248  0.00  0.00    +0.005 A 
ATOM     13  C   UNL     1       2.046   0.504   0.667  0.00  0.00    +0.028 A 
ATOM     14  C   UNL     1       1.710  -0.610   1.424  0.00  0.00    +0.067 A 
ATOM     15  C   UNL     1       1.377  -0.461   2.764  0.00  0.00    +0.028 A 
ATOM     16  C   UNL     1       1.386   0.794   3.340  0.00  0.00    +0.005 A 
ENDBRANCH   5  14
BRANCH   8  17
ATOM     17  C   UNL     1       1.182  -4.217  -1.940  0.00  0.00    +0.006 C 
ATOM     18  C   UNL     1      -0.141  -4.973  -1.804  0.00  0.00    +0.017 C 
ATOM     19  C   UNL     1       1.083  -3.221  -3.097  0.00  0.00    +0.017 C 
ATOM     20  C   UNL     1       2.311  -5.211  -2.218  0.00  0.00    +0.017 C 
ENDBRANCH   8  17
ENDBRANCH   1   6
BRANCH   2  21
ATOM     21  C   UNL     1       3.255  -4.571   4.672  0.00  0.00    +0.204 C 
BRANCH  21  22
ATOM     22  N   UNL     1       3.534  -5.983   4.943  0.00  0.00    -0.287 N 
ATOM     23  C   UNL     1       2.616  -6.742   5.574  0.00  0.00    +0.247 C 
ATOM     24  O   UNL     1       2.866  -7.901   5.841  0.00  0.00    -0.270 OA
BRANCH  23  25
ATOM     25  C   UNL     1       1.305  -6.165   5.940  0.00  0.00    +0.037 A 
ATOM     26  C   UNL     1       0.620  -5.352   5.035  0.00  0.00    +0.014 A 
ATOM     27  C   UNL     1      -0.602  -4.816   5.383  0.00  0.00    +0.016 A 
ATOM     28  C   UNL     1      -1.151  -5.084   6.626  0.00  0.00    +0.018 A 
ATOM     29  C   UNL     1      -0.476  -5.890   7.527  0.00  0.00    +0.016 A 
ATOM     30  C   UNL     1       0.745  -6.436   7.189  0.00  0.00    +0.014 A 
ATOM     31 BR   UNL     1      -2.827  -4.346   7.095  0.00  0.00    -0.050 Br
ENDBRANCH  23  25
BRANCH  22  32
ATOM     32  C   UNL     1       4.810  -6.570   4.529  0.00  0.00    +0.136 C 
BRANCH  32  33
ATOM     33  C   UNL     1       5.869  -6.298   5.599  0.00  0.00    +0.178 C 
BRANCH  33  34
ATOM     34  O   UNL     1       5.513  -6.978   6.805  0.00  0.00    -0.381 OA
ATOM     35  C   UNL     1       6.441  -6.789   7.875  0.00  0.00    +0.194 C 
ENDBRANCH  33  34
ENDBRANCH  32  33
ENDBRANCH  22  32
ENDBRANCH  21  22
ENDBRANCH   2  21
TORSDOF 9
