REMARK  Name = ZINC63172681
REMARK  9 active torsions:
REMARK  status: ('A' for Active; 'I' for Inactive)
REMARK    1  A    between atoms: C_7  and  C_10
REMARK    2  A    between atoms: C_10  and  C_11
REMARK    3  A    between atoms: N_13  and  C_14
REMARK    4  A    between atoms: N_13  and  C_22
REMARK    5  A    between atoms: C_14  and  C_15
REMARK    6  A    between atoms: C_15  and  N_16
REMARK    7  A    between atoms: C_22  and  C_24
REMARK    8  A    between atoms: C_22  and  C_31
REMARK    9  A    between atoms: N_33  and  C_34
REMARK                            x       y       z     vdW  Elec       q    Type
REMARK                         _______ _______ _______ _____ _____    ______ ____
ROOT
ATOM      1  C   UNL     1      -1.323  -3.667  -3.371  0.00  0.00    +0.221 C 
ATOM      2  O   UNL     1      -0.998  -3.644  -4.539  0.00  0.00    -0.275 OA
ATOM      3  N   UNL     1      -0.956  -4.702  -2.590  0.00  0.00    -0.284 N 
ENDROOT
BRANCH   1   4
ATOM      4  C   UNL     1      -2.139  -2.539  -2.793  0.00  0.00    +0.129 C 
BRANCH   4  11
ATOM      5  C   UNL     1      -5.689  -1.903  -5.629  0.00  0.00    +0.001 A 
ATOM      6  C   UNL     1      -5.532  -0.808  -6.490  0.00  0.00    +0.002 A 
ATOM      7  C   UNL     1      -4.435  -0.021  -6.476  0.00  0.00    +0.026 A 
ATOM      8  C   UNL     1      -3.374  -0.283  -5.566  0.00  0.00    +0.043 A 
ATOM      9  N   UNL     1      -2.229   0.322  -5.363  0.00  0.00    -0.380 N 
ATOM     10  C   UNL     1      -1.514  -0.378  -4.290  0.00  0.00    +0.145 C 
ATOM     11  C   UNL     1      -2.414  -1.518  -3.866  0.00  0.00    -0.033 C 
ATOM     12  C   UNL     1      -3.516  -1.434  -4.646  0.00  0.00    -0.001 A 
ATOM     13  C   UNL     1      -4.741  -2.239  -4.725  0.00  0.00    +0.010 A 
ATOM     14  H   UNL     1      -1.907   1.101  -5.842  0.00  0.00    +0.160 HD
ENDBRANCH   4  11
ENDBRANCH   1   4
BRANCH   3  15
ATOM     15  C   UNL     1      -1.348  -4.730  -1.179  0.00  0.00    +0.124 C 
BRANCH  15  16
ATOM     16  C   UNL     1      -2.830  -5.095  -1.069  0.00  0.00    +0.103 C 
BRANCH  16  17
ATOM     17  N   UNL     1      -3.188  -5.272   0.345  0.00  0.00    -0.297 NA
ATOM     18  C   UNL     1      -2.503  -6.440   0.919  0.00  0.00    +0.112 C 
ATOM     19  C   UNL     1      -2.856  -6.553   2.404  0.00  0.00    +0.175 C 
ATOM     20  O   UNL     1      -4.277  -6.633   2.547  0.00  0.00    -0.377 OA
ATOM     21  C   UNL     1      -4.975  -5.512   1.999  0.00  0.00    +0.175 C 
ATOM     22  C   UNL     1      -4.644  -5.389   0.509  0.00  0.00    +0.112 C 
ENDBRANCH  16  17
ENDBRANCH  15  16
ENDBRANCH   3  15
BRANCH   3  23
ATOM     23  C   UNL     1      -0.163  -5.799  -3.152  0.00  0.00    +0.192 C 
BRANCH  23  24
ATOM     24  C   UNL     1       1.265  -5.676  -2.687  0.00  0.00    -0.018 A 
ATOM     25  C   UNL     1       1.542  -5.496  -1.344  0.00  0.00    +0.009 A 
ATOM     26  C   UNL     1       2.851  -5.383  -0.916  0.00  0.00    +0.038 A 
ATOM     27  C   UNL     1       3.886  -5.451  -1.833  0.00  0.00    +0.123 A 
ATOM     28  C   UNL     1       3.608  -5.631  -3.178  0.00  0.00    +0.038 A 
ATOM     29  C   UNL     1       2.298  -5.749  -3.602  0.00  0.00    +0.009 A 
ATOM     30  F   UNL     1       5.167  -5.341  -1.417  0.00  0.00    -0.205 F 
ENDBRANCH  23  24
BRANCH  23  31
ATOM     31  C   UNL     1      -0.730  -7.116  -2.690  0.00  0.00    +0.238 C 
ATOM     32  O   UNL     1      -1.374  -7.173  -1.663  0.00  0.00    -0.273 OA
ATOM     33  N   UNL     1      -0.522  -8.232  -3.417  0.00  0.00    -0.311 N 
ATOM     34  H   UNL     1      -0.007  -8.186  -4.238  0.00  0.00    +0.149 HD
BRANCH  33  35
ATOM     35  C   UNL     1      -1.073  -9.512  -2.968  0.00  0.00    +0.073 C 
ATOM     36  C   UNL     1      -0.111 -10.160  -1.970  0.00  0.00    +0.022 C 
ATOM     37  C   UNL     1      -0.686 -11.498  -1.501  0.00  0.00    +0.002 C 
ATOM     38  C   UNL     1      -0.872 -12.424  -2.705  0.00  0.00    +0.000 C 
ATOM     39  C   UNL     1      -1.835 -11.776  -3.703  0.00  0.00    +0.002 C 
ATOM     40  C   UNL     1      -1.259 -10.438  -4.172  0.00  0.00    +0.022 C 
ENDBRANCH  33  35
ENDBRANCH  23  31
ENDBRANCH   3  23
TORSDOF 9
