REMARK  Name = ZINC01985459
REMARK  9 active torsions:
REMARK  status: ('A' for Active; 'I' for Inactive)
REMARK    1  A    between atoms: C_1  and  C_2
REMARK    2  A    between atoms: C_2  and  C_4
REMARK    3  A    between atoms: C_2  and  O_18
REMARK    4  A    between atoms: N_6  and  C_7
REMARK    5  A    between atoms: C_9  and  C_14
REMARK    6  A    between atoms: O_18  and  C_19
REMARK    7  A    between atoms: C_19  and  C_21
REMARK    8  A    between atoms: C_21  and  N_22
REMARK    9  A    between atoms: C_23  and  C_25
REMARK                            x       y       z     vdW  Elec       q    Type
REMARK                         _______ _______ _______ _____ _____    ______ ____
ROOT
ATOM      1  C   UNL     1       2.078   4.103   6.532  0.00  0.00    +0.062 C 
ATOM      2  C   UNL     1       2.141   2.646   6.069  0.00  0.00    +0.259 C 
ENDROOT
BRANCH   2   3
ATOM      3  C   UNL     1       1.385   2.497   4.774  0.00  0.00    +0.258 C 
ATOM      4  O   UNL     1       1.958   2.106   3.779  0.00  0.00    -0.271 OA
ATOM      5  N   UNL     1       0.073   2.799   4.721  0.00  0.00    -0.281 N 
ATOM      6  H   UNL     1      -0.370   3.173   5.498  0.00  0.00    +0.155 HD
BRANCH   5   7
ATOM      7  C   UNL     1      -0.651   2.572   3.544  0.00  0.00    +0.052 A 
ATOM      8  C   UNL     1      -0.041   2.742   2.308  0.00  0.00    +0.037 A 
ATOM      9  C   UNL     1      -0.757   2.517   1.149  0.00  0.00    +0.057 A 
ATOM     10  C   UNL     1      -2.083   2.129   1.218  0.00  0.00    +0.014 A 
ATOM     11  C   UNL     1      -2.692   1.953   2.446  0.00  0.00    +0.022 A 
ATOM     12  C   UNL     1      -1.981   2.176   3.610  0.00  0.00    +0.062 A 
ATOM     13 CL   UNL     1      -2.749   1.961   5.152  0.00  0.00    -0.082 Cl
BRANCH   9  14
ATOM     14  C   UNL     1      -0.095   2.702  -0.192  0.00  0.00    +0.417 C 
ATOM     15  F   UNL     1       0.487   1.495  -0.595  0.00  0.00    -0.166 F 
ATOM     16  F   UNL     1       0.894   3.686  -0.092  0.00  0.00    -0.166 F 
ATOM     17  F   UNL     1      -1.052   3.096  -1.134  0.00  0.00    -0.166 F 
ENDBRANCH   9  14
ENDBRANCH   5   7
ENDBRANCH   2   3
BRANCH   2  18
ATOM     18  O   UNL     1       3.527   2.262   5.867  0.00  0.00    -0.451 OA
BRANCH  18  19
ATOM     19  C   UNL     1       4.175   1.742   6.921  0.00  0.00    +0.325 C 
ATOM     20  O   UNL     1       3.603   1.612   7.978  0.00  0.00    -0.249 OA
BRANCH  19  21
ATOM     21  C   UNL     1       5.615   1.320   6.788  0.00  0.00    +0.225 C 
BRANCH  21  22
ATOM     22  N   UNL     1       6.089   0.789   8.068  0.00  0.00    -0.301 N 
ATOM     23  C   UNL     1       7.357   0.347   8.186  0.00  0.00    +0.246 C 
ATOM     24  O   UNL     1       8.108   0.391   7.231  0.00  0.00    -0.270 OA
ATOM     25  H   UNL     1       5.491   0.754   8.830  0.00  0.00    +0.150 HD
BRANCH  23  26
ATOM     26  C   UNL     1       7.835  -0.189   9.477  0.00  0.00    +0.055 A 
ATOM     27  C   UNL     1       6.976  -0.239  10.577  0.00  0.00    +0.016 A 
ATOM     28  C   UNL     1       7.428  -0.741  11.778  0.00  0.00    +0.021 A 
ATOM     29  C   UNL     1       8.732  -1.195  11.898  0.00  0.00    +0.042 A 
ATOM     30  C   UNL     1       9.589  -1.147  10.812  0.00  0.00    +0.040 A 
ATOM     31  C   UNL     1       9.148  -0.652   9.601  0.00  0.00    +0.054 A 
ATOM     32 CL   UNL     1      10.222  -0.600   8.239  0.00  0.00    -0.083 Cl
ATOM     33 CL   UNL     1       9.292  -1.824  13.416  0.00  0.00    -0.083 Cl
ENDBRANCH  23  26
ENDBRANCH  21  22
ENDBRANCH  19  21
ENDBRANCH  18  19
ENDBRANCH   2  18
TORSDOF 8
