REMARK  Name = ZINC12730883
REMARK  6 active torsions:
REMARK  status: ('A' for Active; 'I' for Inactive)
REMARK    1  A    between atoms: C_1  and  C_2
REMARK    2  A    between atoms: C_3  and  C_21
REMARK    3  A    between atoms: C_8  and  C_10
REMARK    4  A    between atoms: C_10  and  S_11
REMARK    5  A    between atoms: S_11  and  C_12
REMARK    6  A    between atoms: C_18  and  O_20
REMARK                            x       y       z     vdW  Elec       q    Type
REMARK                         _______ _______ _______ _____ _____    ______ ____
ROOT
ATOM      1  C   UNL     1       4.222   4.542  -0.014  0.00  0.00    +0.054 C 
ATOM      2  C   UNL     1       3.234   3.404  -0.011  0.00  0.00    +0.016 A 
ATOM      3  C   UNL     1       3.456   2.055  -0.020  0.00  0.00    +0.083 A 
ATOM      4  N   UNL     1       2.423   1.226  -0.015  0.00  0.00    -0.224 NA
ATOM      5  C   UNL     1       1.183   1.677  -0.000  0.00  0.00    +0.165 A 
ATOM      6  S   UNL     1       1.446   3.445  -0.001  0.00  0.00    -0.057 S 
ATOM      7  N   UNL     1      -0.011   0.966   0.007  0.00  0.00    -0.264 N 
ATOM      8  C   UNL     1      -1.187   1.624   0.017  0.00  0.00    +0.229 C 
ATOM      9  O   UNL     1      -1.204   2.837   0.023  0.00  0.00    -0.275 OA
ATOM     10  H   UNL     1       0.002  -0.004   0.002  0.00  0.00    +0.157 HD
ENDROOT
BRANCH   3  11
ATOM     11  C   UNL     1       4.841   1.525  -0.036  0.00  0.00    +0.001 A 
ATOM     12  C   UNL     1       5.840   2.198  -0.739  0.00  0.00    +0.010 A 
ATOM     13  C   UNL     1       7.128   1.703  -0.746  0.00  0.00    +0.001 A 
ATOM     14  C   UNL     1       7.427   0.536  -0.067  0.00  0.00    +0.000 A 
ATOM     15  C   UNL     1       6.439  -0.139   0.627  0.00  0.00    +0.001 A 
ATOM     16  C   UNL     1       5.149   0.349   0.646  0.00  0.00    +0.010 A 
ENDBRANCH   3  11
BRANCH   8  17
ATOM     17  C   UNL     1      -2.482   0.853   0.018  0.00  0.00    +0.173 C 
BRANCH  17  18
ATOM     18  S   UNL     1      -3.874   2.010   0.031  0.00  0.00    -0.078 S 
BRANCH  18  19
ATOM     19  C   UNL     1      -5.218   0.872   0.032  0.00  0.00    +0.173 A 
ATOM     20  N   UNL     1      -6.495   1.346   0.040  0.00  0.00    -0.302 N 
ATOM     21  H   UNL     1      -6.656   2.303   0.046  0.00  0.00    +0.171 HD
ATOM     22  C   UNL     1      -7.536   0.488   0.040  0.00  0.00    +0.256 A 
ATOM     23  O   UNL     1      -8.684   0.903   0.048  0.00  0.00    -0.268 OA
ATOM     24  C   UNL     1      -7.277  -0.888   0.031  0.00  0.00    +0.137 A 
ATOM     25  C   UNL     1      -5.960  -1.318   0.022  0.00  0.00    +0.220 A 
ATOM     26  N   UNL     1      -4.969  -0.422   0.018  0.00  0.00    -0.189 NA
BRANCH  25  27
ATOM     27  O   UNL     1      -5.679  -2.642   0.013  0.00  0.00    -0.492 OA
ATOM     28  H   UNL     1      -4.733  -2.843   0.008  0.00  0.00    +0.294 HD
ENDBRANCH  25  27
ENDBRANCH  18  19
ENDBRANCH  17  18
ENDBRANCH   8  17
TORSDOF 5
