REMARK  Name = ZINC15945916
REMARK  10 active torsions:
REMARK  status: ('A' for Active; 'I' for Inactive)
REMARK    1  A    between atoms: C_1  and  C_2
REMARK    2  A    between atoms: C_5  and  N_8
REMARK    3  A    between atoms: C_9  and  C_11
REMARK    4  A    between atoms: C_15  and  N_16
REMARK    5  A    between atoms: C_17  and  C_19
REMARK    6  A    between atoms: C_19  and  N_20
REMARK    7  A    between atoms: C_27  and  C_31
REMARK    8  A    between atoms: C_31  and  C_32
REMARK    9  A    between atoms: C_31  and  C_33
REMARK   10  A    between atoms: C_31  and  C_34
REMARK                            x       y       z     vdW  Elec       q    Type
REMARK                         _______ _______ _______ _____ _____    ______ ____
ROOT
ATOM      1  C   UNL     1      -1.139  -0.832  -0.371  0.00  0.00    +0.069 A 
ATOM      2  C   UNL     1       0.002  -0.017   0.009  0.00  0.00    -0.023 A 
ATOM      3  C   UNL     1       1.110  -0.706   0.357  0.00  0.00    -0.004 A 
ATOM      4  S   UNL     1       0.657  -2.409   0.185  0.00  0.00    -0.077 S 
ATOM      5  C   UNL     1      -0.982  -2.210  -0.341  0.00  0.00    +0.084 A 
ATOM      6  C   UNL     1       2.427  -0.140   0.791  0.00  0.00    +0.046 C 
ATOM      7  C   UNL     1       2.223   1.340   1.146  0.00  0.00    -0.000 C 
ATOM      8  C   UNL     1       1.431   2.013   0.021  0.00  0.00    +0.009 C 
ATOM      9  C   UNL     1      -0.012   1.506   0.026  0.00  0.00    +0.037 C 
ENDROOT
BRANCH   1  11
ATOM     10  N   UNL     1      -3.352   0.044   0.154  0.00  0.00    -0.281 N 
ATOM     11  C   UNL     1      -2.410  -0.220  -0.772  0.00  0.00    +0.251 C 
ATOM     12  O   UNL     1      -2.614   0.048  -1.942  0.00  0.00    -0.270 OA
ATOM     13  H   UNL     1      -3.200  -0.267   1.198  0.00  0.00    +0.155 HD
BRANCH  10  18
ATOM     14  C   UNL     1      -8.105   2.763  -1.329  0.00  0.00    +0.044 C 
ATOM     15  C   UNL     1      -6.842   2.041  -0.936  0.00  0.00    -0.050 A 
ATOM     16  C   UNL     1      -6.249   1.156  -1.817  0.00  0.00    +0.005 A 
ATOM     17  C   UNL     1      -5.092   0.492  -1.459  0.00  0.00    +0.023 A 
ATOM     18  C   UNL     1      -4.524   0.715  -0.212  0.00  0.00    +0.034 A 
ATOM     19  C   UNL     1      -5.125   1.600   0.674  0.00  0.00    +0.023 A 
ATOM     20  C   UNL     1      -6.278   2.265   0.307  0.00  0.00    +0.005 A 
ENDBRANCH  10  18
ENDBRANCH   1  11
BRANCH   5  21
ATOM     21  N   UNL     1      -1.911  -3.191  -0.654  0.00  0.00    -0.278 N 
ATOM     22  C   UNL     1      -1.573  -4.492  -0.565  0.00  0.00    +0.232 C 
ATOM     23  O   UNL     1      -0.457  -4.806  -0.209  0.00  0.00    -0.274 OA
ATOM     24  H   UNL     1      -2.923  -2.906  -0.977  0.00  0.00    +0.155 HD
BRANCH  22  25
ATOM     25  C   UNL     1      -2.583  -5.558  -0.905  0.00  0.00    +0.181 C 
BRANCH  25  26
ATOM     26  N   UNL     1      -1.975  -6.883  -0.729  0.00  0.00    -0.290 NA
ATOM     27  C   UNL     1      -0.899  -7.104  -1.706  0.00  0.00    +0.113 C 
ATOM     28  C   UNL     1      -0.255  -8.469  -1.448  0.00  0.00    +0.175 C 
ATOM     29  O   UNL     1      -1.260  -9.485  -1.510  0.00  0.00    -0.377 OA
ATOM     30  C   UNL     1      -2.323  -9.301  -0.571  0.00  0.00    +0.175 C 
ATOM     31  C   UNL     1      -2.988  -7.945  -0.820  0.00  0.00    +0.113 C 
ENDBRANCH  25  26
ENDBRANCH  22  25
ENDBRANCH   5  21
BRANCH   7  32
ATOM     32  C   UNL     1       3.584   2.024   1.294  0.00  0.00    -0.035 C 
ATOM     33  C   UNL     1       4.355   1.917  -0.023  0.00  0.00    +0.011 C 
ATOM     34  C   UNL     1       3.378   3.498   1.647  0.00  0.00    +0.011 C 
ATOM     35  C   UNL     1       4.380   1.339   2.408  0.00  0.00    +0.011 C 
ENDBRANCH   7  32
TORSDOF 6
