REMARK  Name = ZINC64701034
REMARK  9 active torsions:
REMARK  status: ('A' for Active; 'I' for Inactive)
REMARK    1  A    between atoms: C_1  and  C_2
REMARK    2  A    between atoms: C_2  and  C_3
REMARK    3  A    between atoms: C_3  and  C_4
REMARK    4  A    between atoms: C_4  and  C_5
REMARK    5  A    between atoms: C_8  and  N_11
REMARK    6  A    between atoms: C_12  and  C_14
REMARK    7  A    between atoms: C_14  and  S_15
REMARK    8  A    between atoms: S_15  and  C_16
REMARK    9  A    between atoms: C_26  and  C_28
REMARK                            x       y       z     vdW  Elec       q    Type
REMARK                         _______ _______ _______ _____ _____    ______ ____
ROOT
ATOM      1  C   UNL     1     -11.252  -5.027  -2.595  0.00  0.00    +0.272 C 
ATOM      2  N   UNL     1     -11.952  -3.828  -2.100  0.00  0.00    -0.163 NA
ATOM      3  N   UNL     1     -12.505  -3.010  -2.838  0.00  0.00    -0.081 NA
ATOM      4  C   UNL     1     -12.503  -3.097  -4.193  0.00  0.00    +0.276 C 
ATOM      5  O   UNL     1     -13.146  -2.341  -4.882  0.00  0.00    -0.270 OA
ATOM      6  C   UNL     1     -11.657  -4.182  -4.786  0.00  0.00    +0.193 C 
ATOM      7  N   UNL     1     -11.836  -5.362  -3.876  0.00  0.00    -0.178 NA
ATOM      8  N   UNL     1     -11.364  -6.360  -4.657  0.00  0.00    -0.274 N 
ATOM      9  C   UNL     1     -11.921  -6.113  -5.934  0.00  0.00    +0.047 C 
ATOM     10  C   UNL     1     -12.129  -4.765  -6.091  0.00  0.00    +0.027 C 
ATOM     11  H   UNL     1     -10.774  -7.085  -4.399  0.00  0.00    +0.167 HD
ENDROOT
BRANCH   9  12
ATOM     12  C   UNL     1     -12.219  -7.147  -6.953  0.00  0.00    -0.003 A 
ATOM     13  C   UNL     1     -12.764  -6.780  -8.183  0.00  0.00    +0.012 A 
ATOM     14  C   UNL     1     -13.040  -7.746  -9.128  0.00  0.00    +0.039 A 
ATOM     15  C   UNL     1     -12.776  -9.079  -8.857  0.00  0.00    +0.123 A 
ATOM     16  C   UNL     1     -12.234  -9.448  -7.636  0.00  0.00    +0.039 A 
ATOM     17  C   UNL     1     -11.950  -8.489  -6.686  0.00  0.00    +0.012 A 
ATOM     18  F   UNL     1     -13.047 -10.022  -9.786  0.00  0.00    -0.205 F 
ENDBRANCH   9  12
BRANCH   1  19
ATOM     19  S   UNL     1      -9.484  -4.672  -2.795  0.00  0.00    -0.107 S 
BRANCH  19  20
ATOM     20  C   UNL     1      -8.830  -4.738  -1.104  0.00  0.00    +0.168 C 
BRANCH  20  22
ATOM     21  N   UNL     1      -6.678  -4.313   0.040  0.00  0.00    -0.285 N 
ATOM     22  C   UNL     1      -7.377  -4.338  -1.113  0.00  0.00    +0.227 C 
ATOM     23  O   UNL     1      -6.836  -4.038  -2.156  0.00  0.00    -0.275 OA
ATOM     24  H   UNL     1      -7.088  -4.624   0.862  0.00  0.00    +0.155 HD
BRANCH  21  28
ATOM     25  C   UNL     1      -2.759  -2.901   0.070  0.00  0.00    -0.047 A 
ATOM     26  C   UNL     1      -3.682  -2.354  -0.801  0.00  0.00    +0.005 A 
ATOM     27  C   UNL     1      -4.982  -2.820  -0.814  0.00  0.00    +0.023 A 
ATOM     28  C   UNL     1      -5.362  -3.839   0.050  0.00  0.00    +0.033 A 
ATOM     29  C   UNL     1      -4.431  -4.387   0.923  0.00  0.00    +0.023 A 
ATOM     30  C   UNL     1      -3.132  -3.920   0.928  0.00  0.00    +0.005 A 
BRANCH  25  31
ATOM     31  C   UNL     1      -1.341  -2.390   0.082  0.00  0.00    +0.035 C 
BRANCH  31  32
ATOM     32  C   UNL     1      -0.502  -3.191  -0.916  0.00  0.00    +0.004 C 
BRANCH  32  34
ATOM     33  C   UNL     1       1.776  -3.474  -1.903  0.00  0.00    +0.004 C 
ATOM     34  C   UNL     1       0.937  -2.673  -0.905  0.00  0.00    -0.003 C 
ENDBRANCH  32  34
ENDBRANCH  31  32
ENDBRANCH  25  31
ENDBRANCH  21  28
ENDBRANCH  20  22
ENDBRANCH  19  20
ENDBRANCH   1  19
TORSDOF 8
