REMARK  Name = ZINC21618376
REMARK  11 active torsions:
REMARK  status: ('A' for Active; 'I' for Inactive)
REMARK    1  A    between atoms: C_1  and  C_2
REMARK    2  A    between atoms: C_2  and  C_4
REMARK    3  A    between atoms: C_2  and  S_16
REMARK    4  A    between atoms: N_6  and  C_7
REMARK    5  A    between atoms: S_16  and  C_17
REMARK    6  A    between atoms: C_20  and  C_23
REMARK    7  A    between atoms: N_21  and  N_22
REMARK    8  A    between atoms: C_26  and  C_29
REMARK    9  A    between atoms: C_29  and  C_30
REMARK   10  A    between atoms: C_29  and  C_31
REMARK   11  A    between atoms: C_29  and  C_32
REMARK                            x       y       z     vdW  Elec       q    Type
REMARK                         _______ _______ _______ _____ _____    ______ ____
ROOT
ATOM      1  C   UNL     1      -6.390   2.207   0.334  0.00  0.00    +0.209 A 
ATOM      2  N   UNL     1      -6.331   3.455  -0.075  0.00  0.00    -0.121 NA
ATOM      3  N   UNL     1      -7.496   3.995  -0.011  0.00  0.00    -0.127 NA
ATOM      4  C   UNL     1      -8.368   3.126   0.442  0.00  0.00    +0.182 A 
ATOM      5  N   UNL     1      -7.688   1.952   0.671  0.00  0.00    -0.224 N 
ENDROOT
BRANCH   4   6
ATOM      6  C   UNL     1      -9.812   3.362   0.660  0.00  0.00    +0.021 A 
ATOM      7  C   UNL     1     -10.561   2.466   1.424  0.00  0.00    +0.012 A 
ATOM      8  C   UNL     1     -11.906   2.695   1.627  0.00  0.00    +0.005 A 
ATOM      9  C   UNL     1     -12.515   3.804   1.067  0.00  0.00    -0.042 A 
ATOM     10  C   UNL     1     -11.779   4.692   0.304  0.00  0.00    +0.005 A 
ATOM     11  C   UNL     1     -10.432   4.478   0.097  0.00  0.00    +0.012 A 
BRANCH   9  12
ATOM     12  C   UNL     1     -13.986   4.044   1.289  0.00  0.00    -0.013 C 
ATOM     13  C   UNL     1     -14.709   4.063  -0.059  0.00  0.00    +0.015 C 
ATOM     14  C   UNL     1     -14.560   2.925   2.160  0.00  0.00    +0.015 C 
ATOM     15  C   UNL     1     -14.183   5.389   1.992  0.00  0.00    +0.015 C 
ENDBRANCH   9  12
ENDBRANCH   4   6
BRANCH   5  16
ATOM     16  N   UNL     1      -8.203   0.778   1.142  0.00  0.00    -0.295 N 
ATOM     17  H   UNL     1      -9.275   0.703   1.378  0.00  0.00    +0.163 HD
ATOM     18  H   UNL     1      -7.546  -0.093   1.284  0.00  0.00    +0.163 HD
ENDBRANCH   5  16
BRANCH   1  19
ATOM     19  S   UNL     1      -5.045   1.072   0.422  0.00  0.00    -0.072 S 
BRANCH  19  21
ATOM     20  C   UNL     1      -3.966   2.496  -1.645  0.00  0.00    +0.029 C 
ATOM     21  C   UNL     1      -3.704   2.126  -0.184  0.00  0.00    +0.137 C 
BRANCH  21  22
ATOM     22  C   UNL     1      -2.396   1.385  -0.081  0.00  0.00    +0.230 C 
ATOM     23  O   UNL     1      -2.385   0.172  -0.088  0.00  0.00    -0.274 OA
ATOM     24  N   UNL     1      -1.239   2.069   0.019  0.00  0.00    -0.282 N 
ATOM     25  H   UNL     1      -1.255   3.164   0.117  0.00  0.00    +0.155 HD
BRANCH  24  26
ATOM     26  C   UNL     1      -0.016   1.385  -0.002  0.00  0.00    +0.072 A 
ATOM     27  C   UNL     1       0.075   0.144  -0.617  0.00  0.00    +0.029 A 
ATOM     28  C   UNL     1       1.283  -0.527  -0.642  0.00  0.00    +0.043 A 
ATOM     29  C   UNL     1       2.403   0.036  -0.055  0.00  0.00    +0.161 A 
ATOM     30  C   UNL     1       2.316   1.275   0.561  0.00  0.00    +0.195 A 
ATOM     31  C   UNL     1       1.107   1.951   0.589  0.00  0.00    +0.182 A 
ATOM     32  F   UNL     1       1.021   3.159   1.188  0.00  0.00    -0.200 F 
ATOM     33  F   UNL     1       3.410   1.823   1.134  0.00  0.00    -0.199 F 
ATOM     34  F   UNL     1       3.582  -0.623  -0.081  0.00  0.00    -0.202 F 
ENDBRANCH  24  26
ENDBRANCH  21  22
ENDBRANCH  19  21
ENDBRANCH   1  19
TORSDOF 7
