REMARK  Name = ZINC43009657
REMARK  9 active torsions:
REMARK  status: ('A' for Active; 'I' for Inactive)
REMARK    1  A    between atoms: C_1  and  C_2
REMARK    2  A    between atoms: C_5  and  C_11
REMARK    3  A    between atoms: C_6  and  C_10
REMARK    4  A    between atoms: C_7  and  O_8
REMARK    5  A    between atoms: O_8  and  C_9
REMARK    6  A    between atoms: C_11  and  N_12
REMARK    7  A    between atoms: N_16  and  C_25
REMARK    8  A    between atoms: C_25  and  C_26
REMARK    9  A    between atoms: C_26  and  N_27
REMARK                            x       y       z     vdW  Elec       q    Type
REMARK                         _______ _______ _______ _____ _____    ______ ____
ROOT
ATOM      1  N   UNL     1      -1.684  -4.689  -1.144  0.00  0.00    -0.299 N 
ATOM      2  C   UNL     1      -2.074  -4.940   0.251  0.00  0.00    +0.203 C 
ATOM      3  C   UNL     1      -2.775  -6.272   0.339  0.00  0.00    +0.237 C 
ATOM      4  O   UNL     1      -2.714  -6.915   1.365  0.00  0.00    -0.274 OA
ATOM      5  N   UNL     1      -3.469  -6.754  -0.711  0.00  0.00    -0.267 N 
ATOM      6  C   UNL     1      -3.501  -6.050  -1.922  0.00  0.00    +0.114 A 
ATOM      7  C   UNL     1      -2.597  -5.000  -2.143  0.00  0.00    +0.150 A 
ATOM      8  N   UNL     1      -2.632  -4.338  -3.289  0.00  0.00    -0.198 NA
ATOM      9  C   UNL     1      -3.522  -4.660  -4.219  0.00  0.00    +0.216 A 
ATOM     10  N   UNL     1      -4.395  -5.639  -4.043  0.00  0.00    -0.201 NA
ATOM     11  C   UNL     1      -4.411  -6.359  -2.918  0.00  0.00    +0.157 A 
ATOM     12 CL   UNL     1      -5.561  -7.641  -2.698  0.00  0.00    -0.060 Cl
ATOM     13  N   UNL     1      -3.537  -3.951  -5.410  0.00  0.00    -0.327 N 
ATOM     14  H   UNL     1      -2.903  -3.230  -5.553  0.00  0.00    +0.145 HD
ATOM     15  H   UNL     1      -4.181  -4.174  -6.099  0.00  0.00    +0.145 HD
ENDROOT
BRANCH   1  16
ATOM     16  C   UNL     1      -0.373  -4.122  -1.471  0.00  0.00    +0.160 C 
BRANCH  16  21
ATOM     17  C   UNL     1      -0.785   1.597  -1.293  0.00  0.00    +0.049 C 
ATOM     18  C   UNL     1      -0.638   0.098  -1.348  0.00  0.00    +0.007 A 
ATOM     19  C   UNL     1      -1.728  -0.720  -1.134  0.00  0.00    +0.089 A 
ATOM     20  N   UNL     1      -1.608  -2.033  -1.180  0.00  0.00    -0.362 N 
ATOM     21  C   UNL     1      -0.452  -2.618  -1.430  0.00  0.00    +0.040 A 
ATOM     22  C   UNL     1       0.685  -1.870  -1.655  0.00  0.00    +0.012 A 
ATOM     23  C   UNL     1       0.599  -0.480  -1.621  0.00  0.00    +0.129 A 
ATOM     24  C   UNL     1       2.001  -2.547  -1.940  0.00  0.00    +0.049 C 
ATOM     25  H   UNL     1      -2.392  -2.583  -1.026  0.00  0.00    +0.165 HD
BRANCH  23  26
ATOM     26  O   UNL     1       1.694   0.290  -1.842  0.00  0.00    -0.494 OA
ATOM     27  C   UNL     1       2.483   0.639  -0.702  0.00  0.00    +0.277 C 
ENDBRANCH  23  26
ENDBRANCH  16  21
ENDBRANCH   1  16
BRANCH   5  28
ATOM     28  C   UNL     1      -4.192  -8.022  -0.586  0.00  0.00    +0.095 C 
BRANCH  28  29
ATOM     29  C   UNL     1      -5.600  -7.755  -0.048  0.00  0.00    -0.059 C 
BRANCH  29  30
ATOM     30  N   UNL     1      -6.370  -9.005  -0.050  0.00  0.00    +0.381 N 
ATOM     31  C   UNL     1      -5.825  -9.944   0.965  0.00  0.00    -0.079 C 
ATOM     32  C   UNL     1      -7.013 -10.900   1.237  0.00  0.00    -0.020 C 
ATOM     33  C   UNL     1      -8.237  -9.958   1.176  0.00  0.00    -0.020 C 
ATOM     34  C   UNL     1      -7.769  -8.743   0.354  0.00  0.00    -0.079 C 
ATOM     35  H   UNL     1      -6.345  -9.428  -0.965  0.00  0.00    -0.082 HD
ENDBRANCH  29  30
ENDBRANCH  28  29
ENDBRANCH   5  28
TORSDOF 6
