REMARK  Name = ZINC21451134
REMARK  10 active torsions:
REMARK  status: ('A' for Active; 'I' for Inactive)
REMARK    1  A    between atoms: C_1  and  C_2
REMARK    2  A    between atoms: C_2  and  C_3
REMARK    3  A    between atoms: C_3  and  C_4
REMARK    4  A    between atoms: C_4  and  N_5
REMARK    5  A    between atoms: C_7  and  C_12
REMARK    6  A    between atoms: N_14  and  C_15
REMARK    7  A    between atoms: C_18  and  S_21
REMARK    8  A    between atoms: S_21  and  N_24
REMARK    9  A    between atoms: N_24  and  C_25
REMARK   10  A    between atoms: C_28  and  C_31
REMARK                            x       y       z     vdW  Elec       q    Type
REMARK                         _______ _______ _______ _____ _____    ______ ____
ROOT
ATOM      1  C   UNL     1      -0.358   1.024  -0.131  0.00  0.00    +0.034 A 
ATOM      2  C   UNL     1      -0.089   2.363   0.118  0.00  0.00    +0.025 A 
ATOM      3  C   UNL     1       1.210   2.829   0.054  0.00  0.00    +0.030 A 
ATOM      4  C   UNL     1       2.241   1.962  -0.258  0.00  0.00    +0.109 A 
ATOM      5  C   UNL     1       1.977   0.628  -0.505  0.00  0.00    +0.030 A 
ATOM      6  C   UNL     1       0.680   0.156  -0.443  0.00  0.00    +0.025 A 
ENDROOT
BRANCH   1   9
ATOM      7  C   UNL     1      -2.696   1.348  -0.429  0.00  0.00    +0.222 C 
ATOM      8  O   UNL     1      -2.474   2.445  -0.896  0.00  0.00    -0.275 OA
ATOM      9  N   UNL     1      -1.673   0.549  -0.067  0.00  0.00    -0.285 N 
ATOM     10  H   UNL     1      -1.871  -0.476   0.280  0.00  0.00    +0.155 HD
BRANCH   7  13
ATOM     11  N   UNL     1      -6.188   1.067  -1.450  0.00  0.00    -0.301 N 
ATOM     12  C   UNL     1      -5.113   1.883  -0.875  0.00  0.00    +0.121 C 
ATOM     13  C   UNL     1      -4.118   0.877  -0.255  0.00  0.00    +0.101 C 
ATOM     14  C   UNL     1      -4.387  -0.392  -1.096  0.00  0.00    +0.110 C 
ATOM     15  C   UNL     1      -5.806  -0.215  -1.591  0.00  0.00    +0.216 C 
ATOM     16  O   UNL     1      -6.498  -1.099  -2.048  0.00  0.00    -0.276 OA
BRANCH  11  17
ATOM     17  C   UNL     1      -7.508   1.581  -1.823  0.00  0.00    +0.108 C 
BRANCH  17  18
ATOM     18  C   UNL     1      -8.455   1.470  -0.627  0.00  0.00    +0.019 C 
BRANCH  18  20
ATOM     19  C   UNL     1     -10.781   1.897   0.180  0.00  0.00    +0.004 C 
ATOM     20  C   UNL     1      -9.833   2.008  -1.016  0.00  0.00    -0.002 C 
ENDBRANCH  18  20
ENDBRANCH  17  18
ENDBRANCH  11  17
ENDBRANCH   7  13
ENDBRANCH   1   9
BRANCH   4  21
ATOM     21  S   UNL     1       3.897   2.560  -0.339  0.00  0.00    +0.072 S 
ATOM     22  O   UNL     1       3.973   3.667   0.548  0.00  0.00    -0.150 OA
ATOM     23  O   UNL     1       4.745   1.426  -0.218  0.00  0.00    -0.150 OA
BRANCH  21  24
ATOM     24  N   UNL     1       4.126   3.161  -1.866  0.00  0.00    -0.216 N 
ATOM     25  H   UNL     1       4.842   2.676  -2.546  0.00  0.00    +0.174 HD
BRANCH  24  26
ATOM     26  C   UNL     1       3.410   4.283  -2.289  0.00  0.00    +0.048 A 
ATOM     27  C   UNL     1       2.350   4.139  -3.176  0.00  0.00    +0.025 A 
ATOM     28  C   UNL     1       1.642   5.250  -3.589  0.00  0.00    +0.005 A 
ATOM     29  C   UNL     1       1.993   6.506  -3.129  0.00  0.00    -0.050 A 
ATOM     30  C   UNL     1       3.051   6.654  -2.250  0.00  0.00    +0.005 A 
ATOM     31  C   UNL     1       3.760   5.546  -1.829  0.00  0.00    +0.025 A 
ATOM     32  C   UNL     1       1.221   7.717  -3.586  0.00  0.00    +0.044 C 
ENDBRANCH  24  26
ENDBRANCH  21  24
ENDBRANCH   4  21
TORSDOF 8
