REMARK  Name = ZINC03545598
REMARK  12 active torsions:
REMARK  status: ('A' for Active; 'I' for Inactive)
REMARK    1  A    between atoms: C_1  and  C_2
REMARK    2  A    between atoms: C_2  and  C_4
REMARK    3  A    between atoms: C_2  and  N_11
REMARK    4  A    between atoms: C_12  and  C_14
REMARK    5  A    between atoms: C_14  and  S_15
REMARK    6  A    between atoms: S_15  and  C_16
REMARK    7  A    between atoms: C_19  and  C_22
REMARK    8  A    between atoms: N_20  and  N_21
REMARK    9  A    between atoms: C_25  and  C_28
REMARK   10  A    between atoms: C_28  and  C_29
REMARK   11  A    between atoms: C_28  and  C_30
REMARK   12  A    between atoms: C_28  and  C_31
REMARK                            x       y       z     vdW  Elec       q    Type
REMARK                         _______ _______ _______ _____ _____    ______ ____
ROOT
ATOM      1  C   UNL     1      -2.738   4.354   0.205  0.00  0.00    +0.209 A 
ATOM      2  N   UNL     1      -3.903   3.745   0.188  0.00  0.00    -0.121 NA
ATOM      3  N   UNL     1      -4.844   4.597  -0.013  0.00  0.00    -0.127 NA
ATOM      4  C   UNL     1      -4.337   5.801  -0.146  0.00  0.00    +0.182 A 
ATOM      5  N   UNL     1      -2.973   5.682  -0.011  0.00  0.00    -0.224 N 
ENDROOT
BRANCH   4   6
ATOM      6  C   UNL     1      -5.091   7.048  -0.396  0.00  0.00    +0.021 A 
ATOM      7  C   UNL     1      -6.467   7.093  -0.168  0.00  0.00    +0.012 A 
ATOM      8  C   UNL     1      -7.163   8.262  -0.397  0.00  0.00    +0.005 A 
ATOM      9  C   UNL     1      -6.502   9.384  -0.863  0.00  0.00    -0.042 A 
ATOM     10  C   UNL     1      -5.139   9.345  -1.096  0.00  0.00    +0.005 A 
ATOM     11  C   UNL     1      -4.430   8.184  -0.865  0.00  0.00    +0.012 A 
BRANCH   9  12
ATOM     12  C   UNL     1      -7.270  10.656  -1.118  0.00  0.00    -0.013 C 
ATOM     13  C   UNL     1      -7.133  11.048  -2.590  0.00  0.00    +0.015 C 
ATOM     14  C   UNL     1      -8.746  10.435  -0.783  0.00  0.00    +0.015 C 
ATOM     15  C   UNL     1      -6.709  11.775  -0.238  0.00  0.00    +0.015 C 
ENDBRANCH   9  12
ENDBRANCH   4   6
BRANCH   5  16
ATOM     16  N   UNL     1      -2.047   6.684  -0.077  0.00  0.00    -0.295 N 
ATOM     17  H   UNL     1      -2.370   7.720  -0.257  0.00  0.00    +0.163 HD
ATOM     18  H   UNL     1      -0.979   6.455   0.050  0.00  0.00    +0.163 HD
ENDBRANCH   5  16
BRANCH   1  19
ATOM     19  S   UNL     1      -1.166   3.598   0.453  0.00  0.00    -0.075 S 
BRANCH  19  20
ATOM     20  C   UNL     1      -1.676   1.874   0.662  0.00  0.00    +0.173 C 
BRANCH  20  22
ATOM     21  N   UNL     1      -0.598  -0.313   1.077  0.00  0.00    -0.308 N 
ATOM     22  C   UNL     1      -0.460   1.015   0.894  0.00  0.00    +0.224 C 
ATOM     23  O   UNL     1       0.643   1.518   0.911  0.00  0.00    -0.275 OA
ATOM     24  H   UNL     1      -1.599  -0.769   1.062  0.00  0.00    +0.149 HD
BRANCH  21  26
ATOM     25  C   UNL     1       1.186  -1.546  -0.053  0.00  0.00    +0.033 C 
ATOM     26  C   UNL     1       0.585  -1.149   1.297  0.00  0.00    +0.100 C 
BRANCH  26  27
ATOM     27  C   UNL     1       0.189  -2.390   2.055  0.00  0.00    -0.027 A 
ATOM     28  C   UNL     1      -0.999  -3.031   1.759  0.00  0.00    +0.008 A 
ATOM     29  C   UNL     1      -1.361  -4.172   2.450  0.00  0.00    +0.038 A 
ATOM     30  C   UNL     1      -0.537  -4.667   3.447  0.00  0.00    +0.123 A 
ATOM     31  C   UNL     1       0.650  -4.021   3.747  0.00  0.00    +0.038 A 
ATOM     32  C   UNL     1       1.012  -2.883   3.050  0.00  0.00    +0.008 A 
ATOM     33  F   UNL     1      -0.892  -5.778   4.128  0.00  0.00    -0.205 F 
ENDBRANCH  26  27
ENDBRANCH  21  26
ENDBRANCH  20  22
ENDBRANCH  19  20
ENDBRANCH   1  19
TORSDOF 8
