REMARK  Name = ZINC23110666
REMARK  8 active torsions:
REMARK  status: ('A' for Active; 'I' for Inactive)
REMARK    1  A    between atoms: C_1  and  C_2
REMARK    2  A    between atoms: C_2  and  C_3
REMARK    3  A    between atoms: C_3  and  C_4
REMARK    4  A    between atoms: C_4  and  C_5
REMARK    5  A    between atoms: C_8  and  N_11
REMARK    6  A    between atoms: C_13  and  C_18
REMARK    7  A    between atoms: N_20  and  C_21
REMARK    8  A    between atoms: C_30  and  C_33
REMARK                            x       y       z     vdW  Elec       q    Type
REMARK                         _______ _______ _______ _____ _____    ______ ____
ROOT
ATOM      1  C   UNL     1      -5.103   4.276  -1.897  0.00  0.00    +0.222 C 
ATOM      2  O   UNL     1      -4.656   3.393  -2.596  0.00  0.00    -0.275 OA
ATOM      3  N   UNL     1      -5.747   5.319  -2.457  0.00  0.00    -0.285 N 
ATOM      4  H   UNL     1      -6.088   6.157  -1.831  0.00  0.00    +0.155 HD
ENDROOT
BRANCH   3   5
ATOM      5  C   UNL     1      -5.984   5.336  -3.838  0.00  0.00    +0.035 A 
ATOM      6  C   UNL     1      -5.042   4.807  -4.710  0.00  0.00    +0.027 A 
ATOM      7  C   UNL     1      -5.273   4.816  -6.073  0.00  0.00    +0.049 A 
ATOM      8  C   UNL     1      -6.442   5.363  -6.572  0.00  0.00    +0.143 A 
ATOM      9  C   UNL     1      -7.388   5.900  -5.699  0.00  0.00    +0.077 A 
ATOM     10  C   UNL     1      -7.159   5.886  -4.334  0.00  0.00    +0.050 A 
ATOM     11  N   UNL     1      -8.567   6.452  -6.221  0.00  0.00    -0.279 N 
ATOM     12  C   UNL     1      -8.909   6.178  -7.498  0.00  0.00    +0.258 C 
ATOM     13  O   UNL     1      -9.909   6.668  -7.980  0.00  0.00    -0.271 OA
ATOM     14  C   UNL     1      -8.045   5.258  -8.323  0.00  0.00    +0.256 C 
ATOM     15  O   UNL     1      -6.681   5.383  -7.911  0.00  0.00    -0.478 OA
ATOM     16  C   UNL     1      -8.505   3.813  -8.127  0.00  0.00    +0.062 C 
ATOM     17  H   UNL     1      -9.197   7.098  -5.592  0.00  0.00    +0.155 HD
ENDBRANCH   3   5
BRANCH   1  20
ATOM     18  N   UNL     1      -2.761   3.328   0.081  0.00  0.00    -0.271 N 
ATOM     19  C   UNL     1      -4.173   2.933   0.015  0.00  0.00    +0.127 C 
ATOM     20  C   UNL     1      -4.939   4.209  -0.400  0.00  0.00    +0.102 C 
ATOM     21  C   UNL     1      -3.992   5.322   0.103  0.00  0.00    +0.110 C 
ATOM     22  C   UNL     1      -2.630   4.664   0.144  0.00  0.00    +0.221 C 
ATOM     23  O   UNL     1      -1.574   5.256   0.218  0.00  0.00    -0.275 OA
BRANCH  18  27
ATOM     24  C   UNL     1       0.430   0.650   0.094  0.00  0.00    -0.047 A 
ATOM     25  C   UNL     1       0.671   2.010   0.034  0.00  0.00    +0.005 A 
ATOM     26  C   UNL     1      -0.384   2.901   0.035  0.00  0.00    +0.024 A 
ATOM     27  C   UNL     1      -1.689   2.428   0.086  0.00  0.00    +0.036 A 
ATOM     28  C   UNL     1      -1.928   1.062   0.146  0.00  0.00    +0.024 A 
ATOM     29  C   UNL     1      -0.868   0.176   0.149  0.00  0.00    +0.005 A 
BRANCH  24  30
ATOM     30  C   UNL     1       1.585  -0.319   0.098  0.00  0.00    +0.035 C 
BRANCH  30  31
ATOM     31  C   UNL     1       2.017  -0.591   1.541  0.00  0.00    +0.004 C 
BRANCH  31  33
ATOM     32  C   UNL     1       3.620  -1.846   2.988  0.00  0.00    +0.004 C 
ATOM     33  C   UNL     1       3.189  -1.574   1.546  0.00  0.00    -0.003 C 
ENDBRANCH  31  33
ENDBRANCH  30  31
ENDBRANCH  24  30
ENDBRANCH  18  27
ENDBRANCH   1  20
TORSDOF 6
