REMARK  Name = ZINC63686567
REMARK  11 active torsions:
REMARK  status: ('A' for Active; 'I' for Inactive)
REMARK    1  A    between atoms: C_1  and  C_2
REMARK    2  A    between atoms: C_2  and  N_3
REMARK    3  A    between atoms: C_4  and  C_25
REMARK    4  A    between atoms: C_8  and  S_10
REMARK    5  A    between atoms: S_10  and  C_11
REMARK    6  A    between atoms: C_11  and  C_12
REMARK    7  A    between atoms: C_15  and  C_24
REMARK    8  A    between atoms: C_17  and  C_23
REMARK    9  A    between atoms: C_25  and  O_26
REMARK   10  A    between atoms: O_26  and  C_27
REMARK   11  A    between atoms: C_31  and  C_33
REMARK                            x       y       z     vdW  Elec       q    Type
REMARK                         _______ _______ _______ _____ _____    ______ ____
ROOT
ATOM      1  N   UNL     1      -1.376  -0.512   0.012  0.00  0.00    -0.259 NA
ATOM      2  C   UNL     1      -1.402  -1.980  -0.185  0.00  0.00    +0.178 C 
ATOM      3  N   UNL     1      -1.518  -2.532   1.190  0.00  0.00    -0.234 NA
ATOM      4  N   UNL     1      -2.420  -1.578   1.855  0.00  0.00    -0.229 NA
ATOM      5  C   UNL     1      -2.025  -0.258   1.315  0.00  0.00    +0.200 C 
ATOM      6  H   UNL     1      -0.619  -2.558   1.646  0.00  0.00    +0.142 HD
ATOM      7  H   UNL     1      -2.303  -1.609   2.857  0.00  0.00    +0.143 HD
ENDROOT
BRANCH   1   9
ATOM      8  C   UNL     1      -0.019   1.526   0.010  0.00  0.00    +0.020 C 
ATOM      9  C   UNL     1       0.002  -0.004   0.002  0.00  0.00    +0.085 C 
ENDBRANCH   1   9
BRANCH   5  10
ATOM     10  S   UNL     1      -3.492   0.785   1.086  0.00  0.00    -0.119 S 
BRANCH  10  11
ATOM     11  C   UNL     1      -4.552  -0.188  -0.019  0.00  0.00    +0.125 C 
BRANCH  11  12
ATOM     12  C   UNL     1      -5.823   0.574  -0.294  0.00  0.00    +0.030 A 
ATOM     13  N   UNL     1      -6.765   0.643   0.678  0.00  0.00    -0.357 N 
ATOM     14  C   UNL     1      -7.948   1.322   0.490  0.00  0.00    +0.053 A 
ATOM     15  C   UNL     1      -8.909   1.387   1.495  0.00  0.00    -0.026 A 
ATOM     16  C   UNL     1     -10.081   2.075   1.275  0.00  0.00    +0.008 A 
ATOM     17  C   UNL     1     -10.316   2.706   0.061  0.00  0.00    -0.049 A 
ATOM     18  C   UNL     1      -9.385   2.655  -0.940  0.00  0.00    +0.017 A 
ATOM     19  C   UNL     1      -8.191   1.964  -0.737  0.00  0.00    +0.045 A 
ATOM     20  C   UNL     1      -7.161   1.884  -1.788  0.00  0.00    +0.190 A 
ATOM     21  O   UNL     1      -7.322   2.423  -2.870  0.00  0.00    -0.287 OA
ATOM     22  C   UNL     1      -5.977   1.166  -1.496  0.00  0.00    +0.073 A 
ATOM     23  C   UNL     1     -11.607   3.453  -0.157  0.00  0.00    +0.044 C 
ATOM     24  C   UNL     1      -8.668   0.706   2.817  0.00  0.00    +0.046 C 
ATOM     25  H   UNL     1      -6.602   0.202   1.526  0.00  0.00    +0.166 HD
ENDBRANCH  11  12
ENDBRANCH  10  11
ENDBRANCH   5  10
BRANCH   2  26
ATOM     26  C   UNL     1      -0.106  -2.454  -0.848  0.00  0.00    +0.265 C 
BRANCH  26  27
ATOM     27  O   UNL     1       1.005  -2.117  -0.015  0.00  0.00    -0.489 OA
BRANCH  27  28
ATOM     28  C   UNL     1       2.239  -2.470  -0.461  0.00  0.00    +0.121 A 
ATOM     29  C   UNL     1       2.378  -3.123  -1.677  0.00  0.00    +0.045 A 
ATOM     30  C   UNL     1       3.634  -3.480  -2.128  0.00  0.00    +0.004 A 
ATOM     31  C   UNL     1       4.752  -3.189  -1.368  0.00  0.00    +0.003 A 
ATOM     32  C   UNL     1       4.616  -2.539  -0.155  0.00  0.00    -0.047 A 
ATOM     33  C   UNL     1       3.362  -2.175   0.297  0.00  0.00    +0.049 A 
ATOM     34  C   UNL     1       5.836  -2.224   0.671  0.00  0.00    +0.044 C 
ENDBRANCH  27  28
ENDBRANCH  26  27
ENDBRANCH   2  26
TORSDOF 7
