REMARK  Name = ZINC35374813
REMARK  9 active torsions:
REMARK  status: ('A' for Active; 'I' for Inactive)
REMARK    1  A    between atoms: C_1  and  C_2
REMARK    2  A    between atoms: C_2  and  C_3
REMARK    3  A    between atoms: C_3  and  C_5
REMARK    4  A    between atoms: C_3  and  C_6
REMARK    5  A    between atoms: C_6  and  N_7
REMARK    6  A    between atoms: C_8  and  C_10
REMARK    7  A    between atoms: C_21  and  C_23
REMARK    8  A    between atoms: C_26  and  C_32
REMARK    9  A    between atoms: C_27  and  N_29
REMARK                            x       y       z     vdW  Elec       q    Type
REMARK                         _______ _______ _______ _____ _____    ______ ____
ROOT
ATOM      1  C   UNL     1      -4.647  -5.370   2.064  0.00  0.00    +0.028 C 
ATOM      2  C   UNL     1      -5.178  -5.330   3.529  0.00  0.00    +0.061 C 
ATOM      3  S   UNL     1      -6.367  -6.741   3.455  0.00  0.00    -0.174 S 
ATOM      4  C   UNL     1      -5.671  -7.593   1.985  0.00  0.00    -0.016 C 
ATOM      5  N   UNL     1      -4.480  -6.780   1.662  0.00  0.00    +0.397 N 
ATOM      6  C   UNL     1      -6.679  -7.565   0.847  0.00  0.00    +0.017 C 
ATOM      7  C   UNL     1      -6.080  -8.253  -0.385  0.00  0.00    +0.107 C 
ATOM      8  N   UNL     1      -5.609  -9.589   0.004  0.00  0.00    -0.298 N 
ATOM      9  C   UNL     1      -4.669  -9.710   1.127  0.00  0.00    +0.107 C 
ATOM     10  C   UNL     1      -5.276  -9.015   2.352  0.00  0.00    +0.017 C 
ATOM     11  C   UNL     1      -6.031 -10.684  -0.658  0.00  0.00    +0.247 C 
ATOM     12  O   UNL     1      -5.574 -11.776  -0.380  0.00  0.00    -0.270 OA
ATOM     13  H   UNL     1      -4.318  -6.821   0.667  0.00  0.00    -0.083 HD
ATOM     14  H   UNL     1      -3.679  -7.165   2.139  0.00  0.00    -0.083 HD
ENDROOT
BRANCH  11  15
ATOM     15  C   UNL     1      -7.049 -10.558  -1.723  0.00  0.00    +0.039 A 
ATOM     16  C   UNL     1      -6.930  -9.561  -2.692  0.00  0.00    +0.013 A 
ATOM     17  C   UNL     1      -7.883  -9.449  -3.683  0.00  0.00    +0.006 A 
ATOM     18  C   UNL     1      -8.956 -10.323  -3.717  0.00  0.00    -0.020 A 
ATOM     19  C   UNL     1      -9.080 -11.313  -2.759  0.00  0.00    +0.130 A 
ATOM     20  C   UNL     1      -8.130 -11.440  -1.766  0.00  0.00    +0.046 A 
ATOM     21  C   UNL     1      -9.994 -10.194  -4.802  0.00  0.00    +0.046 C 
BRANCH  19  22
ATOM     22  N   UNL     1     -10.231 -12.242  -2.802  0.00  0.00    +0.057 N 
ATOM     23  O   UNL     1     -10.746 -12.616  -1.774  0.00  0.00    -0.126 OA
ATOM     24  O   UNL     1     -10.657 -12.628  -3.866  0.00  0.00    -0.126 OA
ENDBRANCH  19  22
ENDBRANCH  11  15
BRANCH   1  26
ATOM     25  N   UNL     1      -3.235  -3.353   2.306  0.00  0.00    -0.316 N 
ATOM     26  C   UNL     1      -3.320  -4.660   1.987  0.00  0.00    +0.200 C 
ATOM     27  O   UNL     1      -2.329  -5.265   1.638  0.00  0.00    -0.278 OA
ATOM     28  H   UNL     1      -4.028  -2.870   2.585  0.00  0.00    +0.149 HD
BRANCH  25  29
ATOM     29  C   UNL     1      -1.945  -2.664   2.231  0.00  0.00    +0.107 C 
BRANCH  29  30
ATOM     30  C   UNL     1      -2.124  -1.201   2.641  0.00  0.00    +0.003 C 
ATOM     31  C   UNL     1      -3.022  -0.492   1.625  0.00  0.00    +0.009 C 
BRANCH  30  33
ATOM     32  C   UNL     1      -0.922   0.914   3.213  0.00  0.00    +0.004 C 
ATOM     33  C   UNL     1      -0.758  -0.512   2.683  0.00  0.00    +0.001 C 
ENDBRANCH  30  33
ENDBRANCH  29  30
ENDBRANCH  25  29
ENDBRANCH   1  26
TORSDOF 6
