REMARK  Name = ZINC13627252
REMARK  7 active torsions:
REMARK  status: ('A' for Active; 'I' for Inactive)
REMARK    1  A    between atoms: C_1  and  C_2
REMARK    2  A    between atoms: C_8  and  N_10
REMARK    3  A    between atoms: C_11  and  C_13
REMARK    4  A    between atoms: C_13  and  C_14
REMARK    5  A    between atoms: C_14  and  C_15
REMARK    6  A    between atoms: C_15  and  N_16
REMARK    7  A    between atoms: C_21  and  O_29
REMARK                            x       y       z     vdW  Elec       q    Type
REMARK                         _______ _______ _______ _____ _____    ______ ____
ROOT
ATOM      1  N   UNL     1       1.261   1.187   8.376  0.00  0.00    -0.299 N 
ATOM      2  C   UNL     1       0.851   1.597   9.593  0.00  0.00    +0.307 C 
ATOM      3  O   UNL     1      -0.308   1.919   9.767  0.00  0.00    -0.252 OA
ATOM      4  N   UNL     1       1.726   1.648  10.616  0.00  0.00    -0.245 N 
ATOM      5  C   UNL     1       3.139   1.271  10.440  0.00  0.00    +0.210 C 
ATOM      6  C   UNL     1       3.592   0.493  11.648  0.00  0.00    +0.206 C 
ATOM      7  N   UNL     1       3.050   0.665  12.810  0.00  0.00    -0.214 NA
ATOM      8  C   UNL     1       2.025   1.553  13.004  0.00  0.00    +0.089 A 
ATOM      9  C   UNL     1       1.333   2.069  11.896  0.00  0.00    +0.064 A 
ATOM     10  C   UNL     1       0.295   2.963  12.072  0.00  0.00    +0.026 A 
ATOM     11  C   UNL     1      -0.059   3.359  13.351  0.00  0.00    +0.002 A 
ATOM     12  C   UNL     1       0.621   2.864  14.449  0.00  0.00    +0.002 A 
ATOM     13  C   UNL     1       1.659   1.956  14.286  0.00  0.00    +0.030 A 
ATOM     14  H   UNL     1       2.186   0.930   8.236  0.00  0.00    +0.150 HD
ENDROOT
BRANCH   6  15
ATOM     15  O   UNL     1       4.590  -0.405  11.514  0.00  0.00    -0.494 OA
ATOM     16  H   UNL     1       4.822  -0.860  12.335  0.00  0.00    +0.293 HD
ENDBRANCH   6  15
BRANCH   1  17
ATOM     17  C   UNL     1       0.310   1.131   7.263  0.00  0.00    +0.106 C 
BRANCH  17  18
ATOM     18  C   UNL     1       1.026   0.638   6.004  0.00  0.00    +0.028 C 
BRANCH  18  19
ATOM     19  C   UNL     1       0.033   0.579   4.842  0.00  0.00    +0.097 C 
BRANCH  19  21
ATOM     20  N   UNL     1       0.056  -0.038   2.447  0.00  0.00    -0.312 N 
ATOM     21  C   UNL     1       0.738   0.093   3.602  0.00  0.00    +0.213 C 
ATOM     22  O   UNL     1       1.919  -0.179   3.644  0.00  0.00    -0.276 OA
ATOM     23  H   UNL     1      -0.888   0.180   2.413  0.00  0.00    +0.149 HD
BRANCH  20  30
ATOM     24  C   UNL     1      -0.019   1.526   0.010  0.00  0.00    +0.009 C 
ATOM     25  C   UNL     1       0.002  -0.004   0.002  0.00  0.00    +0.006 C 
ATOM     26  C   UNL     1       0.718  -0.497  -1.257  0.00  0.00    +0.005 C 
ATOM     27  C   UNL     1       0.739  -2.027  -1.265  0.00  0.00    +0.000 C 
ATOM     28  C   UNL     1       1.479  -2.534  -0.026  0.00  0.00    +0.002 C 
ATOM     29  C   UNL     1       0.763  -2.041   1.233  0.00  0.00    +0.022 C 
ATOM     30  C   UNL     1       0.742  -0.511   1.242  0.00  0.00    +0.076 C 
ENDBRANCH  20  30
ENDBRANCH  19  21
ENDBRANCH  18  19
ENDBRANCH  17  18
ENDBRANCH   1  17
TORSDOF 6
