REMARK  Name = ZINC13424360
REMARK  3 active torsions:
REMARK  status: ('A' for Active; 'I' for Inactive)
REMARK    1  A    between atoms: N_11  and  N_12
REMARK    2  A    between atoms: C_13  and  C_15
REMARK    3  A    between atoms: C_18  and  N_22
REMARK                            x       y       z     vdW  Elec       q    Type
REMARK                         _______ _______ _______ _____ _____    ______ ____
ROOT
ATOM      1  N   UNL     1       6.018  -0.744  -0.299  0.00  0.00    -0.203 N 
ATOM      2  C   UNL     1       7.170  -0.087  -0.541  0.00  0.00    +0.265 C 
ATOM      3  O   UNL     1       7.156   1.112  -0.745  0.00  0.00    -0.268 OA
ATOM      4  H   UNL     1       6.030  -1.700  -0.137  0.00  0.00    +0.178 HD
ENDROOT
BRANCH   1  15
ATOM      5  C   UNL     1      -0.017   1.378   0.010  0.00  0.00    +0.000 A 
ATOM      6  C   UNL     1       1.167   2.096   0.002  0.00  0.00    +0.001 A 
ATOM      7  C   UNL     1       2.375   1.431  -0.015  0.00  0.00    +0.010 A 
ATOM      8  C   UNL     1       2.398   0.035  -0.024  0.00  0.00    +0.001 A 
ATOM      9  C   UNL     1       1.205  -0.687  -0.012  0.00  0.00    -0.038 A 
ATOM     10  C   UNL     1       0.002  -0.004   0.002  0.00  0.00    +0.004 A 
ATOM     11  C   UNL     1       1.193  -2.191  -0.008  0.00  0.00    +0.036 C 
ATOM     12  C   UNL     1       2.495  -2.757  -0.568  0.00  0.00    +0.011 C 
ATOM     13  C   UNL     1       3.682  -2.170   0.208  0.00  0.00    +0.058 C 
ATOM     14  C   UNL     1       3.695  -0.677  -0.049  0.00  0.00    +0.067 C 
ATOM     15  N   UNL     1       4.804  -0.045  -0.282  0.00  0.00    -0.184 NA
ENDBRANCH   1  15
BRANCH   2  16
ATOM     16  C   UNL     1       8.450  -0.824  -0.560  0.00  0.00    +0.057 A 
ATOM     17  C   UNL     1       8.470  -2.201  -0.333  0.00  0.00    +0.017 A 
ATOM     18  C   UNL     1       9.669  -2.883  -0.352  0.00  0.00    +0.033 A 
ATOM     19  C   UNL     1      10.851  -2.206  -0.595  0.00  0.00    +0.128 A 
ATOM     20  C   UNL     1      10.840  -0.842  -0.821  0.00  0.00    +0.053 A 
ATOM     21  C   UNL     1       9.646  -0.146  -0.810  0.00  0.00    +0.055 A 
ATOM     22 CL   UNL     1       9.633   1.565  -1.101  0.00  0.00    -0.083 Cl
BRANCH  19  23
ATOM     23  N   UNL     1      12.133  -2.945  -0.614  0.00  0.00    +0.056 N 
ATOM     24  O   UNL     1      12.146  -4.138  -0.416  0.00  0.00    -0.126 OA
ATOM     25  O   UNL     1      13.168  -2.356  -0.826  0.00  0.00    -0.126 OA
ENDBRANCH  19  23
ENDBRANCH   2  16
TORSDOF 3
