REMARK  Name = ZINC62040004
REMARK  6 active torsions:
REMARK  status: ('A' for Active; 'I' for Inactive)
REMARK    1  A    between atoms: C_1  and  C_2
REMARK    2  A    between atoms: C_3  and  C_25
REMARK    3  A    between atoms: C_7  and  C_11
REMARK    4  A    between atoms: N_12  and  C_13
REMARK    5  A    between atoms: C_13  and  C_14
REMARK    6  A    between atoms: C_14  and  C_15
REMARK                            x       y       z     vdW  Elec       q    Type
REMARK                         _______ _______ _______ _____ _____    ______ ____
ROOT
ATOM      1  C   UNL     1       0.027   1.539   0.681  0.00  0.00    +0.052 C 
ATOM      2  C   UNL     1       0.046   0.073   0.330  0.00  0.00    -0.003 A 
ATOM      3  C   UNL     1      -1.003  -0.735   0.049  0.00  0.00    +0.005 A 
ATOM      4  C   UNL     1      -0.746  -2.135  -0.268  0.00  0.00    +0.055 A 
ATOM      5  C   UNL     1      -1.659  -3.174  -0.593  0.00  0.00    +0.131 A 
ATOM      6  N   UNL     1      -1.194  -4.386  -0.848  0.00  0.00    -0.217 NA
ATOM      7  C   UNL     1       0.096  -4.667  -0.810  0.00  0.00    +0.129 A 
ATOM      8  N   UNL     1       0.991  -3.744  -0.513  0.00  0.00    -0.225 NA
ATOM      9  C   UNL     1       0.614  -2.509  -0.246  0.00  0.00    +0.114 A 
ATOM     10  S   UNL     1       1.456  -1.007   0.177  0.00  0.00    -0.073 S 
ATOM     11  C   UNL     1       0.555  -6.070  -1.111  0.00  0.00    +0.088 C 
ATOM     12  N   UNL     1      -3.018  -2.921  -0.642  0.00  0.00    -0.328 N 
ATOM     13  H   UNL     1      -3.347  -2.014  -0.534  0.00  0.00    +0.147 HD
ENDROOT
BRANCH   3  14
ATOM     14  C   UNL     1      -2.388  -0.206   0.064  0.00  0.00    -0.016 A 
ATOM     15  C   UNL     1      -2.833   0.619  -0.968  0.00  0.00    +0.011 A 
ATOM     16  C   UNL     1      -4.123   1.108  -0.950  0.00  0.00    +0.039 A 
ATOM     17  C   UNL     1      -4.975   0.781   0.092  0.00  0.00    +0.123 A 
ATOM     18  C   UNL     1      -4.538  -0.037   1.120  0.00  0.00    +0.039 A 
ATOM     19  C   UNL     1      -3.252  -0.537   1.107  0.00  0.00    +0.011 A 
ATOM     20  F   UNL     1      -6.237   1.263   0.106  0.00  0.00    -0.205 F 
ENDBRANCH   3  14
BRANCH  12  21
ATOM     21  C   UNL     1      -3.961  -4.021  -0.859  0.00  0.00    +0.110 C 
BRANCH  21  22
ATOM     22  C   UNL     1      -5.389  -3.473  -0.871  0.00  0.00    +0.093 C 
BRANCH  22  23
ATOM     23  C   UNL     1      -6.359  -4.605  -1.094  0.00  0.00    +0.110 A 
ATOM     24  N   UNL     1      -7.409  -4.904  -0.282  0.00  0.00    -0.342 N 
ATOM     25  H   UNL     1      -7.660  -4.434   0.528  0.00  0.00    +0.167 HD
ATOM     26  C   UNL     1      -8.050  -5.999  -0.825  0.00  0.00    +0.066 A 
ATOM     27  C   UNL     1      -9.159  -6.749  -0.460  0.00  0.00    +0.028 A 
ATOM     28  C   UNL     1      -9.551  -7.815  -1.242  0.00  0.00    +0.002 A 
ATOM     29  C   UNL     1      -8.843  -8.142  -2.390  0.00  0.00    +0.002 A 
ATOM     30  C   UNL     1      -7.749  -7.415  -2.765  0.00  0.00    +0.030 A 
ATOM     31  C   UNL     1      -7.334  -6.330  -1.988  0.00  0.00    +0.089 A 
ATOM     32  N   UNL     1      -6.318  -5.436  -2.095  0.00  0.00    -0.232 NA
ENDBRANCH  22  23
ENDBRANCH  21  22
ENDBRANCH  12  21
TORSDOF 4
