REMARK  Name = ZINC11116943
REMARK  6 active torsions:
REMARK  status: ('A' for Active; 'I' for Inactive)
REMARK    1  A    between atoms: C_1  and  C_2
REMARK    2  A    between atoms: C_9  and  N_14
REMARK    3  A    between atoms: C_10  and  C_11
REMARK    4  A    between atoms: C_15  and  C_17
REMARK    5  A    between atoms: N_20  and  S_23
REMARK    6  A    between atoms: S_23  and  C_26
REMARK                            x       y       z     vdW  Elec       q    Type
REMARK                         _______ _______ _______ _____ _____    ______ ____
ROOT
ATOM      1  N   UNL     1       4.609   0.897   4.420  0.00  0.00    -0.279 N 
ATOM      2  C   UNL     1       5.893   1.106   4.068  0.00  0.00    +0.221 C 
ATOM      3  O   UNL     1       6.168   1.401   2.925  0.00  0.00    -0.275 OA
ATOM      4  H   UNL     1       4.389   0.661   5.335  0.00  0.00    +0.155 HD
ENDROOT
BRANCH   1  12
ATOM      5  C   UNL     1      -0.758   1.595  -1.227  0.00  0.00    +0.008 C 
ATOM      6  C   UNL     1      -0.013   1.086   0.008  0.00  0.00    -0.009 C 
ATOM      7  C   UNL     1      -0.714   1.583   1.276  0.00  0.00    +0.008 C 
ATOM      8  C   UNL     1      -0.129   0.880   2.502  0.00  0.00    +0.037 C 
ATOM      9  C   UNL     1       1.387   1.034   2.479  0.00  0.00    -0.023 A 
ATOM     10  C   UNL     1       2.035   1.365   1.342  0.00  0.00    -0.004 A 
ATOM     11  S   UNL     1       3.745   1.427   1.797  0.00  0.00    -0.077 S 
ATOM     12  C   UNL     1       3.602   1.019   3.475  0.00  0.00    +0.084 A 
ATOM     13  C   UNL     1       2.236   0.845   3.643  0.00  0.00    +0.068 A 
ATOM     14  C   UNL     1       1.427   1.620  -0.003  0.00  0.00    +0.046 C 
BRANCH  13  15
ATOM     15  C   UNL     1       1.670   0.483   4.947  0.00  0.00    +0.244 C 
ATOM     16  O   UNL     1       1.335   1.355   5.727  0.00  0.00    -0.270 OA
ATOM     17  N   UNL     1       1.521  -0.814   5.280  0.00  0.00    -0.325 N 
ATOM     18  H   UNL     1       1.788  -1.508   4.658  0.00  0.00    +0.145 HD
ATOM     19  H   UNL     1       1.147  -1.053   6.143  0.00  0.00    +0.145 HD
ENDBRANCH  13  15
ENDBRANCH   1  12
BRANCH   2  20
ATOM     20  C   UNL     1       6.987   0.974   5.096  0.00  0.00    +0.078 C 
ATOM     21  C   UNL     1       6.746   1.973   6.230  0.00  0.00    +0.030 C 
ATOM     22  C   UNL     1       7.841   1.812   7.289  0.00  0.00    +0.110 C 
ATOM     23  N   UNL     1       9.151   1.943   6.638  0.00  0.00    -0.177 NA
ATOM     24  C   UNL     1       9.453   1.092   5.479  0.00  0.00    +0.110 C 
ATOM     25  C   UNL     1       8.340   1.261   4.440  0.00  0.00    +0.030 C 
BRANCH  23  26
ATOM     26  S   UNL     1      10.267   3.030   7.200  0.00  0.00    +0.061 S 
ATOM     27  O   UNL     1       9.953   3.266   8.566  0.00  0.00    -0.153 OA
ATOM     28  O   UNL     1      11.541   2.557   6.783  0.00  0.00    -0.153 OA
BRANCH  26  29
ATOM     29  C   UNL     1       9.990   4.548   6.350  0.00  0.00    +0.106 A 
ATOM     30  C   UNL     1      10.649   4.805   5.162  0.00  0.00    +0.031 A 
ATOM     31  C   UNL     1      10.429   5.993   4.492  0.00  0.00    +0.040 A 
ATOM     32  C   UNL     1       9.555   6.931   5.016  0.00  0.00    +0.124 A 
ATOM     33  C   UNL     1       8.900   6.675   6.208  0.00  0.00    +0.040 A 
ATOM     34  C   UNL     1       9.118   5.484   6.874  0.00  0.00    +0.031 A 
ATOM     35  F   UNL     1       9.342   8.095   4.364  0.00  0.00    -0.205 F 
ENDBRANCH  26  29
ENDBRANCH  23  26
ENDBRANCH   2  20
TORSDOF 5
