REMARK  Name = ZINC14275986
REMARK  6 active torsions:
REMARK  status: ('A' for Active; 'I' for Inactive)
REMARK    1  A    between atoms: C_3  and  C_9
REMARK    2  A    between atoms: C_12  and  C_14
REMARK    3  A    between atoms: N_16  and  C_17
REMARK    4  A    between atoms: C_17  and  N_19
REMARK    5  A    between atoms: N_19  and  C_20
REMARK    6  A    between atoms: C_23  and  C_27
REMARK                            x       y       z     vdW  Elec       q    Type
REMARK                         _______ _______ _______ _____ _____    ______ ____
ROOT
ATOM      1  C   UNL     1      -1.175   1.525  -0.463  0.00  0.00    +0.285 C 
ATOM      2  O   UNL     1      -1.200   2.719  -0.695  0.00  0.00    -0.266 OA
ATOM      3  N   UNL     1      -0.000   0.909  -0.224  0.00  0.00    -0.261 N 
ATOM      4  H   UNL     1       0.019  -0.043  -0.039  0.00  0.00    +0.157 HD
ENDROOT
BRANCH   1   8
ATOM      5  C   UNL     1      -3.827  -0.922  -0.264  0.00  0.00    +0.137 A 
ATOM      6  C   UNL     1      -4.572   0.185  -0.553  0.00  0.00    +0.051 A 
ATOM      7  C   UNL     1      -3.686   1.260  -0.664  0.00  0.00    +0.055 A 
ATOM      8  C   UNL     1      -2.421   0.757  -0.443  0.00  0.00    +0.190 A 
ATOM      9  O   UNL     1      -2.534  -0.566  -0.200  0.00  0.00    -0.450 OA
BRANCH   5  12
ATOM     10  C   UNL     1      -5.910  -3.774   1.012  0.00  0.00    +0.002 A 
ATOM     11  C   UNL     1      -5.417  -2.499   0.826  0.00  0.00    +0.013 A 
ATOM     12  C   UNL     1      -4.356  -2.285  -0.056  0.00  0.00    +0.037 A 
ATOM     13  C   UNL     1      -3.793  -3.368  -0.738  0.00  0.00    +0.070 A 
ATOM     14  C   UNL     1      -4.294  -4.640  -0.538  0.00  0.00    +0.060 A 
ATOM     15  C   UNL     1      -5.349  -4.842   0.335  0.00  0.00    +0.021 A 
ATOM     16 CL   UNL     1      -3.598  -5.987  -1.383  0.00  0.00    -0.082 Cl
ATOM     17 CL   UNL     1      -2.471  -3.114  -1.834  0.00  0.00    -0.081 Cl
ENDBRANCH   5  12
ENDBRANCH   1   8
BRANCH   3  18
ATOM     18  C   UNL     1       1.148   1.615  -0.248  0.00  0.00    +0.141 C 
ATOM     19  S   UNL     1       1.113   3.295  -0.574  0.00  0.00    -0.018 S 
BRANCH  18  20
ATOM     20  N   UNL     1       2.323   0.998  -0.015  0.00  0.00    -0.295 N 
ATOM     21  H   UNL     1       2.338   0.059   0.232  0.00  0.00    +0.154 HD
BRANCH  20  22
ATOM     22  C   UNL     1       3.522   1.710  -0.128  0.00  0.00    +0.051 A 
ATOM     23  C   UNL     1       3.649   2.958   0.469  0.00  0.00    +0.025 A 
ATOM     24  C   UNL     1       4.834   3.658   0.356  0.00  0.00    +0.014 A 
ATOM     25  C   UNL     1       5.894   3.119  -0.351  0.00  0.00    +0.056 A 
ATOM     26  C   UNL     1       5.771   1.878  -0.946  0.00  0.00    +0.034 A 
ATOM     27  C   UNL     1       4.590   1.169  -0.833  0.00  0.00    +0.063 A 
ATOM     28 CL   UNL     1       4.439  -0.393  -1.575  0.00  0.00    -0.082 Cl
BRANCH  25  29
ATOM     29  C   UNL     1       7.185   3.887  -0.471  0.00  0.00    +0.417 C 
ATOM     30  F   UNL     1       8.028   3.551   0.594  0.00  0.00    -0.166 F 
ATOM     31  F   UNL     1       7.810   3.562  -1.680  0.00  0.00    -0.166 F 
ATOM     32  F   UNL     1       6.916   5.259  -0.439  0.00  0.00    -0.166 F 
ENDBRANCH  25  29
ENDBRANCH  20  22
ENDBRANCH  18  20
ENDBRANCH   3  18
TORSDOF 6
