REMARK  Name = ZINC22809656
REMARK  11 active torsions:
REMARK  status: ('A' for Active; 'I' for Inactive)
REMARK    1  A    between atoms: C_1  and  C_2
REMARK    2  A    between atoms: C_2  and  C_3
REMARK    3  A    between atoms: C_7  and  C_36
REMARK    4  A    between atoms: C_8  and  N_9
REMARK    5  A    between atoms: C_10  and  C_12
REMARK    6  A    between atoms: N_14  and  C_15
REMARK    7  A    between atoms: C_15  and  C_16
REMARK    8  A    between atoms: C_16  and  C_18
REMARK    9  A    between atoms: C_16  and  N_29
REMARK   10  A    between atoms: N_27  and  C_28
REMARK   11  A    between atoms: N_32  and  C_35
REMARK                            x       y       z     vdW  Elec       q    Type
REMARK                         _______ _______ _______ _____ _____    ______ ____
ROOT
ATOM      1  C   UNL     1       1.923   2.398   2.162  0.00  0.00    +0.104 C 
ENDROOT
BRANCH   1   2
ATOM      2  C   UNL     1       3.291   2.775   1.655  0.00  0.00    -0.028 A 
ATOM      3  C   UNL     1       3.770   2.224   0.480  0.00  0.00    +0.007 A 
ATOM      4  C   UNL     1       5.021   2.573   0.016  0.00  0.00    +0.024 A 
ATOM      5  C   UNL     1       5.814   3.471   0.732  0.00  0.00    +0.033 A 
ATOM      6  C   UNL     1       5.331   4.017   1.907  0.00  0.00    -0.026 A 
ATOM      7  C   UNL     1       4.070   3.666   2.365  0.00  0.00    +0.010 A 
ATOM      8  C   UNL     1       6.133   5.001   2.721  0.00  0.00    +0.038 C 
ATOM      9  C   UNL     1       7.598   4.963   2.278  0.00  0.00    +0.024 C 
ATOM     10  C   UNL     1       7.628   5.021   0.745  0.00  0.00    +0.105 C 
ATOM     11  N   UNL     1       7.075   3.771   0.218  0.00  0.00    -0.333 N 
ATOM     12  C   UNL     1       7.056   3.782  -1.250  0.00  0.00    +0.129 C 
ENDBRANCH   1   2
BRANCH   1  13
ATOM     13  N   UNL     1       1.958   1.028   2.692  0.00  0.00    -0.297 NA
ATOM     14  C   UNL     1       3.155   0.813   3.517  0.00  0.00    +0.066 C 
ATOM     15  C   UNL     1       3.113  -0.596   4.113  0.00  0.00    -0.064 C 
ATOM     16  N   UNL     1       3.041  -1.583   3.027  0.00  0.00    +0.379 N 
ATOM     17  C   UNL     1       1.844  -1.368   2.202  0.00  0.00    -0.064 C 
ATOM     18  C   UNL     1       1.886   0.041   1.606  0.00  0.00    +0.066 C 
ATOM     19  C   UNL     1       3.076  -2.953   3.557  0.00  0.00    -0.096 C 
ATOM     20  H   UNL     1       3.925  -1.448   2.386  0.00  0.00    -0.082 HD
ENDBRANCH   1  13
BRANCH   1  21
ATOM     21  C   UNL     1       0.914   2.475   1.014  0.00  0.00    +0.128 C 
BRANCH  21  24
ATOM     22  C   UNL     1      -1.460   2.055   0.659  0.00  0.00    +0.299 C 
ATOM     23  O   UNL     1      -1.344   2.514  -0.459  0.00  0.00    -0.265 OA
ATOM     24  N   UNL     1      -0.390   1.993   1.476  0.00  0.00    -0.306 N 
ATOM     25  H   UNL     1      -0.496   1.581   2.491  0.00  0.00    +0.149 HD
BRANCH  22  27
ATOM     26  N   UNL     1      -3.857   1.621   0.311  0.00  0.00    -0.277 N 
ATOM     27  C   UNL     1      -2.788   1.559   1.128  0.00  0.00    +0.303 C 
ATOM     28  O   UNL     1      -2.904   1.100   2.246  0.00  0.00    -0.265 OA
ATOM     29  H   UNL     1      -3.756   2.051  -0.696  0.00  0.00    +0.155 HD
BRANCH  26  35
ATOM     30  C   UNL     1      -6.213   1.964   0.715  0.00  0.00    -0.026 A 
ATOM     31  C   UNL     1      -7.435   1.484   1.142  0.00  0.00    +0.005 A 
ATOM     32  C   UNL     1      -7.548   0.183   1.597  0.00  0.00    +0.001 A 
ATOM     33  C   UNL     1      -6.438  -0.641   1.627  0.00  0.00    +0.005 A 
ATOM     34  C   UNL     1      -5.213  -0.170   1.196  0.00  0.00    -0.029 A 
ATOM     35  C   UNL     1      -5.096   1.139   0.743  0.00  0.00    +0.040 A 
ATOM     36  C   UNL     1      -4.006  -1.070   1.224  0.00  0.00    +0.045 C 
BRANCH  30  38
ATOM     37  C   UNL     1      -6.219   3.401  -1.306  0.00  0.00    +0.009 C 
ATOM     38  C   UNL     1      -6.091   3.382   0.218  0.00  0.00    +0.033 C 
ENDBRANCH  30  38
ENDBRANCH  26  35
ENDBRANCH  22  27
ENDBRANCH  21  24
ENDBRANCH   1  21
TORSDOF 7
