REMARK  Name = ZINC04372754
REMARK  10 active torsions:
REMARK  status: ('A' for Active; 'I' for Inactive)
REMARK    1  A    between atoms: C_1  and  C_2
REMARK    2  A    between atoms: C_2  and  C_3
REMARK    3  A    between atoms: C_3  and  C_4
REMARK    4  A    between atoms: C_4  and  O_5
REMARK    5  A    between atoms: O_5  and  C_6
REMARK    6  A    between atoms: C_9  and  O_12
REMARK    7  A    between atoms: O_12  and  C_13
REMARK    8  A    between atoms: C_13  and  C_14
REMARK    9  A    between atoms: N_16  and  N_17
REMARK   10  A    between atoms: C_21  and  C_24
REMARK                            x       y       z     vdW  Elec       q    Type
REMARK                         _______ _______ _______ _____ _____    ______ ____
ROOT
ATOM      1  C   UNL     1       3.834   5.776   2.329  0.00  0.00    +0.326 C 
ENDROOT
BRANCH   1   2
ATOM      2  C   UNL     1       3.709   4.294   2.570  0.00  0.00    +0.270 C 
ATOM      3  O   UNL     1       4.303   3.777   3.493  0.00  0.00    -0.270 OA
ATOM      4  N   UNL     1       2.938   3.542   1.759  0.00  0.00    -0.204 N 
ATOM      5  H   UNL     1       2.463   3.955   1.021  0.00  0.00    +0.177 HD
BRANCH   4   6
ATOM      6  N   UNL     1       2.822   2.164   1.983  0.00  0.00    -0.189 NA
ATOM      7  C   UNL     1       2.011   1.467   1.279  0.00  0.00    +0.037 C 
ATOM      8  C   UNL     1       1.064   2.130   0.304  0.00  0.00    +0.053 C 
ATOM      9  C   UNL     1      -0.354   1.616   0.576  0.00  0.00    +0.009 C 
ATOM     10  C   UNL     1      -0.359   0.087   0.519  0.00  0.00    -0.013 C 
ATOM     11  C   UNL     1       0.525  -0.476   1.633  0.00  0.00    +0.009 C 
ATOM     12  C   UNL     1       1.976  -0.040   1.401  0.00  0.00    +0.053 C 
ATOM     13  C   UNL     1      -1.790  -0.423   0.699  0.00  0.00    +0.007 C 
ENDBRANCH   4   6
ENDBRANCH   1   2
BRANCH   1  14
ATOM     14  O   UNL     1       4.699   6.347   3.313  0.00  0.00    -0.483 OA
BRANCH  14  18
ATOM     15  C   UNL     1       5.369  10.414   3.085  0.00  0.00    +0.121 A 
ATOM     16  C   UNL     1       5.973   9.667   4.085  0.00  0.00    +0.049 A 
ATOM     17  C   UNL     1       5.749   8.306   4.161  0.00  0.00    +0.049 A 
ATOM     18  C   UNL     1       4.920   7.687   3.238  0.00  0.00    +0.121 A 
ATOM     19  C   UNL     1       4.320   8.434   2.235  0.00  0.00    +0.049 A 
ATOM     20  C   UNL     1       4.540   9.795   2.161  0.00  0.00    +0.049 A 
BRANCH  15  21
ATOM     21  O   UNL     1       5.590  11.754   3.010  0.00  0.00    -0.492 OA
BRANCH  21  22
ATOM     22  C   UNL     1       4.936  12.461   1.954  0.00  0.00    +0.229 C 
BRANCH  22  23
ATOM     23  C   UNL     1       5.301  13.945   2.031  0.00  0.00    +0.041 C 
BRANCH  23  25
ATOM     24  C   UNL     1       4.967  16.186   0.978  0.00  0.00    +0.004 C 
ATOM     25  C   UNL     1       4.601  14.702   0.901  0.00  0.00    -0.000 C 
ENDBRANCH  23  25
ENDBRANCH  22  23
ENDBRANCH  21  22
ENDBRANCH  15  21
ENDBRANCH  14  18
ENDBRANCH   1  14
TORSDOF 8
