REMARK  Name = ZINC40815555
REMARK  8 active torsions:
REMARK  status: ('A' for Active; 'I' for Inactive)
REMARK    1  A    between atoms: C_1  and  C_2
REMARK    2  A    between atoms: C_5  and  N_8
REMARK    3  A    between atoms: C_9  and  C_11
REMARK    4  A    between atoms: C_12  and  C_37
REMARK    5  A    between atoms: N_20  and  N_21
REMARK    6  A    between atoms: C_22  and  C_24
REMARK    7  A    between atoms: C_24  and  C_25
REMARK    8  A    between atoms: C_24  and  C_31
REMARK                            x       y       z     vdW  Elec       q    Type
REMARK                         _______ _______ _______ _____ _____    ______ ____
ROOT
ATOM      1  C   UNL     1      -2.193  -6.149   2.700  0.00  0.00    +0.193 A 
ATOM      2  C   UNL     1      -1.646  -7.037   3.584  0.00  0.00    +0.009 A 
ATOM      3  C   UNL     1      -1.385  -8.204   2.855  0.00  0.00    +0.042 A 
ATOM      4  C   UNL     1      -1.782  -7.978   1.558  0.00  0.00    +0.115 A 
ATOM      5  O   UNL     1      -2.271  -6.742   1.487  0.00  0.00    -0.454 OA
ATOM      6  C   UNL     1      -1.652  -9.011   0.468  0.00  0.00    +0.075 C 
ATOM      7  C   UNL     1      -0.604 -10.050   0.875  0.00  0.00    +0.014 C 
ATOM      8  C   UNL     1      -0.919 -10.622   2.261  0.00  0.00    +0.058 C 
ATOM      9  C   UNL     1      -0.802  -9.497   3.279  0.00  0.00    +0.070 C 
ATOM     10  N   UNL     1      -0.233  -9.658   4.433  0.00  0.00    -0.184 NA
ATOM     11  C   UNL     1      -1.377  -6.807   5.049  0.00  0.00    +0.048 C 
ENDROOT
BRANCH   1  13
ATOM     12  N   UNL     1      -3.159  -4.006   2.053  0.00  0.00    -0.279 N 
ATOM     13  C   UNL     1      -2.628  -4.784   3.016  0.00  0.00    +0.284 C 
ATOM     14  O   UNL     1      -2.510  -4.355   4.149  0.00  0.00    -0.266 OA
ATOM     15  H   UNL     1      -3.321  -4.371   1.169  0.00  0.00    +0.155 HD
BRANCH  12  20
ATOM     16  C   UNL     1      -4.454   1.403   3.168  0.00  0.00    +0.044 C 
ATOM     17  C   UNL     1      -4.110  -0.034   2.871  0.00  0.00    -0.050 A 
ATOM     18  C   UNL     1      -4.793  -0.717   1.882  0.00  0.00    +0.005 A 
ATOM     19  C   UNL     1      -4.481  -2.034   1.608  0.00  0.00    +0.023 A 
ATOM     20  C   UNL     1      -3.478  -2.672   2.327  0.00  0.00    +0.034 A 
ATOM     21  C   UNL     1      -2.794  -1.984   3.320  0.00  0.00    +0.023 A 
ATOM     22  C   UNL     1      -3.107  -0.665   3.586  0.00  0.00    +0.005 A 
ENDBRANCH  12  20
ENDBRANCH   1  13
BRANCH  10  23
ATOM     23  N   UNL     1       0.302 -10.905   4.782  0.00  0.00    -0.206 N 
ATOM     24  C   UNL     1       0.893 -11.073   5.981  0.00  0.00    +0.244 C 
ATOM     25  O   UNL     1       0.962 -10.145   6.759  0.00  0.00    -0.273 OA
ATOM     26  H   UNL     1       0.247 -11.647   4.160  0.00  0.00    +0.177 HD
BRANCH  24  27
ATOM     27  C   UNL     1       1.469 -12.414   6.356  0.00  0.00    +0.136 C 
BRANCH  27  28
ATOM     28  C   UNL     1       2.067 -12.336   7.737  0.00  0.00    -0.031 A 
ATOM     29  C   UNL     1       3.375 -12.732   7.948  0.00  0.00    +0.005 A 
ATOM     30  C   UNL     1       3.923 -12.660   9.214  0.00  0.00    +0.000 A 
ATOM     31  C   UNL     1       3.165 -12.191  10.271  0.00  0.00    +0.000 A 
ATOM     32  C   UNL     1       1.857 -11.794  10.060  0.00  0.00    +0.000 A 
ATOM     33  C   UNL     1       1.310 -11.862   8.792  0.00  0.00    +0.005 A 
ENDBRANCH  27  28
BRANCH  27  34
ATOM     34  C   UNL     1       0.377 -13.452   6.340  0.00  0.00    -0.031 A 
ATOM     35  C   UNL     1      -0.792 -13.236   7.045  0.00  0.00    +0.005 A 
ATOM     36  C   UNL     1      -1.794 -14.189   7.030  0.00  0.00    +0.000 A 
ATOM     37  C   UNL     1      -1.627 -15.357   6.310  0.00  0.00    +0.000 A 
ATOM     38  C   UNL     1      -0.458 -15.572   5.604  0.00  0.00    +0.000 A 
ATOM     39  C   UNL     1       0.542 -14.618   5.615  0.00  0.00    +0.005 A 
ENDBRANCH  27  34
ENDBRANCH  24  27
ENDBRANCH  10  23
TORSDOF 6
