REMARK  Name = ZINC63204393
REMARK  7 active torsions:
REMARK  status: ('A' for Active; 'I' for Inactive)
REMARK    1  A    between atoms: C_7  and  C_10
REMARK    2  A    between atoms: C_10  and  C_12
REMARK    3  A    between atoms: C_10  and  C_26
REMARK    4  A    between atoms: C_12  and  N_13
REMARK    5  A    between atoms: N_13  and  C_14
REMARK    6  A    between atoms: C_17  and  C_23
REMARK    7  A    between atoms: C_19  and  N_20
REMARK                            x       y       z     vdW  Elec       q    Type
REMARK                         _______ _______ _______ _____ _____    ______ ____
ROOT
ATOM      1  C   UNL     1       1.334  -4.572   0.810  0.00  0.00    +0.114 C 
ENDROOT
BRANCH   1   2
ATOM      2  N   UNL     1       0.210  -5.489   1.016  0.00  0.00    -0.341 N 
ATOM      3  H   UNL     1      -0.467  -5.589   0.329  0.00  0.00    +0.146 HD
BRANCH   2   4
ATOM      4  C   UNL     1       0.115  -6.217   2.197  0.00  0.00    +0.058 A 
ATOM      5  C   UNL     1       1.148  -6.168   3.129  0.00  0.00    +0.026 A 
ATOM      6  C   UNL     1       1.057  -6.886   4.299  0.00  0.00    +0.015 A 
ATOM      7  C   UNL     1      -0.075  -7.667   4.551  0.00  0.00    +0.039 A 
ATOM      8  C   UNL     1      -1.111  -7.715   3.614  0.00  0.00    +0.047 A 
ATOM      9  C   UNL     1      -1.016  -6.989   2.448  0.00  0.00    +0.148 A 
BRANCH   7  10
ATOM     10  C   UNL     1      -0.177  -8.439   5.804  0.00  0.00    +0.242 C 
ATOM     11  O   UNL     1      -1.162  -9.117   6.022  0.00  0.00    -0.270 OA
ATOM     12  N   UNL     1       0.823  -8.392   6.707  0.00  0.00    -0.325 N 
ATOM     13  H   UNL     1       1.609  -7.851   6.533  0.00  0.00    +0.145 HD
ATOM     14  H   UNL     1       0.756  -8.900   7.531  0.00  0.00    +0.145 HD
ENDBRANCH   7  10
BRANCH   9  15
ATOM     15  N   UNL     1      -2.114  -7.035   1.457  0.00  0.00    +0.058 N 
ATOM     16  O   UNL     1      -2.419  -6.037   0.846  0.00  0.00    -0.126 OA
ATOM     17  O   UNL     1      -2.707  -8.070   1.258  0.00  0.00    -0.126 OA
ENDBRANCH   9  15
ENDBRANCH   2   4
ENDBRANCH   1   2
BRANCH   1  18
ATOM     18  C   UNL     1       1.201  -3.903  -0.559  0.00  0.00    +0.071 C 
BRANCH  18  25
ATOM     19  C   UNL     1       1.089   0.629  -1.270  0.00  0.00    +0.001 A 
ATOM     20  C   UNL     1       2.359   1.215  -1.363  0.00  0.00    +0.002 A 
ATOM     21  C   UNL     1       3.500   0.503  -1.252  0.00  0.00    +0.026 A 
ATOM     22  C   UNL     1       3.453  -0.901  -1.031  0.00  0.00    +0.043 A 
ATOM     23  N   UNL     1       4.401  -1.795  -0.892  0.00  0.00    -0.380 N 
ATOM     24  C   UNL     1       3.780  -3.108  -0.686  0.00  0.00    +0.145 C 
ATOM     25  C   UNL     1       2.287  -2.870  -0.722  0.00  0.00    -0.032 C 
ATOM     26  C   UNL     1       2.123  -1.544  -0.929  0.00  0.00    -0.000 A 
ATOM     27  C   UNL     1       0.931  -0.698  -1.061  0.00  0.00    +0.010 A 
ATOM     28  H   UNL     1       5.355  -1.618  -0.921  0.00  0.00    +0.160 HD
ENDBRANCH  18  25
BRANCH  18  29
ATOM     29  C   UNL     1       1.331  -4.943  -1.642  0.00  0.00    -0.002 A 
ATOM     30  C   UNL     1       0.440  -5.290  -2.603  0.00  0.00    +0.012 A 
ATOM     31  C   UNL     1       0.778  -6.284  -3.502  0.00  0.00    +0.008 A 
ATOM     32  C   UNL     1       1.990  -6.882  -3.396  0.00  0.00    +0.045 A 
ATOM     33  S   UNL     1       2.701  -6.031  -1.997  0.00  0.00    -0.101 S 
ENDBRANCH  18  29
ENDBRANCH   1  18
TORSDOF 7
