REMARK  Name = ZINC02349587
REMARK  9 active torsions:
REMARK  status: ('A' for Active; 'I' for Inactive)
REMARK    1  A    between atoms: C_1  and  C_2
REMARK    2  A    between atoms: C_5  and  N_8
REMARK    3  A    between atoms: C_9  and  C_28
REMARK    4  A    between atoms: C_12  and  S_13
REMARK    5  A    between atoms: S_13  and  C_14
REMARK    6  A    between atoms: C_14  and  C_15
REMARK    7  A    between atoms: N_17  and  C_18
REMARK    8  A    between atoms: C_21  and  S_24
REMARK    9  A    between atoms: S_24  and  N_27
REMARK                            x       y       z     vdW  Elec       q    Type
REMARK                         _______ _______ _______ _____ _____    ______ ____
ROOT
ATOM      1  N   UNL     1       2.057   0.658   0.000  0.00  0.00    -0.269 N 
ATOM      2  C   UNL     1       1.212   1.747   0.024  0.00  0.00    +0.189 A 
ATOM      3  N   UNL     1      -0.016   1.281   0.038  0.00  0.00    -0.126 NA
ATOM      4  N   UNL     1       0.002  -0.004   0.024  0.00  0.00    -0.122 NA
ATOM      5  C   UNL     1       1.243  -0.440   0.001  0.00  0.00    +0.197 A 
ENDROOT
BRANCH   1  10
ATOM      6  C   UNL     1       7.732   0.721  -0.083  0.00  0.00    +0.044 C 
ATOM      7  C   UNL     1       6.225   0.704  -0.061  0.00  0.00    -0.050 A 
ATOM      8  C   UNL     1       5.525   0.201  -1.141  0.00  0.00    +0.005 A 
ATOM      9  C   UNL     1       4.144   0.184  -1.124  0.00  0.00    +0.026 A 
ATOM     10  C   UNL     1       3.459   0.674  -0.020  0.00  0.00    +0.051 A 
ATOM     11  C   UNL     1       4.165   1.184   1.061  0.00  0.00    +0.026 A 
ATOM     12  C   UNL     1       5.546   1.193   1.040  0.00  0.00    +0.005 A 
ENDBRANCH   1  10
BRANCH   2  13
ATOM     13  C   UNL     1       1.612   3.169   0.033  0.00  0.00    +0.126 A 
ATOM     14  C   UNL     1       0.638   4.171   0.053  0.00  0.00    +0.142 A 
ATOM     15  N   UNL     1       1.001   5.439   0.066  0.00  0.00    -0.260 NA
ATOM     16  C   UNL     1       2.284   5.762   0.050  0.00  0.00    +0.130 A 
ATOM     17  C   UNL     1       3.252   4.774   0.025  0.00  0.00    +0.131 A 
ATOM     18  N   UNL     1       2.901   3.501   0.017  0.00  0.00    -0.249 NA
ENDBRANCH   2  13
BRANCH   5  19
ATOM     19  S   UNL     1       1.759  -2.124  -0.024  0.00  0.00    -0.076 S 
BRANCH  19  20
ATOM     20  C   UNL     1       0.147  -2.947  -0.008  0.00  0.00    +0.173 C 
BRANCH  20  21
ATOM     21  C   UNL     1       0.346  -4.441  -0.026  0.00  0.00    +0.227 C 
ATOM     22  O   UNL     1       1.467  -4.904  -0.048  0.00  0.00    -0.275 OA
ATOM     23  N   UNL     1      -0.722  -5.263  -0.019  0.00  0.00    -0.285 N 
ATOM     24  H   UNL     1      -1.616  -4.896   0.066  0.00  0.00    +0.155 HD
BRANCH  23  25
ATOM     25  C   UNL     1      -0.542  -6.646  -0.133  0.00  0.00    +0.034 A 
ATOM     26  C   UNL     1      -1.472  -7.415  -0.820  0.00  0.00    +0.025 A 
ATOM     27  C   UNL     1      -1.288  -8.778  -0.937  0.00  0.00    +0.030 A 
ATOM     28  C   UNL     1      -0.184  -9.380  -0.360  0.00  0.00    +0.105 A 
ATOM     29  C   UNL     1       0.741  -8.618   0.330  0.00  0.00    +0.030 A 
ATOM     30  C   UNL     1       0.565  -7.253   0.445  0.00  0.00    +0.025 A 
BRANCH  28  31
ATOM     31  S   UNL     1       0.043 -11.121  -0.505  0.00  0.00    +0.056 S 
ATOM     32  O   UNL     1      -0.674 -11.530  -1.661  0.00  0.00    -0.153 OA
ATOM     33  O   UNL     1       1.434 -11.364  -0.345  0.00  0.00    -0.153 OA
BRANCH  31  34
ATOM     34  N   UNL     1      -0.711 -11.823   0.792  0.00  0.00    -0.204 NA
ATOM     35  H   UNL     1      -1.087 -12.714   0.711  0.00  0.00    +0.144 HD
ATOM     36  H   UNL     1      -0.777 -11.344   1.633  0.00  0.00    +0.144 HD
ENDBRANCH  31  34
ENDBRANCH  28  31
ENDBRANCH  23  25
ENDBRANCH  20  21
ENDBRANCH  19  20
ENDBRANCH   5  19
TORSDOF 8
