REMARK  Name = ZINC61098224
REMARK  7 active torsions:
REMARK  status: ('A' for Active; 'I' for Inactive)
REMARK    1  A    between atoms: C_1  and  C_2
REMARK    2  A    between atoms: C_4  and  N_9
REMARK    3  A    between atoms: C_10  and  C_12
REMARK    4  A    between atoms: C_13  and  N_21
REMARK    5  A    between atoms: C_14  and  C_18
REMARK    6  A    between atoms: C_18  and  C_19
REMARK    7  A    between atoms: C_18  and  C_20
REMARK                            x       y       z     vdW  Elec       q    Type
REMARK                         _______ _______ _______ _____ _____    ______ ____
ROOT
ATOM      1  N   UNL     1       0.028  -2.771  -2.420  0.00  0.00    -0.280 N 
ATOM      2  C   UNL     1       0.148  -4.113  -2.429  0.00  0.00    +0.270 C 
ATOM      3  O   UNL     1       0.162  -4.729  -1.380  0.00  0.00    -0.268 OA
ATOM      4  H   UNL     1      -0.060  -2.286  -3.256  0.00  0.00    +0.155 HD
ENDROOT
BRANCH   1   8
ATOM      5  C   UNL     1       1.621  -2.352   2.212  0.00  0.00    +0.047 C 
ATOM      6  C   UNL     1       0.794  -1.851   1.056  0.00  0.00    -0.014 A 
ATOM      7  C   UNL     1       0.792  -2.538  -0.141  0.00  0.00    +0.029 A 
ATOM      8  C   UNL     1       0.030  -2.075  -1.206  0.00  0.00    +0.034 A 
ATOM      9  C   UNL     1      -0.729  -0.921  -1.063  0.00  0.00    +0.026 A 
ATOM     10  C   UNL     1      -0.725  -0.237   0.136  0.00  0.00    +0.040 A 
ATOM     11  C   UNL     1       0.032  -0.703   1.198  0.00  0.00    +0.126 A 
ATOM     12  F   UNL     1       0.030  -0.035   2.373  0.00  0.00    -0.205 F 
ENDBRANCH   1   8
BRANCH   2  13
ATOM     13  C   UNL     1       0.262  -4.835  -3.709  0.00  0.00    +0.168 A 
ATOM     14  C   UNL     1       0.388  -6.238  -3.878  0.00  0.00    +0.078 A 
ATOM     15  C   UNL     1       0.460  -6.436  -5.221  0.00  0.00    +0.060 A 
ATOM     16  N   UNL     1       0.380  -5.213  -5.809  0.00  0.00    -0.279 N 
ATOM     17  H   UNL     1       0.405  -5.054  -6.766  0.00  0.00    +0.189 HD
ATOM     18  N   UNL     1       0.261  -4.298  -4.915  0.00  0.00    -0.167 NA
BRANCH  15  19
ATOM     19  C   UNL     1       0.601  -7.760  -5.925  0.00  0.00    +0.033 C 
ATOM     20  C   UNL     1      -0.597  -7.976  -6.852  0.00  0.00    +0.014 C 
ATOM     21  C   UNL     1       1.890  -7.765  -6.750  0.00  0.00    +0.014 C 
ENDBRANCH  15  19
BRANCH  14  22
ATOM     22  N   UNL     1       0.430  -7.214  -2.872  0.00  0.00    -0.355 N 
ATOM     23  H   UNL     1       0.370  -6.953  -1.940  0.00  0.00    +0.142 HD
ATOM     24  H   UNL     1       0.520  -8.151  -3.109  0.00  0.00    +0.142 HD
ENDBRANCH  14  22
ENDBRANCH   2  13
TORSDOF 4
