REMARK  Name = ZINC39503441
REMARK  8 active torsions:
REMARK  status: ('A' for Active; 'I' for Inactive)
REMARK    1  A    between atoms: C_1  and  C_2
REMARK    2  A    between atoms: C_2  and  C_3
REMARK    3  A    between atoms: C_2  and  S_4
REMARK    4  A    between atoms: S_4  and  C_7
REMARK    5  A    between atoms: C_14  and  C_25
REMARK    6  A    between atoms: N_17  and  C_18
REMARK    7  A    between atoms: C_23  and  O_24
REMARK    8  A    between atoms: C_30  and  O_31
REMARK                            x       y       z     vdW  Elec       q    Type
REMARK                         _______ _______ _______ _____ _____    ______ ____
ROOT
ATOM      1  C   UNL     1      -1.487  -2.413   0.294  0.00  0.00    +0.133 C 
ATOM      2  C   UNL     1      -0.965  -2.657   1.726  0.00  0.00    +0.028 C 
ATOM      3  C   UNL     1      -1.656  -3.938   2.232  0.00  0.00    +0.028 C 
ATOM      4  C   UNL     1      -2.577  -4.410   1.100  0.00  0.00    +0.037 C 
ATOM      5  C   UNL     1      -2.848  -3.154   0.247  0.00  0.00    +0.052 C 
ATOM      6  C   UNL     1      -3.891  -4.969   1.664  0.00  0.00    +0.035 C 
ATOM      7  C   UNL     1      -4.208  -6.140   0.693  0.00  0.00    +0.042 C 
ATOM      8  C   UNL     1      -2.789  -6.665   0.360  0.00  0.00    +0.114 C 
ATOM      9  N   UNL     1      -1.943  -5.456   0.299  0.00  0.00    -0.321 N 
ENDROOT
BRANCH   9  10
ATOM     10  C   UNL     1      -0.739  -5.332  -0.405  0.00  0.00    +0.072 A 
ATOM     11  C   UNL     1       0.463  -5.651   0.211  0.00  0.00    +0.027 A 
ATOM     12  C   UNL     1       1.650  -5.528  -0.487  0.00  0.00    +0.002 A 
ATOM     13  C   UNL     1       1.643  -5.089  -1.797  0.00  0.00    +0.004 A 
ATOM     14  C   UNL     1       0.449  -4.769  -2.417  0.00  0.00    +0.047 A 
ATOM     15  C   UNL     1      -0.745  -4.894  -1.727  0.00  0.00    +0.138 A 
BRANCH  15  16
ATOM     16  O   UNL     1      -1.921  -4.586  -2.338  0.00  0.00    -0.505 OA
ATOM     17  H   UNL     1      -2.185  -3.661  -2.238  0.00  0.00    +0.292 HD
ENDBRANCH  15  16
ENDBRANCH   9  10
BRANCH   7  18
ATOM     18  C   UNL     1      -5.030  -7.201   1.379  0.00  0.00    -0.001 A 
ATOM     19  C   UNL     1      -4.534  -7.844   2.497  0.00  0.00    +0.007 A 
ATOM     20  C   UNL     1      -5.287  -8.818   3.126  0.00  0.00    +0.001 A 
ATOM     21  C   UNL     1      -6.537  -9.152   2.638  0.00  0.00    +0.004 A 
ATOM     22  C   UNL     1      -7.037  -8.512   1.520  0.00  0.00    +0.046 A 
ATOM     23  C   UNL     1      -6.286  -7.530   0.891  0.00  0.00    +0.120 A 
BRANCH  23  24
ATOM     24  O   UNL     1      -6.778  -6.895  -0.206  0.00  0.00    -0.506 OA
ATOM     25  H   UNL     1      -6.557  -7.326  -1.042  0.00  0.00    +0.292 HD
ENDBRANCH  23  24
ENDBRANCH   7  18
BRANCH   1  26
ATOM     26  S   UNL     1      -1.721  -0.638  -0.002  0.00  0.00    -0.026 S 
ATOM     27  O   UNL     1      -2.510  -0.107   1.054  0.00  0.00    -0.174 OA
ATOM     28  O   UNL     1      -2.151  -0.459  -1.344  0.00  0.00    -0.174 OA
BRANCH  26  30
ATOM     29  C   UNL     1       0.856  -0.608  -0.918  0.00  0.00    +0.031 C 
ATOM     30  C   UNL     1      -0.037   0.019   0.154  0.00  0.00    +0.125 C 
ATOM     31  C   UNL     1      -0.064   1.538  -0.029  0.00  0.00    +0.031 C 
ENDBRANCH  26  30
ENDBRANCH   1  26
TORSDOF 6
