REMARK  Name = ZINC19927023
REMARK  8 active torsions:
REMARK  status: ('A' for Active; 'I' for Inactive)
REMARK    1  A    between atoms: C_1  and  N_2
REMARK    2  A    between atoms: N_2  and  C_3
REMARK    3  A    between atoms: N_2  and  C_4
REMARK    4  A    between atoms: C_7  and  C_10
REMARK    5  A    between atoms: N_11  and  N_12
REMARK    6  A    between atoms: C_13  and  C_15
REMARK    7  A    between atoms: C_16  and  C_26
REMARK    8  A    between atoms: C_26  and  N_27
REMARK                            x       y       z     vdW  Elec       q    Type
REMARK                         _______ _______ _______ _____ _____    ______ ____
ROOT
ATOM      1  C   UNL     1      -0.521   5.387  -0.047  0.00  0.00    +0.154 A 
ATOM      2  C   UNL     1       0.750   5.900  -0.019  0.00  0.00    +0.079 A 
ATOM      3  N   UNL     1       1.574   4.857   0.095  0.00  0.00    -0.135 NA
ATOM      4  N   UNL     1       0.888   3.772   0.142  0.00  0.00    -0.058 NA
ATOM      5  N   UNL     1      -0.371   4.026   0.065  0.00  0.00    -0.183 N 
ATOM      6  C   UNL     1      -1.404   3.083   0.084  0.00  0.00    +0.241 A 
ATOM      7  C   UNL     1      -1.237   1.627   0.092  0.00  0.00    +0.206 A 
ATOM      8  N   UNL     1      -2.420   1.079   0.116  0.00  0.00    -0.032 NA
ATOM      9  O   UNL     1      -3.381   2.119   0.119  0.00  0.00    -0.239 OA
ATOM     10  N   UNL     1      -2.680   3.350   0.095  0.00  0.00    -0.027 NA
ATOM     11  N   UNL     1      -0.024   0.947   0.082  0.00  0.00    -0.337 N 
ATOM     12  H   UNL     1      -0.010  -0.153   0.089  0.00  0.00    +0.144 HD
ATOM     13  H   UNL     1       0.921   1.509   0.066  0.00  0.00    +0.144 HD
ENDROOT
BRANCH   1  15
ATOM     14  N   UNL     1      -2.420   6.562   0.940  0.00  0.00    -0.202 N 
ATOM     15  C   UNL     1      -1.781   6.137  -0.167  0.00  0.00    +0.284 C 
ATOM     16  O   UNL     1      -2.245   6.373  -1.267  0.00  0.00    -0.267 OA
ATOM     17  H   UNL     1      -1.960   6.422   1.929  0.00  0.00    +0.178 HD
BRANCH  14  19
ATOM     18  C   UNL     1      -4.287   7.593   1.898  0.00  0.00    +0.138 C 
ATOM     19  N   UNL     1      -3.671   7.184   0.831  0.00  0.00    -0.187 NA
BRANCH  18  23
ATOM     20  C   UNL     1      -8.078   9.477   1.568  0.00  0.00    +0.029 A 
ATOM     21  C   UNL     1      -7.498   9.300   2.820  0.00  0.00    +0.024 A 
ATOM     22  C   UNL     1      -6.268   8.689   2.931  0.00  0.00    +0.011 A 
ATOM     23  C   UNL     1      -5.603   8.247   1.784  0.00  0.00    -0.005 A 
ATOM     24  C   UNL     1      -6.187   8.432   0.527  0.00  0.00    +0.011 A 
ATOM     25  C   UNL     1      -7.419   9.039   0.424  0.00  0.00    +0.024 A 
BRANCH  20  27
ATOM     26  C   UNL     1     -10.076  10.444   2.668  0.00  0.00    +0.129 C 
ATOM     27  N   UNL     1      -9.323  10.096   1.460  0.00  0.00    -0.336 N 
ATOM     28  C   UNL     1      -9.878  10.399   0.139  0.00  0.00    +0.129 C 
ENDBRANCH  20  27
ENDBRANCH  18  23
ENDBRANCH  14  19
ENDBRANCH   1  15
BRANCH   2  29
ATOM     29  C   UNL     1       1.139   7.353  -0.106  0.00  0.00    -0.018 C 
BRANCH  29  30
ATOM     30  N   UNL     1       1.331   7.725  -1.514  0.00  0.00    +0.383 N 
ATOM     31  C   UNL     1       2.478   7.015  -2.095  0.00  0.00    -0.078 C 
ATOM     32  C   UNL     1       2.559   7.314  -3.593  0.00  0.00    -0.019 C 
ATOM     33  C   UNL     1       2.711   8.823  -3.801  0.00  0.00    -0.004 C 
ATOM     34  C   UNL     1       1.529   9.542  -3.145  0.00  0.00    -0.019 C 
ATOM     35  C   UNL     1       1.478   9.179  -1.659  0.00  0.00    -0.078 C 
ATOM     36  H   UNL     1       0.432   7.421  -2.071  0.00  0.00    -0.081 HD
ENDBRANCH  29  30
ENDBRANCH   2  29
TORSDOF 6
