REMARK  Name = ZINC45621379
REMARK  8 active torsions:
REMARK  status: ('A' for Active; 'I' for Inactive)
REMARK    1  A    between atoms: C_1  and  C_2
REMARK    2  A    between atoms: C_2  and  C_3
REMARK    3  A    between atoms: C_2  and  C_4
REMARK    4  A    between atoms: C_4  and  C_5
REMARK    5  A    between atoms: C_5  and  C_7
REMARK    6  A    between atoms: C_5  and  N_19
REMARK    7  A    between atoms: N_9  and  C_10
REMARK    8  A    between atoms: C_13  and  N_17
REMARK                            x       y       z     vdW  Elec       q    Type
REMARK                         _______ _______ _______ _____ _____    ______ ____
ROOT
ATOM      1  C   UNL     1      -1.456  -1.847   0.045  0.00  0.00    +0.170 C 
ENDROOT
BRANCH   1   2
ATOM      2  N   UNL     1      -1.028  -2.112   1.421  0.00  0.00    -0.230 N 
ATOM      3  C   UNL     1      -1.613  -1.541   2.506  0.00  0.00    +0.227 C 
ATOM      4  O   UNL     1      -2.658  -0.927   2.531  0.00  0.00    -0.275 OA
ATOM      5  C   UNL     1      -0.706  -1.821   3.666  0.00  0.00    +0.091 C 
ATOM      6  C   UNL     1      -1.332  -2.056   5.025  0.00  0.00    +0.040 C 
ATOM      7  C   UNL     1      -0.256  -2.651   5.908  0.00  0.00    -0.030 C 
ATOM      8  C   UNL     1       0.834  -3.203   5.465  0.00  0.00    -0.030 C 
ATOM      9  C   UNL     1       1.179  -3.358   3.999  0.00  0.00    +0.040 C 
ATOM     10  C   UNL     1      -0.096  -3.183   3.213  0.00  0.00    +0.091 C 
ATOM     11  C   UNL     1      -0.013  -2.958   1.735  0.00  0.00    +0.227 C 
ATOM     12  O   UNL     1       0.800  -3.434   0.972  0.00  0.00    -0.275 OA
ENDBRANCH   1   2
BRANCH   1  13
ATOM     13  C   UNL     1      -2.855  -2.370  -0.155  0.00  0.00    +0.238 C 
ATOM     14  O   UNL     1      -3.438  -2.911   0.761  0.00  0.00    -0.273 OA
ATOM     15  N   UNL     1      -3.459  -2.237  -1.353  0.00  0.00    -0.284 N 
ATOM     16  H   UNL     1      -2.971  -1.864  -2.104  0.00  0.00    +0.155 HD
BRANCH  15  17
ATOM     17  C   UNL     1      -4.793  -2.636  -1.513  0.00  0.00    +0.036 A 
ATOM     18  C   UNL     1      -5.634  -1.923  -2.356  0.00  0.00    +0.045 A 
ATOM     19  C   UNL     1      -6.949  -2.316  -2.515  0.00  0.00    +0.065 A 
ATOM     20  C   UNL     1      -7.430  -3.425  -1.830  0.00  0.00    +0.062 A 
ATOM     21  C   UNL     1      -6.588  -4.139  -0.987  0.00  0.00    +0.065 A 
ATOM     22  C   UNL     1      -5.271  -3.748  -0.833  0.00  0.00    +0.045 A 
ATOM     23 CL   UNL     1      -7.187  -5.525  -0.130  0.00  0.00    -0.082 Cl
ATOM     24 CL   UNL     1      -8.002  -1.424  -3.569  0.00  0.00    -0.082 Cl
BRANCH  20  25
ATOM     25  N   UNL     1      -8.763  -3.824  -1.990  0.00  0.00    -0.356 N 
ATOM     26  H   UNL     1      -9.351  -3.326  -2.579  0.00  0.00    +0.142 HD
ATOM     27  H   UNL     1      -9.098  -4.599  -1.512  0.00  0.00    +0.142 HD
ENDBRANCH  20  25
ENDBRANCH  15  17
ENDBRANCH   1  13
BRANCH   1  28
ATOM     28  C   UNL     1      -1.433  -0.340  -0.214  0.00  0.00    +0.035 C 
BRANCH  28  30
ATOM     29  C   UNL     1       0.867  -0.421  -1.186  0.00  0.00    +0.007 C 
ATOM     30  C   UNL     1      -0.000   0.179  -0.078  0.00  0.00    -0.015 C 
ATOM     31  C   UNL     1       0.003   1.705  -0.199  0.00  0.00    +0.007 C 
ENDBRANCH  28  30
ENDBRANCH   1  28
TORSDOF 6
