REMARK  Name = ZINC65055163
REMARK  8 active torsions:
REMARK  status: ('A' for Active; 'I' for Inactive)
REMARK    1  A    between atoms: C_1  and  C_2
REMARK    2  A    between atoms: C_5  and  N_8
REMARK    3  A    between atoms: N_8  and  S_9
REMARK    4  A    between atoms: S_9  and  C_12
REMARK    5  A    between atoms: C_14  and  C_19
REMARK    6  A    between atoms: C_15  and  C_18
REMARK    7  A    between atoms: N_21  and  C_22
REMARK    8  A    between atoms: C_25  and  C_29
REMARK                            x       y       z     vdW  Elec       q    Type
REMARK                         _______ _______ _______ _____ _____    ______ ____
ROOT
ATOM      1  C   UNL     1       0.117  -6.722   0.947  0.00  0.00    +0.327 C 
ATOM      2  C   UNL     1       0.186  -7.628   2.164  0.00  0.00    +0.086 C 
ATOM      3  C   UNL     1       1.355  -8.289   2.008  0.00  0.00    +0.072 C 
ATOM      4  N   UNL     1       1.972  -7.893   0.873  0.00  0.00    -0.157 NA
ATOM      5  N   UNL     1       1.361  -7.035   0.225  0.00  0.00    -0.154 NA
ATOM      6  C   UNL     1       1.895  -9.320   2.965  0.00  0.00    +0.068 C 
ENDROOT
BRANCH   2   7
ATOM      7  C   UNL     1      -0.790  -7.757   3.256  0.00  0.00    +0.250 C 
ATOM      8  O   UNL     1      -0.584  -8.537   4.167  0.00  0.00    -0.270 OA
ATOM      9  N   UNL     1      -1.913  -7.011   3.248  0.00  0.00    -0.279 N 
ATOM     10  H   UNL     1      -2.049  -6.347   2.554  0.00  0.00    +0.155 HD
BRANCH   9  11
ATOM     11  C   UNL     1      -2.882  -7.195   4.240  0.00  0.00    +0.069 A 
ATOM     12  C   UNL     1      -2.500  -7.522   5.534  0.00  0.00    +0.026 A 
ATOM     13  C   UNL     1      -3.459  -7.702   6.511  0.00  0.00    +0.005 A 
ATOM     14  C   UNL     1      -4.799  -7.558   6.203  0.00  0.00    -0.048 A 
ATOM     15  C   UNL     1      -5.185  -7.234   4.916  0.00  0.00    +0.043 A 
ATOM     16  C   UNL     1      -4.230  -7.046   3.933  0.00  0.00    +0.145 A 
ATOM     17  F   UNL     1      -4.607  -6.723   2.676  0.00  0.00    -0.204 F 
ATOM     18  C   UNL     1      -5.842  -7.756   7.273  0.00  0.00    +0.044 C 
ENDBRANCH   9  11
ENDBRANCH   2   7
BRANCH   1  19
ATOM     19  S   UNL     1       0.086  -4.979   1.447  0.00  0.00    +0.092 S 
ATOM     20  O   UNL     1       1.313  -4.627   2.073  0.00  0.00    -0.151 OA
ATOM     21  O   UNL     1      -1.156  -4.668   2.062  0.00  0.00    -0.151 OA
BRANCH  19  22
ATOM     22  N   UNL     1       0.079  -4.129   0.025  0.00  0.00    -0.100 NA
BRANCH  22  27
ATOM     23  C   UNL     1      -0.016   1.540   0.112  0.00  0.00    +0.044 C 
ATOM     24  C   UNL     1       0.009   0.034   0.089  0.00  0.00    -0.050 A 
ATOM     25  C   UNL     1       0.026  -0.638  -1.120  0.00  0.00    +0.005 A 
ATOM     26  C   UNL     1       0.049  -2.018  -1.145  0.00  0.00    +0.027 A 
ATOM     27  C   UNL     1       0.056  -2.733   0.047  0.00  0.00    +0.074 A 
ATOM     28  C   UNL     1       0.039  -2.055   1.259  0.00  0.00    +0.027 A 
ATOM     29  C   UNL     1       0.021  -0.674   1.277  0.00  0.00    +0.005 A 
ENDBRANCH  22  27
ENDBRANCH  19  22
ENDBRANCH   1  19
TORSDOF 5
