REMARK  Name = ZINC16250141
REMARK  8 active torsions:
REMARK  status: ('A' for Active; 'I' for Inactive)
REMARK    1  A    between atoms: C_1  and  C_2
REMARK    2  A    between atoms: C_3  and  C_11
REMARK    3  A    between atoms: C_7  and  N_8
REMARK    4  A    between atoms: N_13  and  C_14
REMARK    5  A    between atoms: C_14  and  N_16
REMARK    6  A    between atoms: N_16  and  C_17
REMARK    7  A    between atoms: C_20  and  O_32
REMARK    8  A    between atoms: C_21  and  C_23
REMARK                            x       y       z     vdW  Elec       q    Type
REMARK                         _______ _______ _______ _____ _____    ______ ____
ROOT
ATOM      1  N   UNL     1       1.345  -3.689  -5.532  0.00  0.00    -0.297 N 
ATOM      2  H   UNL     1       1.671  -4.323  -4.873  0.00  0.00    +0.154 HD
ENDROOT
BRANCH   1   3
ATOM      3  C   UNL     1       1.693  -3.838  -6.880  0.00  0.00    +0.034 A 
ATOM      4  C   UNL     1       2.036  -2.722  -7.636  0.00  0.00    +0.027 A 
ATOM      5  C   UNL     1       2.380  -2.860  -8.966  0.00  0.00    +0.048 A 
ATOM      6  C   UNL     1       2.387  -4.114  -9.557  0.00  0.00    +0.129 A 
ATOM      7  C   UNL     1       2.044  -5.243  -8.802  0.00  0.00    +0.080 A 
ATOM      8  C   UNL     1       1.702  -5.097  -7.457  0.00  0.00    +0.040 A 
BRANCH   7   9
ATOM      9  C   UNL     1       2.049  -6.581  -9.426  0.00  0.00    +0.232 A 
ATOM     10  N   UNL     1       1.740  -7.696  -8.813  0.00  0.00    -0.209 NA
ATOM     11  C   UNL     1       1.854  -8.724  -9.693  0.00  0.00    +0.110 A 
ATOM     12  C   UNL     1       1.655 -10.103  -9.596  0.00  0.00    +0.031 A 
ATOM     13  C   UNL     1       1.859 -10.902 -10.698  0.00  0.00    +0.002 A 
ATOM     14  C   UNL     1       2.262 -10.346 -11.904  0.00  0.00    +0.004 A 
ATOM     15  C   UNL     1       2.463  -8.985 -12.014  0.00  0.00    +0.048 A 
ATOM     16  C   UNL     1       2.262  -8.165 -10.915  0.00  0.00    +0.156 A 
ATOM     17  O   UNL     1       2.367  -6.833 -10.710  0.00  0.00    -0.435 OA
ENDBRANCH   7   9
BRANCH   6  18
ATOM     18  O   UNL     1       2.726  -4.247 -10.865  0.00  0.00    -0.506 OA
ATOM     19  H   UNL     1       3.671  -4.389 -11.014  0.00  0.00    +0.292 HD
ENDBRANCH   6  18
ENDBRANCH   1   3
BRANCH   1  20
ATOM     20  C   UNL     1       0.555  -2.666  -5.149  0.00  0.00    +0.141 C 
ATOM     21  S   UNL     1       0.056  -1.495  -6.293  0.00  0.00    -0.018 S 
BRANCH  20  24
ATOM     22  C   UNL     1      -0.630  -1.542  -3.481  0.00  0.00    +0.250 C 
ATOM     23  O   UNL     1      -0.984  -0.710  -4.294  0.00  0.00    -0.270 OA
ATOM     24  N   UNL     1       0.159  -2.565  -3.864  0.00  0.00    -0.264 N 
ATOM     25  H   UNL     1       0.442  -3.228  -3.216  0.00  0.00    +0.157 HD
BRANCH  22  28
ATOM     26  C   UNL     1      -3.107  -0.184  -2.851  0.00  0.00    +0.047 C 
ATOM     27  C   UNL     1      -2.258  -0.778  -1.757  0.00  0.00    -0.008 A 
ATOM     28  C   UNL     1      -1.065  -1.431  -2.073  0.00  0.00    +0.042 A 
ATOM     29  C   UNL     1      -0.284  -1.978  -1.054  0.00  0.00    +0.013 A 
ATOM     30  C   UNL     1      -0.696  -1.871   0.259  0.00  0.00    +0.003 A 
ATOM     31  C   UNL     1      -1.879  -1.224   0.565  0.00  0.00    +0.033 A 
ATOM     32  C   UNL     1      -2.655  -0.673  -0.440  0.00  0.00    +0.130 A 
BRANCH  32  33
ATOM     33  N   UNL     1      -3.916   0.024  -0.102  0.00  0.00    +0.057 N 
ATOM     34  O   UNL     1      -4.333   0.003   1.032  0.00  0.00    -0.126 OA
ATOM     35  O   UNL     1      -4.529   0.614  -0.961  0.00  0.00    -0.126 OA
ENDBRANCH  32  33
ENDBRANCH  22  28
ENDBRANCH  20  24
ENDBRANCH   1  20
TORSDOF 7
