REMARK  Name = ZINC39767843
REMARK  5 active torsions:
REMARK  status: ('A' for Active; 'I' for Inactive)
REMARK    1  A    between atoms: C_8  and  C_10
REMARK    2  A    between atoms: C_13  and  S_16
REMARK    3  A    between atoms: S_16  and  C_17
REMARK    4  A    between atoms: C_17  and  C_18
REMARK    5  A    between atoms: N_20  and  C_21
REMARK                            x       y       z     vdW  Elec       q    Type
REMARK                         _______ _______ _______ _____ _____    ______ ____
ROOT
ATOM      1  C   UNL     1       3.796  -3.332  -0.080  0.00  0.00    +0.217 A 
ATOM      2  H   UNL     1       4.458  -6.383  -0.080  0.00  0.00    +0.191 HD
ATOM      3  N   UNL     1       5.138  -3.363  -0.087  0.00  0.00    -0.198 NA
ATOM      4  C   UNL     1       5.551  -4.611  -0.087  0.00  0.00    +0.185 A 
ATOM      5  N   UNL     1       4.463  -5.413  -0.081  0.00  0.00    -0.253 N 
ATOM      6  N   UNL     1       3.343  -4.567  -0.071  0.00  0.00    -0.148 NA
ENDROOT
BRANCH   1  14
ATOM      7  C   UNL     1      -0.017   1.364  -0.064  0.00  0.00    +0.001 A 
ATOM      8  C   UNL     1       1.170   2.083  -0.070  0.00  0.00    +0.004 A 
ATOM      9  C   UNL     1       2.387   1.433  -0.076  0.00  0.00    +0.047 A 
ATOM     10  C   UNL     1       2.429   0.045  -0.075  0.00  0.00    +0.136 A 
ATOM     11  C   UNL     1       1.223  -0.678  -0.069  0.00  0.00    +0.021 A 
ATOM     12  C   UNL     1       0.002  -0.003  -0.063  0.00  0.00    +0.011 A 
ATOM     13  C   UNL     1       1.609  -2.091  -0.070  0.00  0.00    +0.061 A 
ATOM     14  C   UNL     1       2.963  -2.110  -0.077  0.00  0.00    +0.175 A 
ATOM     15  O   UNL     1       3.439  -0.849  -0.080  0.00  0.00    -0.452 OA
ENDBRANCH   1  14
BRANCH   4  16
ATOM     16  S   UNL     1       7.230  -5.144  -0.096  0.00  0.00    -0.077 S 
BRANCH  16  17
ATOM     17  C   UNL     1       8.182  -3.600  -0.102  0.00  0.00    +0.173 C 
BRANCH  17  18
ATOM     18  C   UNL     1       9.655  -3.917  -0.109  0.00  0.00    +0.227 C 
ATOM     19  O   UNL     1      10.027  -5.072  -0.110  0.00  0.00    -0.275 OA
ATOM     20  N   UNL     1      10.560  -2.918  -0.115  0.00  0.00    -0.285 N 
ATOM     21  H   UNL     1      10.264  -1.997  -0.182  0.00  0.00    +0.155 HD
BRANCH  20  22
ATOM     22  C   UNL     1      11.925  -3.211  -0.024  0.00  0.00    +0.035 A 
ATOM     23  C   UNL     1      12.774  -2.360   0.673  0.00  0.00    +0.025 A 
ATOM     24  C   UNL     1      14.121  -2.650   0.762  0.00  0.00    +0.023 A 
ATOM     25  C   UNL     1      14.627  -3.788   0.157  0.00  0.00    +0.059 A 
ATOM     26  C   UNL     1      13.784  -4.637  -0.539  0.00  0.00    +0.061 A 
ATOM     27  C   UNL     1      12.433  -4.354  -0.626  0.00  0.00    +0.044 A 
ATOM     28 CL   UNL     1      14.422  -6.062  -1.298  0.00  0.00    -0.082 Cl
ATOM     29 CL   UNL     1      16.321  -4.149   0.271  0.00  0.00    -0.082 Cl
ENDBRANCH  20  22
ENDBRANCH  17  18
ENDBRANCH  16  17
ENDBRANCH   4  16
TORSDOF 5
