REMARK  Name = ZINC20923655
REMARK  8 active torsions:
REMARK  status: ('A' for Active; 'I' for Inactive)
REMARK    1  A    between atoms: C_1  and  C_2
REMARK    2  A    between atoms: C_5  and  N_8
REMARK    3  A    between atoms: C_9  and  C_11
REMARK    4  A    between atoms: C_11  and  N_12
REMARK    5  A    between atoms: N_12  and  C_13
REMARK    6  A    between atoms: N_12  and  S_19
REMARK    7  A    between atoms: S_19  and  C_22
REMARK    8  A    between atoms: C_26  and  N_28
REMARK                            x       y       z     vdW  Elec       q    Type
REMARK                         _______ _______ _______ _____ _____    ______ ____
ROOT
ATOM      1  N   UNL     1      -1.667  -1.226  -1.307  0.00  0.00    -0.194 N 
ENDROOT
BRANCH   1   2
ATOM      2  C   UNL     1      -2.427  -0.102  -1.638  0.00  0.00    +0.052 A 
ATOM      3  C   UNL     1      -2.107   0.648  -2.763  0.00  0.00    +0.025 A 
ATOM      4  C   UNL     1      -2.862   1.757  -3.090  0.00  0.00    +0.002 A 
ATOM      5  C   UNL     1      -3.931   2.127  -2.293  0.00  0.00    +0.000 A 
ATOM      6  C   UNL     1      -4.249   1.385  -1.170  0.00  0.00    +0.002 A 
ATOM      7  C   UNL     1      -3.501   0.272  -0.841  0.00  0.00    +0.025 A 
ENDBRANCH   1   2
BRANCH   1   8
ATOM      8  S   UNL     1      -0.887  -1.299   0.152  0.00  0.00    +0.075 S 
ATOM      9  O   UNL     1      -0.810  -2.674   0.503  0.00  0.00    -0.150 OA
ATOM     10  O   UNL     1      -1.504  -0.332   0.990  0.00  0.00    -0.150 OA
BRANCH   8  11
ATOM     11  C   UNL     1       0.767  -0.753  -0.114  0.00  0.00    +0.111 A 
ATOM     12  C   UNL     1       1.749  -1.665  -0.453  0.00  0.00    +0.030 A 
ATOM     13  C   UNL     1       3.047  -1.238  -0.662  0.00  0.00    +0.024 A 
ATOM     14  C   UNL     1       3.362   0.103  -0.532  0.00  0.00    +0.071 A 
ATOM     15  C   UNL     1       2.379   1.015  -0.193  0.00  0.00    +0.146 A 
ATOM     16  C   UNL     1       1.082   0.586   0.015  0.00  0.00    +0.063 A 
ATOM     17 CL   UNL     1       4.992   0.640  -0.793  0.00  0.00    -0.081 Cl
BRANCH  15  18
ATOM     18  N   UNL     1       2.716   2.450  -0.054  0.00  0.00    +0.058 N 
ATOM     19  O   UNL     1       1.850   3.252   0.243  0.00  0.00    -0.126 OA
ATOM     20  O   UNL     1       3.859   2.827  -0.238  0.00  0.00    -0.126 OA
ENDBRANCH  15  18
ENDBRANCH   8  11
ENDBRANCH   1   8
BRANCH   1  21
ATOM     21  C   UNL     1      -1.561  -2.342  -2.251  0.00  0.00    +0.227 C 
BRANCH  21  23
ATOM     22  N   UNL     1      -2.854  -4.367  -2.840  0.00  0.00    -0.284 N 
ATOM     23  C   UNL     1      -2.740  -3.264  -2.074  0.00  0.00    +0.236 C 
ATOM     24  O   UNL     1      -3.585  -3.014  -1.241  0.00  0.00    -0.274 OA
ATOM     25  H   UNL     1      -2.049  -4.636  -3.539  0.00  0.00    +0.155 HD
BRANCH  22  30
ATOM     26  C   UNL     1      -7.488  -7.618  -2.461  0.00  0.00    +0.044 C 
ATOM     27  C   UNL     1      -6.257  -6.754  -2.562  0.00  0.00    -0.050 A 
ATOM     28  C   UNL     1      -6.356  -5.388  -2.375  0.00  0.00    +0.005 A 
ATOM     29  C   UNL     1      -5.229  -4.593  -2.467  0.00  0.00    +0.023 A 
ATOM     30  C   UNL     1      -3.997  -5.169  -2.747  0.00  0.00    +0.033 A 
ATOM     31  C   UNL     1      -3.902  -6.541  -2.939  0.00  0.00    +0.023 A 
ATOM     32  C   UNL     1      -5.031  -7.330  -2.840  0.00  0.00    +0.005 A 
ENDBRANCH  22  30
ENDBRANCH  21  23
ENDBRANCH   1  21
TORSDOF 7
