REMARK  Name = ZINC60698547
REMARK  5 active torsions:
REMARK  status: ('A' for Active; 'I' for Inactive)
REMARK    1  A    between atoms: C_11  and  C_13
REMARK    2  A    between atoms: C_13  and  S_14
REMARK    3  A    between atoms: S_14  and  C_15
REMARK    4  A    between atoms: C_18  and  C_22
REMARK    5  A    between atoms: C_19  and  N_21
REMARK                            x       y       z     vdW  Elec       q    Type
REMARK                         _______ _______ _______ _____ _____    ______ ____
ROOT
ATOM      1  C   UNL     1      -0.017   1.369   0.010  0.00  0.00    +0.058 A 
ATOM      2  C   UNL     1       1.178   2.070   0.002  0.00  0.00    +0.162 A 
ATOM      3  C   UNL     1       2.378   1.368  -0.013  0.00  0.00    +0.196 A 
ATOM      4  C   UNL     1       2.404  -0.006  -0.021  0.00  0.00    +0.188 A 
ATOM      5  C   UNL     1       1.201  -0.752  -0.014  0.00  0.00    +0.118 A 
ATOM      6  C   UNL     1       0.002  -0.004   0.002  0.00  0.00    +0.046 A 
ATOM      7  S   UNL     1      -1.238  -1.277   0.008  0.00  0.00    -0.052 S 
ATOM      8  C   UNL     1      -0.125  -2.675  -0.010  0.00  0.00    +0.166 A 
ATOM      9  N   UNL     1       1.052  -2.095  -0.021  0.00  0.00    -0.222 NA
ATOM     10  N   UNL     1      -0.428  -4.028  -0.014  0.00  0.00    -0.264 N 
ATOM     11  C   UNL     1       0.564  -4.940  -0.028  0.00  0.00    +0.229 C 
ATOM     12  O   UNL     1       1.721  -4.578  -0.038  0.00  0.00    -0.275 OA
ATOM     13  F   UNL     1       3.590  -0.652  -0.037  0.00  0.00    -0.200 F 
ATOM     14  F   UNL     1       3.543   2.051  -0.021  0.00  0.00    -0.199 F 
ATOM     15  F   UNL     1       1.177   3.421   0.009  0.00  0.00    -0.202 F 
ATOM     16  H   UNL     1      -1.354  -4.317  -0.006  0.00  0.00    +0.157 HD
ENDROOT
BRANCH  11  17
ATOM     17  C   UNL     1       0.234  -6.411  -0.032  0.00  0.00    +0.173 C 
BRANCH  17  18
ATOM     18  S   UNL     1       1.770  -7.375  -0.052  0.00  0.00    -0.077 S 
BRANCH  18  19
ATOM     19  C   UNL     1       1.223  -9.050  -0.054  0.00  0.00    +0.190 A 
ATOM     20  N   UNL     1      -0.081  -9.300  -0.048  0.00  0.00    -0.229 NA
ATOM     21  C   UNL     1      -0.538 -10.539  -0.049  0.00  0.00    +0.136 A 
ATOM     22  C   UNL     1       0.374 -11.600  -0.058  0.00  0.00    +0.109 A 
ATOM     23  C   UNL     1       1.753 -11.294  -0.065  0.00  0.00    +0.138 A 
ATOM     24  N   UNL     1       2.125 -10.020  -0.068  0.00  0.00    -0.206 NA
BRANCH  23  25
ATOM     25  N   UNL     1       2.696 -12.302  -0.073  0.00  0.00    -0.342 N 
ATOM     26  H   UNL     1       2.413 -13.230  -0.074  0.00  0.00    +0.144 HD
ATOM     27  H   UNL     1       3.640 -12.082  -0.077  0.00  0.00    +0.144 HD
ENDBRANCH  23  25
BRANCH  22  28
ATOM     28  C   UNL     1      -0.078 -12.959  -0.059  0.00  0.00    +0.104 C 
ATOM     29  N   UNL     1      -0.437 -14.037  -0.060  0.00  0.00    -0.191 NA
ENDBRANCH  22  28
ENDBRANCH  18  19
ENDBRANCH  17  18
ENDBRANCH  11  17
TORSDOF 5
