REMARK  Name = ZINC05092136
REMARK  6 active torsions:
REMARK  status: ('A' for Active; 'I' for Inactive)
REMARK    1  A    between atoms: C_1  and  O_2
REMARK    2  A    between atoms: O_2  and  C_3
REMARK    3  A    between atoms: C_3  and  C_5
REMARK    4  A    between atoms: C_6  and  N_16
REMARK    5  A    between atoms: C_17  and  C_19
REMARK    6  A    between atoms: C_22  and  C_24
REMARK                            x       y       z     vdW  Elec       q    Type
REMARK                         _______ _______ _______ _____ _____    ______ ____
ROOT
ATOM      1  C   UNL     1      -1.939  -2.234   1.530  0.00  0.00    +0.147 A 
ATOM      2  C   UNL     1      -0.823  -1.449   1.330  0.00  0.00    +0.073 A 
ATOM      3  C   UNL     1       0.289  -2.122   2.006  0.00  0.00    +0.023 A 
ATOM      4  C   UNL     1       1.645  -1.820   2.161  0.00  0.00    +0.027 A 
ATOM      5  C   UNL     1       2.453  -2.667   2.865  0.00  0.00    +0.019 A 
ATOM      6  C   UNL     1       1.937  -3.828   3.429  0.00  0.00    +0.017 A 
ATOM      7  C   UNL     1       0.605  -4.145   3.289  0.00  0.00    +0.027 A 
ATOM      8  C   UNL     1      -0.238  -3.296   2.575  0.00  0.00    +0.049 A 
ATOM      9  N   UNL     1      -1.580  -3.348   2.275  0.00  0.00    -0.348 N 
ATOM     10  H   UNL     1      -2.185  -4.055   2.547  0.00  0.00    +0.166 HD
ATOM     11 BR   UNL     1       4.288  -2.258   3.073  0.00  0.00    -0.050 Br
ENDROOT
BRANCH   2  12
ATOM     12  N   UNL     1      -0.765  -0.249   0.629  0.00  0.00    -0.283 N 
ATOM     13  C   UNL     1       0.367   0.104  -0.011  0.00  0.00    +0.221 C 
ATOM     14  O   UNL     1       1.307  -0.662  -0.047  0.00  0.00    -0.275 OA
ATOM     15  H   UNL     1      -1.540   0.334   0.602  0.00  0.00    +0.155 HD
BRANCH  13  16
ATOM     16  C   UNL     1       0.464   1.449  -0.683  0.00  0.00    +0.083 C 
ATOM     17  C   UNL     1       0.766   1.469  -2.183  0.00  0.00    +0.022 C 
ATOM     18  C   UNL     1       1.842   1.892  -1.181  0.00  0.00    +0.032 C 
BRANCH  18  19
ATOM     19  C   UNL     1       2.997   0.950  -0.961  0.00  0.00    -0.044 A 
ATOM     20  C   UNL     1       3.208  -0.102  -1.833  0.00  0.00    +0.004 A 
ATOM     21  C   UNL     1       4.270  -0.963  -1.634  0.00  0.00    +0.000 A 
ATOM     22  C   UNL     1       5.117  -0.779  -0.556  0.00  0.00    +0.000 A 
ATOM     23  C   UNL     1       4.903   0.269   0.319  0.00  0.00    +0.000 A 
ATOM     24  C   UNL     1       3.843   1.134   0.117  0.00  0.00    +0.004 A 
ENDBRANCH  18  19
ENDBRANCH  13  16
ENDBRANCH   2  12
BRANCH   1  25
ATOM     25  C   UNL     1      -3.243  -1.951   1.048  0.00  0.00    +0.357 C 
ATOM     26  O   UNL     1      -3.470  -0.893   0.492  0.00  0.00    -0.243 OA
BRANCH  25  28
ATOM     27  C   UNL     1      -5.545  -2.459   0.804  0.00  0.00    +0.280 C 
ATOM     28  O   UNL     1      -4.232  -2.856   1.205  0.00  0.00    -0.463 OA
ENDBRANCH  25  28
ENDBRANCH   1  25
TORSDOF 5
