REMARK  Name = ZINC08640158
REMARK  4 active torsions:
REMARK  status: ('A' for Active; 'I' for Inactive)
REMARK    1  A    between atoms: C_6  and  C_7
REMARK    2  A    between atoms: C_13  and  C_15
REMARK    3  A    between atoms: C_15  and  S_16
REMARK    4  A    between atoms: S_16  and  C_17
REMARK                            x       y       z     vdW  Elec       q    Type
REMARK                         _______ _______ _______ _____ _____    ______ ____
ROOT
ATOM      1  C   UNL     1      -0.013   1.086   0.008  0.00  0.00    +0.173 C 
ENDROOT
BRANCH   1   8
ATOM      2  C   UNL     1      -1.328   1.996   5.852  0.00  0.00    +0.080 A 
ATOM      3  C   UNL     1      -2.425   2.749   5.539  0.00  0.00    +0.076 A 
ATOM      4  S   UNL     1      -2.356   2.709   3.753  0.00  0.00    -0.060 S 
ATOM      5  C   UNL     1      -0.892   1.694   3.609  0.00  0.00    +0.165 A 
ATOM      6  N   UNL     1      -0.589   1.488   4.877  0.00  0.00    -0.225 NA
ATOM      7  N   UNL     1      -0.242   1.246   2.466  0.00  0.00    -0.264 N 
ATOM      8  C   UNL     1      -0.718   1.572   1.248  0.00  0.00    +0.229 C 
ATOM      9  O   UNL     1      -1.714   2.256   1.150  0.00  0.00    -0.275 OA
ATOM     10  H   UNL     1       0.555   0.699   2.544  0.00  0.00    +0.157 HD
BRANCH   2  16
ATOM     11  C   UNL     1      -1.745   2.294   8.292  0.00  0.00    +0.013 A 
ATOM     12  C   UNL     1      -1.408   2.060   9.610  0.00  0.00    +0.039 A 
ATOM     13  C   UNL     1      -0.295   1.295   9.917  0.00  0.00    +0.123 A 
ATOM     14  C   UNL     1       0.483   0.757   8.904  0.00  0.00    +0.039 A 
ATOM     15  C   UNL     1       0.152   0.983   7.584  0.00  0.00    +0.013 A 
ATOM     16  C   UNL     1      -0.968   1.751   7.270  0.00  0.00    +0.001 A 
ATOM     17  F   UNL     1       0.034   1.072  11.209  0.00  0.00    -0.205 F 
ENDBRANCH   2  16
ENDBRANCH   1   8
BRANCH   1  18
ATOM     18  S   UNL     1      -0.888   1.685  -1.458  0.00  0.00    -0.078 S 
BRANCH  18  19
ATOM     19  C   UNL     1       0.122   0.990  -2.724  0.00  0.00    +0.170 A 
ATOM     20  N   UNL     1      -0.198   1.202  -4.033  0.00  0.00    -0.301 N 
ATOM     21  H   UNL     1      -0.980   1.733  -4.252  0.00  0.00    +0.171 HD
ATOM     22  C   UNL     1       0.552   0.690  -5.027  0.00  0.00    +0.261 A 
ATOM     23  O   UNL     1       0.255   0.892  -6.192  0.00  0.00    -0.267 OA
ATOM     24  C   UNL     1       1.700  -0.097  -4.697  0.00  0.00    +0.075 A 
ATOM     25  C   UNL     1       2.646  -0.747  -5.606  0.00  0.00    -0.023 A 
ATOM     26  C   UNL     1       3.657  -1.439  -5.045  0.00  0.00    -0.004 A 
ATOM     27  S   UNL     1       3.415  -1.272  -3.297  0.00  0.00    -0.073 S 
ATOM     28  C   UNL     1       1.952  -0.268  -3.325  0.00  0.00    +0.117 A 
ATOM     29  N   UNL     1       1.174   0.268  -2.392  0.00  0.00    -0.216 NA
ATOM     30  C   UNL     1       4.747  -2.187  -5.750  0.00  0.00    +0.043 C 
ATOM     31  C   UNL     1       4.341  -2.363  -7.221  0.00  0.00    +0.005 C 
ATOM     32  C   UNL     1       3.854  -1.015  -7.761  0.00  0.00    +0.005 C 
ATOM     33  C   UNL     1       2.511  -0.655  -7.124  0.00  0.00    +0.037 C 
ENDBRANCH  18  19
ENDBRANCH   1  18
TORSDOF 4
