REMARK  Name = ZINC39688129
REMARK  6 active torsions:
REMARK  status: ('A' for Active; 'I' for Inactive)
REMARK    1  A    between atoms: C_6  and  O_7
REMARK    2  A    between atoms: O_7  and  C_8
REMARK    3  A    between atoms: C_8  and  C_9
REMARK    4  A    between atoms: C_9  and  N_10
REMARK    5  A    between atoms: C_11  and  C_13
REMARK    6  A    between atoms: C_24  and  C_26
REMARK                            x       y       z     vdW  Elec       q    Type
REMARK                         _______ _______ _______ _____ _____    ______ ____
ROOT
ATOM      1  C   UNL     1      -5.238  -2.150  -3.339  0.00  0.00    +0.100 C 
ATOM      2  C   UNL     1      -4.284  -2.871  -4.316  0.00  0.00    +0.121 C 
ATOM      3  N   UNL     1      -4.916  -4.190  -4.553  0.00  0.00    -0.296 N 
ATOM      4  C   UNL     1      -6.367  -3.894  -4.635  0.00  0.00    +0.115 C 
ATOM      5  C   UNL     1      -6.605  -2.821  -3.554  0.00  0.00    -0.004 C 
ATOM      6  C   UNL     1      -7.626  -1.798  -4.041  0.00  0.00    -0.010 C 
ATOM      7  C   UNL     1      -8.990  -2.476  -4.191  0.00  0.00    -0.082 C 
ATOM      8  N   UNL     1      -9.406  -3.035  -2.899  0.00  0.00    +0.379 N 
ATOM      9  C   UNL     1      -8.469  -4.085  -2.483  0.00  0.00    -0.082 C 
ATOM     10  C   UNL     1      -7.082  -3.474  -2.260  0.00  0.00    -0.010 C 
ATOM     11  C   UNL     1      -4.310  -5.389  -4.667  0.00  0.00    +0.247 C 
ATOM     12  O   UNL     1      -3.118  -5.490  -4.450  0.00  0.00    -0.270 OA
ATOM     13  H   UNL     1      -9.418  -2.302  -2.206  0.00  0.00    -0.086 HD
ATOM     14  H   UNL     1     -10.332  -3.427  -2.986  0.00  0.00    -0.086 HD
ENDROOT
BRANCH  11  15
ATOM     15  C   UNL     1      -5.095  -6.579  -5.056  0.00  0.00    +0.038 A 
ATOM     16  C   UNL     1      -6.316  -6.429  -5.716  0.00  0.00    +0.014 A 
ATOM     17  C   UNL     1      -7.044  -7.543  -6.077  0.00  0.00    +0.022 A 
ATOM     18  C   UNL     1      -6.566  -8.810  -5.786  0.00  0.00    +0.059 A 
ATOM     19  C   UNL     1      -5.355  -8.966  -5.131  0.00  0.00    +0.060 A 
ATOM     20  C   UNL     1      -4.615  -7.858  -4.771  0.00  0.00    +0.034 A 
ATOM     21 CL   UNL     1      -4.764 -10.558  -4.770  0.00  0.00    -0.082 Cl
ATOM     22 CL   UNL     1      -7.489 -10.208  -6.242  0.00  0.00    -0.082 Cl
ENDBRANCH  11  15
BRANCH   1  24
ATOM     23  N   UNL     1      -5.136  -1.457  -0.966  0.00  0.00    -0.312 N 
ATOM     24  C   UNL     1      -4.777  -2.342  -1.917  0.00  0.00    +0.218 C 
ATOM     25  O   UNL     1      -4.082  -3.293  -1.628  0.00  0.00    -0.275 OA
ATOM     26  H   UNL     1      -5.692  -0.696  -1.197  0.00  0.00    +0.149 HD
BRANCH  23  27
ATOM     27  C   UNL     1      -4.688  -1.644   0.416  0.00  0.00    +0.145 C 
BRANCH  27  28
ATOM     28  C   UNL     1      -5.231  -0.509   1.286  0.00  0.00    +0.247 C 
BRANCH  28  29
ATOM     29  O   UNL     1      -6.657  -0.588   1.337  0.00  0.00    -0.490 OA
BRANCH  29  35
ATOM     30  C   UNL     1      -8.685   0.337   2.168  0.00  0.00    +0.048 A 
ATOM     31  C   UNL     1      -9.338   1.296   2.918  0.00  0.00    +0.042 A 
ATOM     32  C   UNL     1      -8.613   2.274   3.577  0.00  0.00    +0.124 A 
ATOM     33  C   UNL     1      -7.231   2.293   3.485  0.00  0.00    +0.042 A 
ATOM     34  C   UNL     1      -6.575   1.336   2.735  0.00  0.00    +0.048 A 
ATOM     35  C   UNL     1      -7.301   0.355   2.075  0.00  0.00    +0.121 A 
ATOM     36  F   UNL     1      -9.253   3.210   4.310  0.00  0.00    -0.205 F 
ENDBRANCH  29  35
ENDBRANCH  28  29
ENDBRANCH  27  28
ENDBRANCH  23  27
ENDBRANCH   1  24
TORSDOF 6
