REMARK  Name = ZINC01327232
REMARK  7 active torsions:
REMARK  status: ('A' for Active; 'I' for Inactive)
REMARK    1  A    between atoms: C_1  and  C_2
REMARK    2  A    between atoms: C_2  and  C_3
REMARK    3  A    between atoms: C_10  and  C_15
REMARK    4  A    between atoms: C_15  and  N_16
REMARK    5  A    between atoms: N_16  and  C_17
REMARK    6  A    between atoms: C_17  and  C_18
REMARK    7  A    between atoms: N_29  and  C_30
REMARK                            x       y       z     vdW  Elec       q    Type
REMARK                         _______ _______ _______ _____ _____    ______ ____
ROOT
ATOM      1  N   UNL     1       0.087  -0.018  -0.136  0.00  0.00    -0.277 N 
ATOM      2  C   UNL     1       1.121  -0.667   0.433  0.00  0.00    +0.307 C 
ATOM      3  O   UNL     1       1.232  -1.871   0.299  0.00  0.00    -0.252 OA
ATOM      4  N   UNL     1       2.035   0.017   1.150  0.00  0.00    -0.269 N 
ATOM      5  H   UNL     1       1.991   0.985   1.193  0.00  0.00    +0.156 HD
ENDROOT
BRANCH   4   6
ATOM      6  C   UNL     1       3.046  -0.669   1.833  0.00  0.00    +0.035 A 
ATOM      7  C   UNL     1       4.304  -0.098   1.970  0.00  0.00    +0.025 A 
ATOM      8  C   UNL     1       5.298  -0.774   2.649  0.00  0.00    +0.022 A 
ATOM      9  C   UNL     1       5.045  -2.025   3.183  0.00  0.00    +0.041 A 
ATOM     10  C   UNL     1       3.793  -2.599   3.044  0.00  0.00    +0.022 A 
ATOM     11  C   UNL     1       2.794  -1.924   2.370  0.00  0.00    +0.025 A 
ATOM     12 CL   UNL     1       6.298  -2.876   4.031  0.00  0.00    -0.084 Cl
ENDBRANCH   4   6
BRANCH   1  13
ATOM     13  C   UNL     1      -0.906  -0.762  -0.915  0.00  0.00    +0.150 C 
BRANCH  13  21
ATOM     14  C   UNL     1       1.701  -2.979  -6.070  0.00  0.00    -0.047 A 
ATOM     15  C   UNL     1       1.369  -1.906  -6.887  0.00  0.00    +0.005 A 
ATOM     16  C   UNL     1       0.664  -0.833  -6.386  0.00  0.00    +0.026 A 
ATOM     17  C   UNL     1       0.283  -0.822  -5.048  0.00  0.00    +0.049 A 
ATOM     18  C   UNL     1       0.622  -1.911  -4.223  0.00  0.00    -0.001 A 
ATOM     19  C   UNL     1       1.337  -2.990  -4.754  0.00  0.00    +0.013 A 
ATOM     20  C   UNL     1       0.221  -1.887  -2.816  0.00  0.00    +0.020 A 
ATOM     21  C   UNL     1      -0.474  -0.816  -2.358  0.00  0.00    +0.035 A 
ATOM     22  C   UNL     1      -0.789   0.251  -3.227  0.00  0.00    +0.254 A 
ATOM     23  O   UNL     1      -1.411   1.206  -2.794  0.00  0.00    -0.268 OA
ATOM     24  N   UNL     1      -0.421   0.240  -4.520  0.00  0.00    -0.322 N 
ATOM     25  H   UNL     1      -0.654   0.989  -5.090  0.00  0.00    +0.169 HD
BRANCH  14  27
ATOM     26  C   UNL     1       1.492  -5.185  -7.184  0.00  0.00    +0.009 C 
ATOM     27  C   UNL     1       2.471  -4.142  -6.642  0.00  0.00    +0.032 C 
ENDBRANCH  14  27
ENDBRANCH  13  21
ENDBRANCH   1  13
BRANCH   1  28
ATOM     28  C   UNL     1      -0.046   1.432   0.025  0.00  0.00    +0.145 C 
BRANCH  28  29
ATOM     29  C   UNL     1      -0.864   1.728   1.256  0.00  0.00    -0.026 A 
ATOM     30  C   UNL     1      -2.237   1.851   1.158  0.00  0.00    +0.009 A 
ATOM     31  C   UNL     1      -2.992   2.117   2.285  0.00  0.00    +0.050 A 
ATOM     32  C   UNL     1      -2.372   2.273   3.514  0.00  0.00    +0.166 A 
ATOM     33  C   UNL     1      -0.988   2.154   3.612  0.00  0.00    +0.167 A 
ATOM     34  C   UNL     1      -0.238   1.882   2.479  0.00  0.00    +0.054 A 
ATOM     35  O   UNL     1      -0.624   2.348   4.913  0.00  0.00    -0.453 OA
ATOM     36  C   UNL     1      -1.752   2.989   5.537  0.00  0.00    +0.466 C 
ATOM     37  O   UNL     1      -2.875   2.541   4.755  0.00  0.00    -0.453 OA
ENDBRANCH  28  29
ENDBRANCH   1  28
TORSDOF 6
