REMARK  Name = ZINC12880905
REMARK  9 active torsions:
REMARK  status: ('A' for Active; 'I' for Inactive)
REMARK    1  A    between atoms: C_1  and  C_2
REMARK    2  A    between atoms: C_2  and  C_3
REMARK    3  A    between atoms: C_14  and  C_16
REMARK    4  A    between atoms: C_16  and  C_17
REMARK    5  A    between atoms: C_17  and  S_18
REMARK    6  A    between atoms: S_18  and  C_19
REMARK    7  A    between atoms: N_22  and  C_25
REMARK    8  A    between atoms: C_25  and  C_26
REMARK    9  A    between atoms: C_26  and  C_27
REMARK                            x       y       z     vdW  Elec       q    Type
REMARK                         _______ _______ _______ _____ _____    ______ ____
ROOT
ATOM      1  C   UNL     1      -3.809  -1.802  -5.120  0.00  0.00    -0.047 A 
ATOM      2  C   UNL     1      -5.154  -1.479  -5.108  0.00  0.00    +0.005 A 
ATOM      3  C   UNL     1      -5.769  -1.101  -3.933  0.00  0.00    +0.024 A 
ATOM      4  C   UNL     1      -5.039  -1.042  -2.748  0.00  0.00    +0.036 A 
ATOM      5  C   UNL     1      -3.686  -1.369  -2.772  0.00  0.00    -0.027 A 
ATOM      6  C   UNL     1      -3.077  -1.746  -3.948  0.00  0.00    +0.008 A 
ATOM      7  C   UNL     1      -3.200  -1.208  -1.360  0.00  0.00    +0.050 C 
ATOM      8  C   UNL     1      -2.622  -2.518  -0.811  0.00  0.00    +0.088 C 
ATOM      9  C   UNL     1      -1.437  -2.075   0.092  0.00  0.00    +0.073 C 
ATOM     10  C   UNL     1      -1.433  -0.534   0.013  0.00  0.00    -0.057 C 
ATOM     11  C   UNL     1      -1.859  -2.499   1.481  0.00  0.00    +0.224 C 
ATOM     12  O   UNL     1      -1.206  -2.344   2.490  0.00  0.00    -0.275 OA
ATOM     13  N   UNL     1      -3.067  -3.073   1.423  0.00  0.00    -0.241 N 
ATOM     14  C   UNL     1      -3.594  -3.135   0.194  0.00  0.00    +0.225 C 
ATOM     15  O   UNL     1      -4.673  -3.611  -0.081  0.00  0.00    -0.275 OA
ATOM     16  C   UNL     1      -4.407  -0.769  -0.578  0.00  0.00    +0.211 C 
ATOM     17  O   UNL     1      -4.452  -0.527   0.610  0.00  0.00    -0.277 OA
ATOM     18  N   UNL     1      -5.429  -0.696  -1.452  0.00  0.00    -0.286 N 
ATOM     19  H   UNL     1      -6.330  -0.432  -1.210  0.00  0.00    +0.155 HD
ATOM     20  N   UNL     1      -2.121  -0.241  -1.247  0.00  0.00    +0.394 N 
ATOM     21  H   UNL     1      -2.499   0.713  -1.231  0.00  0.00    -0.083 HD
ATOM     22  H   UNL     1      -1.472  -0.339  -2.036  0.00  0.00    -0.083 HD
ENDROOT
BRANCH   1  24
ATOM     23  C   UNL     1      -2.589  -0.976  -7.115  0.00  0.00    +0.009 C 
ATOM     24  C   UNL     1      -3.143  -2.215  -6.408  0.00  0.00    +0.032 C 
ENDBRANCH   1  24
BRANCH  10  25
ATOM     25  C   UNL     1       0.002  -0.004   0.002  0.00  0.00    -0.004 C 
BRANCH  25  26
ATOM     26  C   UNL     1      -0.019   1.526   0.010  0.00  0.00    +0.067 C 
BRANCH  26  27
ATOM     27  S   UNL     1       1.683   2.154  -0.002  0.00  0.00    -0.164 S 
ATOM     28  C   UNL     1       1.486   3.957   0.009  0.00  0.00    +0.084 C 
ENDBRANCH  26  27
ENDBRANCH  25  26
ENDBRANCH  10  25
BRANCH  13  29
ATOM     29  C   UNL     1      -3.755  -3.591   2.607  0.00  0.00    +0.121 C 
BRANCH  29  30
ATOM     30  C   UNL     1      -4.616  -2.485   3.221  0.00  0.00    +0.054 C 
BRANCH  30  31
ATOM     31  C   UNL     1      -5.324  -3.018   4.440  0.00  0.00    -0.046 A 
ATOM     32  C   UNL     1      -6.574  -3.595   4.315  0.00  0.00    +0.004 A 
ATOM     33  C   UNL     1      -7.222  -4.088   5.432  0.00  0.00    +0.000 A 
ATOM     34  C   UNL     1      -6.625  -3.995   6.675  0.00  0.00    +0.000 A 
ATOM     35  C   UNL     1      -5.377  -3.413   6.801  0.00  0.00    +0.000 A 
ATOM     36  C   UNL     1      -4.727  -2.925   5.683  0.00  0.00    +0.004 A 
ENDBRANCH  30  31
ENDBRANCH  29  30
ENDBRANCH  13  29
TORSDOF 7
