REMARK  Name = ZINC01183264
REMARK  10 active torsions:
REMARK  status: ('A' for Active; 'I' for Inactive)
REMARK    1  A    between atoms: C_1  and  C_2
REMARK    2  A    between atoms: C_5  and  N_9
REMARK    3  A    between atoms: C_6  and  C_8
REMARK    4  A    between atoms: C_10  and  C_12
REMARK    5  A    between atoms: C_12  and  S_13
REMARK    6  A    between atoms: S_13  and  C_14
REMARK    7  A    between atoms: C_17  and  C_20
REMARK    8  A    between atoms: N_18  and  C_19
REMARK    9  A    between atoms: C_24  and  N_26
REMARK   10  A    between atoms: C_27  and  C_29
REMARK                            x       y       z     vdW  Elec       q    Type
REMARK                         _______ _______ _______ _____ _____    ______ ____
ROOT
ATOM      1  C   UNL     1      -5.644   1.781  -0.602  0.00  0.00    +0.192 A 
ATOM      2  N   UNL     1      -5.603   3.048  -0.251  0.00  0.00    -0.122 NA
ATOM      3  N   UNL     1      -6.787   3.547  -0.260  0.00  0.00    -0.128 NA
ATOM      4  C   UNL     1      -7.658   2.629  -0.608  0.00  0.00    +0.165 A 
ATOM      5  N   UNL     1      -6.953   1.470  -0.838  0.00  0.00    -0.305 N 
ATOM      6  C   UNL     1      -7.493   0.172  -1.249  0.00  0.00    +0.153 C 
ENDROOT
BRANCH   4   7
ATOM      7  C   UNL     1      -9.120   2.807  -0.731  0.00  0.00    +0.021 A 
ATOM      8  C   UNL     1      -9.963   1.693  -0.740  0.00  0.00    +0.012 A 
ATOM      9  C   UNL     1     -11.328   1.862  -0.854  0.00  0.00    +0.002 A 
ATOM     10  C   UNL     1     -11.866   3.131  -0.960  0.00  0.00    +0.023 A 
ATOM     11  C   UNL     1     -11.036   4.245  -0.952  0.00  0.00    +0.034 A 
ATOM     12  C   UNL     1      -9.663   4.087  -0.832  0.00  0.00    +0.035 A 
BRANCH  11  13
ATOM     13  N   UNL     1     -11.585   5.528  -1.059  0.00  0.00    -0.286 N 
ATOM     14  C   UNL     1     -10.917   6.494  -1.719  0.00  0.00    +0.214 C 
ATOM     15  O   UNL     1      -9.884   6.231  -2.298  0.00  0.00    -0.276 OA
ATOM     16  C   UNL     1     -11.453   7.903  -1.738  0.00  0.00    +0.109 C 
ATOM     17  H   UNL     1     -12.447   5.721  -0.658  0.00  0.00    +0.155 HD
ENDBRANCH  11  13
ENDBRANCH   4   7
BRANCH   1  18
ATOM     18  S   UNL     1      -4.269   0.688  -0.734  0.00  0.00    -0.077 S 
BRANCH  18  19
ATOM     19  C   UNL     1      -2.927   1.813  -0.276  0.00  0.00    +0.173 C 
BRANCH  19  21
ATOM     20  N   UNL     1      -0.469   1.716  -0.016  0.00  0.00    -0.285 N 
ATOM     21  C   UNL     1      -1.615   1.074  -0.321  0.00  0.00    +0.227 C 
ATOM     22  O   UNL     1      -1.589  -0.098  -0.632  0.00  0.00    -0.275 OA
ATOM     23  H   UNL     1      -0.496   2.634   0.298  0.00  0.00    +0.155 HD
BRANCH  20  28
ATOM     24  C   UNL     1       4.505  -0.953  -0.580  0.00  0.00    +0.044 C 
ATOM     25  C   UNL     1       3.184  -0.244  -0.428  0.00  0.00    -0.050 A 
ATOM     26  C   UNL     1       2.063  -0.950  -0.030  0.00  0.00    +0.005 A 
ATOM     27  C   UNL     1       0.851  -0.303   0.110  0.00  0.00    +0.024 A 
ATOM     28  C   UNL     1       0.758   1.058  -0.151  0.00  0.00    +0.036 A 
ATOM     29  C   UNL     1       1.885   1.764  -0.551  0.00  0.00    -0.029 A 
ATOM     30  C   UNL     1       3.094   1.111  -0.689  0.00  0.00    +0.008 A 
ATOM     31  C   UNL     1       1.789   3.241  -0.835  0.00  0.00    +0.045 C 
ENDBRANCH  20  28
ENDBRANCH  19  21
ENDBRANCH  18  19
ENDBRANCH   1  18
TORSDOF 6
