REMARK  Name = ZINC39638786
REMARK  5 active torsions:
REMARK  status: ('A' for Active; 'I' for Inactive)
REMARK    1  A    between atoms: C_5  and  C_7
REMARK    2  A    between atoms: C_7  and  C_8
REMARK    3  A    between atoms: C_8  and  N_9
REMARK    4  A    between atoms: C_10  and  C_12
REMARK    5  A    between atoms: C_23  and  C_25
REMARK                            x       y       z     vdW  Elec       q    Type
REMARK                         _______ _______ _______ _____ _____    ______ ____
ROOT
ATOM      1  C   UNL     1       1.536  -6.351   2.545  0.00  0.00    +0.100 C 
ATOM      2  C   UNL     1       2.692  -6.876   1.663  0.00  0.00    +0.121 C 
ATOM      3  N   UNL     1       3.809  -7.108   2.608  0.00  0.00    -0.296 N 
ATOM      4  C   UNL     1       3.159  -7.673   3.815  0.00  0.00    +0.115 C 
ATOM      5  C   UNL     1       1.845  -6.880   3.956  0.00  0.00    -0.004 C 
ATOM      6  C   UNL     1       0.723  -7.796   4.434  0.00  0.00    -0.010 C 
ATOM      7  C   UNL     1       1.024  -8.262   5.861  0.00  0.00    -0.082 C 
ATOM      8  N   UNL     1       1.140  -7.096   6.745  0.00  0.00    +0.379 N 
ATOM      9  C   UNL     1       2.280  -6.268   6.333  0.00  0.00    -0.082 C 
ATOM     10  C   UNL     1       2.033  -5.717   4.926  0.00  0.00    -0.010 C 
ATOM     11  C   UNL     1       5.120  -6.861   2.415  0.00  0.00    +0.248 C 
ATOM     12  O   UNL     1       5.489  -6.302   1.401  0.00  0.00    -0.270 OA
ATOM     13  H   UNL     1       0.293  -6.550   6.692  0.00  0.00    -0.086 HD
ATOM     14  H   UNL     1       1.278  -7.407   7.694  0.00  0.00    -0.086 HD
ENDROOT
BRANCH  11  15
ATOM     15  C   UNL     1       6.106  -7.270   3.435  0.00  0.00    +0.055 A 
ATOM     16  C   UNL     1       5.916  -8.446   4.163  0.00  0.00    +0.016 A 
ATOM     17  C   UNL     1       6.841  -8.822   5.113  0.00  0.00    +0.021 A 
ATOM     18  C   UNL     1       7.957  -8.036   5.349  0.00  0.00    +0.042 A 
ATOM     19  C   UNL     1       8.152  -6.868   4.631  0.00  0.00    +0.040 A 
ATOM     20  C   UNL     1       7.237  -6.484   3.672  0.00  0.00    +0.054 A 
ATOM     21 CL   UNL     1       7.487  -5.023   2.767  0.00  0.00    -0.083 Cl
ATOM     22 CL   UNL     1       9.116  -8.517   6.548  0.00  0.00    -0.083 Cl
ENDBRANCH  11  15
BRANCH   1  24
ATOM     23  N   UNL     1       0.350  -4.185   2.686  0.00  0.00    -0.315 N 
ATOM     24  C   UNL     1       1.517  -4.844   2.542  0.00  0.00    +0.218 C 
ATOM     25  O   UNL     1       2.551  -4.224   2.410  0.00  0.00    -0.275 OA
ATOM     26  H   UNL     1      -0.477  -4.680   2.791  0.00  0.00    +0.149 HD
BRANCH  23  27
ATOM     27  C   UNL     1       0.331  -2.720   2.683  0.00  0.00    +0.109 C 
BRANCH  27  28
ATOM     28  C   UNL     1      -1.106  -2.228   2.862  0.00  0.00    +0.056 C 
BRANCH  28  33
ATOM     29  C   UNL     1      -1.108   1.355   4.051  0.00  0.00    +0.000 A 
ATOM     30  C   UNL     1      -1.162   2.045   2.853  0.00  0.00    +0.003 A 
ATOM     31  C   UNL     1      -1.198   1.353   1.658  0.00  0.00    +0.038 A 
ATOM     32  C   UNL     1      -1.180  -0.032   1.659  0.00  0.00    +0.127 A 
ATOM     33  C   UNL     1      -1.126  -0.721   2.858  0.00  0.00    -0.011 A 
ATOM     34  C   UNL     1      -1.090  -0.027   4.053  0.00  0.00    +0.006 A 
ATOM     35  F   UNL     1      -1.215  -0.709   0.491  0.00  0.00    -0.205 F 
ENDBRANCH  28  33
ENDBRANCH  27  28
ENDBRANCH  23  27
ENDBRANCH   1  24
TORSDOF 5
