REMARK  Name = ZINC44690093
REMARK  16 active torsions:
REMARK  status: ('A' for Active; 'I' for Inactive)
REMARK    1  A    between atoms: C_1  and  C_2
REMARK    2  A    between atoms: C_2  and  C_3
REMARK    3  A    between atoms: C_2  and  C_4
REMARK    4  A    between atoms: C_2  and  O_5
REMARK    5  A    between atoms: O_5  and  C_6
REMARK    6  A    between atoms: N_8  and  C_9
REMARK    7  A    between atoms: C_9  and  C_11
REMARK    8  A    between atoms: C_9  and  C_22
REMARK    9  A    between atoms: C_11  and  C_12
REMARK   10  A    between atoms: C_22  and  O_24
REMARK   11  A    between atoms: O_24  and  C_25
REMARK   12  A    between atoms: C_25  and  C_26
REMARK   13  A    between atoms: C_28  and  O_40
REMARK   14  A    between atoms: C_30  and  O_39
REMARK   15  A    between atoms: C_32  and  O_38
REMARK   16  A    between atoms: C_34  and  O_37
REMARK                            x       y       z     vdW  Elec       q    Type
REMARK                         _______ _______ _______ _____ _____    ______ ____
ROOT
ATOM      1  C   UNL     1       4.035  -0.071  -2.601  0.00  0.00    +0.189 C 
ENDROOT
BRANCH   1   4
ATOM      2  C   UNL     1       1.952  -0.085  -1.337  0.00  0.00    +0.401 C 
ATOM      3  O   UNL     1       2.488   0.619  -0.503  0.00  0.00    -0.226 OA
ATOM      4  N   UNL     1       2.641  -0.485  -2.424  0.00  0.00    -0.268 N 
ATOM      5  H   UNL     1       2.213  -1.047  -3.089  0.00  0.00    +0.153 HD
BRANCH   2   6
ATOM      6  O   UNL     1       0.671  -0.465  -1.174  0.00  0.00    -0.445 OA
BRANCH   6   8
ATOM      7  C   UNL     1      -0.019   1.526   0.010  0.00  0.00    +0.055 C 
ATOM      8  C   UNL     1       0.002  -0.004   0.002  0.00  0.00    +0.107 C 
ATOM      9  C   UNL     1       0.742  -0.511   1.242  0.00  0.00    +0.055 C 
ATOM     10  C   UNL     1      -1.433  -0.534   0.013  0.00  0.00    +0.055 C 
ENDBRANCH   6   8
ENDBRANCH   2   6
ENDBRANCH   1   4
BRANCH   1  11
ATOM     11  C   UNL     1       4.110   1.433  -2.656  0.00  0.00    +0.328 C 
ATOM     12  O   UNL     1       3.206   2.099  -2.209  0.00  0.00    -0.249 OA
BRANCH  11  13
ATOM     13  O   UNL     1       5.180   2.032  -3.202  0.00  0.00    -0.461 OA
BRANCH  13  14
ATOM     14  C   UNL     1       5.184   3.461  -3.220  0.00  0.00    +0.266 C 
BRANCH  14  15
ATOM     15  C   UNL     1       6.474   3.959  -3.875  0.00  0.00    +0.190 C 
ATOM     16  C   UNL     1       6.536   5.486  -3.784  0.00  0.00    +0.178 C 
ATOM     17  C   UNL     1       7.800   5.981  -4.494  0.00  0.00    +0.179 C 
ATOM     18  C   UNL     1       7.785   5.485  -5.943  0.00  0.00    +0.201 C 
ATOM     19  C   UNL     1       7.675   3.958  -5.951  0.00  0.00    +0.279 C 
ATOM     20  O   UNL     1       6.495   3.564  -5.248  0.00  0.00    -0.340 OA
BRANCH  19  21
ATOM     21  O   UNL     1       8.821   3.394  -5.311  0.00  0.00    -0.365 OA
ATOM     22  H   UNL     1       8.819   2.428  -5.280  0.00  0.00    +0.213 HD
ENDBRANCH  19  21
BRANCH  18  23
ATOM     23  O   UNL     1       8.994   5.881  -6.595  0.00  0.00    -0.384 OA
ATOM     24  H   UNL     1       9.052   5.600  -7.519  0.00  0.00    +0.210 HD
ENDBRANCH  18  23
BRANCH  17  25
ATOM     25  O   UNL     1       8.955   5.471  -3.824  0.00  0.00    -0.386 OA
ATOM     26  H   UNL     1       9.793   5.746  -4.221  0.00  0.00    +0.210 HD
ENDBRANCH  17  25
BRANCH  16  27
ATOM     27  O   UNL     1       5.383   6.049  -4.411  0.00  0.00    -0.386 OA
ATOM     28  H   UNL     1       5.356   7.016  -4.391  0.00  0.00    +0.210 HD
ENDBRANCH  16  27
ENDBRANCH  14  15
ENDBRANCH  13  14
ENDBRANCH  11  13
ENDBRANCH   1  11
BRANCH   1  29
ATOM     29  C   UNL     1       4.872  -0.581  -1.426  0.00  0.00    +0.071 C 
BRANCH  29  30
ATOM     30  C   UNL     1       4.897  -2.088  -1.444  0.00  0.00    -0.020 A 
ATOM     31  C   UNL     1       4.081  -2.908  -0.764  0.00  0.00    +0.087 A 
ATOM     32  N   UNL     1       4.403  -4.211  -1.028  0.00  0.00    -0.360 N 
ATOM     33  H   UNL     1       3.953  -4.984  -0.652  0.00  0.00    +0.165 HD
ATOM     34  C   UNL     1       5.462  -4.263  -1.907  0.00  0.00    +0.047 A 
ATOM     35  C   UNL     1       5.814  -2.934  -2.211  0.00  0.00    +0.003 A 
ATOM     36  C   UNL     1       6.864  -2.677  -3.093  0.00  0.00    +0.010 A 
ATOM     37  C   UNL     1       7.544  -3.717  -3.661  0.00  0.00    +0.001 A 
ATOM     38  C   UNL     1       7.199  -5.029  -3.368  0.00  0.00    +0.002 A 
ATOM     39  C   UNL     1       6.171  -5.306  -2.493  0.00  0.00    +0.026 A 
ENDBRANCH  29  30
ENDBRANCH   1  29
TORSDOF 13
