REMARK  Name = ZINC26462409
REMARK  6 active torsions:
REMARK  status: ('A' for Active; 'I' for Inactive)
REMARK    1  A    between atoms: C_6  and  S_11
REMARK    2  A    between atoms: S_11  and  N_14
REMARK    3  A    between atoms: N_14  and  C_15
REMARK    4  A    between atoms: C_20  and  N_21
REMARK    5  A    between atoms: N_21  and  S_22
REMARK    6  A    between atoms: S_22  and  C_25
REMARK                            x       y       z     vdW  Elec       q    Type
REMARK                         _______ _______ _______ _____ _____    ______ ____
ROOT
ATOM      1  C   UNL     1      -0.033   7.717  -2.370  0.00  0.00    +0.070 A 
ATOM      2  C   UNL     1      -1.334   7.685  -1.892  0.00  0.00    +0.026 A 
ATOM      3  C   UNL     1      -2.378   7.387  -2.749  0.00  0.00    +0.002 A 
ATOM      4  C   UNL     1      -2.128   7.120  -4.082  0.00  0.00    +0.002 A 
ATOM      5  C   UNL     1      -0.834   7.149  -4.567  0.00  0.00    +0.026 A 
ATOM      6  C   UNL     1       0.218   7.453  -3.716  0.00  0.00    +0.070 A 
ENDROOT
BRANCH   1   7
ATOM      7  N   UNL     1       1.026   8.018  -1.505  0.00  0.00    -0.214 N 
ATOM      8  H   UNL     1       1.886   8.599  -1.869  0.00  0.00    +0.174 HD
BRANCH   7   9
ATOM      9  S   UNL     1       0.982   7.502   0.068  0.00  0.00    +0.072 S 
ATOM     10  O   UNL     1      -0.252   7.952   0.610  0.00  0.00    -0.150 OA
ATOM     11  O   UNL     1       2.236   7.844   0.643  0.00  0.00    -0.150 OA
BRANCH   9  17
ATOM     12  C   UNL     1      -0.446   0.948  -0.066  0.00  0.00    +0.001 A 
ATOM     13  C   UNL     1      -1.627   1.686  -0.076  0.00  0.00    +0.001 A 
ATOM     14  C   UNL     1      -1.604   3.047  -0.046  0.00  0.00    +0.008 A 
ATOM     15  C   UNL     1      -0.371   3.720  -0.017  0.00  0.00    -0.016 A 
ATOM     16  C   UNL     1      -0.306   5.124   0.009  0.00  0.00    +0.037 A 
ATOM     17  C   UNL     1       0.906   5.742   0.036  0.00  0.00    +0.109 A 
ATOM     18  C   UNL     1       2.088   5.003   0.040  0.00  0.00    +0.029 A 
ATOM     19  C   UNL     1       2.064   3.643   0.017  0.00  0.00    +0.010 A 
ATOM     20  C   UNL     1       0.831   2.969  -0.012  0.00  0.00    -0.018 A 
ATOM     21  C   UNL     1       0.767   1.565  -0.038  0.00  0.00    +0.008 A 
ENDBRANCH   9  17
ENDBRANCH   7   9
ENDBRANCH   1   7
BRANCH   6  22
ATOM     22  N   UNL     1       1.529   7.489  -4.207  0.00  0.00    -0.214 N 
ATOM     23  H   UNL     1       2.363   7.150  -3.574  0.00  0.00    +0.174 HD
BRANCH  22  24
ATOM     24  S   UNL     1       1.825   8.043  -5.739  0.00  0.00    +0.072 S 
ATOM     25  O   UNL     1       3.238   8.081  -5.891  0.00  0.00    -0.150 OA
ATOM     26  O   UNL     1       0.985   7.297  -6.609  0.00  0.00    -0.150 OA
BRANCH  24  27
ATOM     27  C   UNL     1       1.266   9.712  -5.807  0.00  0.00    +0.109 A 
ATOM     28  C   UNL     1      -0.047   9.981  -6.189  0.00  0.00    +0.029 A 
ATOM     29  C   UNL     1      -0.512  11.259  -6.246  0.00  0.00    +0.010 A 
ATOM     30  C   UNL     1       0.345  12.326  -5.928  0.00  0.00    -0.018 A 
ATOM     31  C   UNL     1      -0.098  13.659  -5.983  0.00  0.00    +0.008 A 
ATOM     32  C   UNL     1       0.760  14.666  -5.667  0.00  0.00    +0.001 A 
ATOM     33  C   UNL     1       2.075  14.398  -5.290  0.00  0.00    +0.001 A 
ATOM     34  C   UNL     1       2.539  13.120  -5.227  0.00  0.00    +0.008 A 
ATOM     35  C   UNL     1       1.681  12.053  -5.545  0.00  0.00    -0.016 A 
ATOM     36  C   UNL     1       2.124  10.720  -5.491  0.00  0.00    +0.037 A 
ENDBRANCH  24  27
ENDBRANCH  22  24
ENDBRANCH   6  22
TORSDOF 6
