REMARK  Name = ZINC13170172
REMARK  7 active torsions:
REMARK  status: ('A' for Active; 'I' for Inactive)
REMARK    1  A    between atoms: C_1  and  C_2
REMARK    2  A    between atoms: C_5  and  C_28
REMARK    3  A    between atoms: C_7  and  N_8
REMARK    4  A    between atoms: C_9  and  C_11
REMARK    5  A    between atoms: C_14  and  S_17
REMARK    6  A    between atoms: S_17  and  N_20
REMARK    7  A    between atoms: C_25  and  C_27
REMARK                            x       y       z     vdW  Elec       q    Type
REMARK                         _______ _______ _______ _____ _____    ______ ____
ROOT
ATOM      1  C   UNL     1      -6.111  -0.957  -0.138  0.00  0.00    +0.037 A 
ATOM      2  C   UNL     1      -7.310  -0.243  -0.120  0.00  0.00    +0.015 A 
ATOM      3  C   UNL     1      -8.510  -0.914  -0.240  0.00  0.00    +0.029 A 
ATOM      4  C   UNL     1      -8.527  -2.291  -0.367  0.00  0.00    +0.106 A 
ATOM      5  C   UNL     1      -7.342  -3.006  -0.380  0.00  0.00    +0.029 A 
ATOM      6  C   UNL     1      -6.135  -2.347  -0.266  0.00  0.00    +0.015 A 
ENDROOT
BRANCH   1   8
ATOM      7  N   UNL     1      -4.801   1.097   0.107  0.00  0.00    -0.281 N 
ATOM      8  C   UNL     1      -4.821  -0.245  -0.016  0.00  0.00    +0.248 C 
ATOM      9  O   UNL     1      -3.779  -0.870  -0.028  0.00  0.00    -0.270 OA
ATOM     10  H   UNL     1      -5.633   1.587   0.201  0.00  0.00    +0.155 HD
BRANCH   7  17
ATOM     11  C   UNL     1      -4.684   3.633   1.383  0.00  0.00    +0.045 C 
ATOM     12  C   UNL     1      -3.480   3.025   0.712  0.00  0.00    -0.029 A 
ATOM     13  C   UNL     1      -2.276   3.706   0.708  0.00  0.00    +0.006 A 
ATOM     14  C   UNL     1      -1.169   3.156   0.096  0.00  0.00    +0.015 A 
ATOM     15  C   UNL     1      -1.261   1.908  -0.523  0.00  0.00    +0.065 A 
ATOM     16  C   UNL     1      -2.477   1.223  -0.523  0.00  0.00    +0.038 A 
ATOM     17  C   UNL     1      -3.582   1.782   0.100  0.00  0.00    +0.037 A 
BRANCH  15  18
ATOM     18  C   UNL     1      -0.077   1.317  -1.180  0.00  0.00    +0.387 C 
ATOM     19  O   UNL     1      -0.160   0.231  -1.717  0.00  0.00    -0.241 OA
ATOM     20  O   UNL     1       1.093   1.985  -1.188  0.00  0.00    -0.241 OA
ENDBRANCH  15  18
ENDBRANCH   7  17
ENDBRANCH   1   8
BRANCH   4  21
ATOM     21  S   UNL     1     -10.064  -3.140  -0.513  0.00  0.00    +0.061 S 
ATOM     22  O   UNL     1     -11.000  -2.200  -1.022  0.00  0.00    -0.153 OA
ATOM     23  O   UNL     1      -9.788  -4.371  -1.167  0.00  0.00    -0.153 OA
BRANCH  21  24
ATOM     24  N   UNL     1     -10.561  -3.520   1.020  0.00  0.00    -0.174 NA
ATOM     25  C   UNL     1     -11.502  -2.651   1.740  0.00  0.00    +0.110 C 
ATOM     26  C   UNL     1     -12.688  -3.496   2.216  0.00  0.00    +0.017 C 
ATOM     27  C   UNL     1     -12.169  -4.677   3.039  0.00  0.00    +0.003 C 
ATOM     28  C   UNL     1     -11.271  -5.555   2.165  0.00  0.00    +0.020 C 
ATOM     29  C   UNL     1     -10.074  -4.737   1.685  0.00  0.00    +0.077 C 
ATOM     30  C   UNL     1      -9.250  -5.566   0.698  0.00  0.00    +0.026 C 
ENDBRANCH  21  24
ENDBRANCH   4  21
TORSDOF 5
