REMARK  Name = ZINC09933802
REMARK  8 active torsions:
REMARK  status: ('A' for Active; 'I' for Inactive)
REMARK    1  A    between atoms: C_1  and  C_2
REMARK    2  A    between atoms: C_2  and  N_3
REMARK    3  A    between atoms: N_3  and  C_4
REMARK    4  A    between atoms: N_3  and  S_15
REMARK    5  A    between atoms: C_4  and  C_5
REMARK    6  A    between atoms: C_5  and  N_6
REMARK    7  A    between atoms: C_7  and  C_9
REMARK    8  A    between atoms: S_15  and  C_18
REMARK                            x       y       z     vdW  Elec       q    Type
REMARK                         _______ _______ _______ _____ _____    ______ ____
ROOT
ATOM      1  C   UNL     1      -0.691   3.213  -1.897  0.00  0.00    +0.128 C 
ENDROOT
BRANCH   1   2
ATOM      2  N   UNL     1      -0.897   1.885  -1.312  0.00  0.00    -0.175 NA
BRANCH   2   3
ATOM      3  S   UNL     1      -0.017   1.417   0.010  0.00  0.00    +0.061 S 
ATOM      4  O   UNL     1       0.002  -0.004   0.002  0.00  0.00    -0.153 OA
ATOM      5  O   UNL     1       1.172   2.195   0.003  0.00  0.00    -0.153 OA
BRANCH   3   6
ATOM      6  C   UNL     1      -0.927   1.900   1.439  0.00  0.00    +0.106 A 
ATOM      7  C   UNL     1      -0.717   3.145   2.004  0.00  0.00    +0.029 A 
ATOM      8  C   UNL     1      -1.434   3.526   3.122  0.00  0.00    +0.017 A 
ATOM      9  C   UNL     1      -2.353   2.659   3.683  0.00  0.00    +0.018 A 
ATOM     10  C   UNL     1      -2.559   1.411   3.121  0.00  0.00    +0.017 A 
ATOM     11  C   UNL     1      -1.846   1.033   2.000  0.00  0.00    +0.029 A 
ATOM     12 BR   UNL     1      -3.329   3.177   5.218  0.00  0.00    -0.050 Br
ENDBRANCH   3   6
ENDBRANCH   2   3
BRANCH   2  14
ATOM     13  C   UNL     1      -3.267   1.280  -1.323  0.00  0.00    +0.022 C 
ATOM     14  C   UNL     1      -1.883   0.973  -1.897  0.00  0.00    +0.106 C 
ENDBRANCH   2  14
ENDBRANCH   1   2
BRANCH   1  15
ATOM     15  C   UNL     1       0.306   3.112  -3.053  0.00  0.00    +0.121 C 
BRANCH  15  16
ATOM     16  N   UNL     1       0.513   4.439  -3.637  0.00  0.00    -0.309 N 
ATOM     17  C   UNL     1       1.357   4.594  -4.676  0.00  0.00    +0.269 C 
ATOM     18  O   UNL     1       1.946   3.632  -5.129  0.00  0.00    -0.268 OA
ATOM     19  H   UNL     1       0.042   5.207  -3.276  0.00  0.00    +0.149 HD
BRANCH  17  20
ATOM     20  C   UNL     1       1.566   5.936  -5.267  0.00  0.00    +0.209 A 
ATOM     21  C   UNL     1       2.437   6.325  -6.399  0.00  0.00    +0.192 A 
ATOM     22  N   UNL     1       2.231   7.619  -6.487  0.00  0.00    -0.033 NA
ATOM     23  O   UNL     1       1.441   7.959  -5.638  0.00  0.00    -0.240 OA
ATOM     24  N   UNL     1       1.019   7.082  -4.922  0.00  0.00    -0.042 NA
ATOM     25  N   UNL     1       3.264   5.522  -7.174  0.00  0.00    -0.339 N 
ATOM     26  H   UNL     1       3.320   4.570  -6.997  0.00  0.00    +0.144 HD
ATOM     27  H   UNL     1       3.785   5.914  -7.892  0.00  0.00    +0.144 HD
ENDBRANCH  17  20
ENDBRANCH  15  16
ENDBRANCH   1  15
TORSDOF 7
