REMARK  Name = ZINC13069560
REMARK  7 active torsions:
REMARK  status: ('A' for Active; 'I' for Inactive)
REMARK    1  A    between atoms: C_1  and  C_2
REMARK    2  A    between atoms: C_2  and  N_45
REMARK    3  A    between atoms: C_3  and  C_4
REMARK    4  A    between atoms: C_3  and  N_45
REMARK    5  A    between atoms: C_16  and  C_17
REMARK    6  A    between atoms: C_16  and  N_45
REMARK    7  A    between atoms: N_19  and  C_20
REMARK                            x       y       z     vdW  Elec       q    Type
REMARK                         _______ _______ _______ _____ _____    ______ ____
ROOT
ATOM      1  N   UNL     1      -2.211   1.654  -1.141  0.00  0.00    +0.389 N 
ATOM      2  H   UNL     1      -1.796   1.798  -2.069  0.00  0.00    -0.081 HD
ENDROOT
BRANCH   1   4
ATOM      3  C   UNL     1      -2.910  -0.061   0.496  0.00  0.00    -0.017 C 
ATOM      4  C   UNL     1      -2.423   0.207  -0.930  0.00  0.00    -0.081 C 
ENDBRANCH   1   4
BRANCH   1   5
ATOM      5  C   UNL     1      -1.289   2.184  -0.115  0.00  0.00    -0.022 C 
BRANCH   5   6
ATOM      6  C   UNL     1       0.081   1.599  -0.344  0.00  0.00    +0.032 A 
ATOM      7  C   UNL     1       1.126   2.418  -0.726  0.00  0.00    +0.092 A 
ATOM      8  C   UNL     1       2.388   1.851  -0.938  0.00  0.00    +0.258 A 
ATOM      9  O   UNL     1       3.332   2.547  -1.276  0.00  0.00    -0.267 OA
ATOM     10  N   UNL     1       2.545   0.521  -0.763  0.00  0.00    -0.267 N 
ATOM     11  C   UNL     1       3.767  -0.045  -0.965  0.00  0.00    +0.111 A 
ATOM     12  C   UNL     1       3.949  -1.375  -0.795  0.00  0.00    +0.035 A 
ATOM     13  C   UNL     1       2.874  -2.189  -0.408  0.00  0.00    +0.020 A 
ATOM     14  C   UNL     1       1.648  -1.631  -0.203  0.00  0.00    +0.048 A 
ATOM     15  C   UNL     1       1.479  -0.246  -0.384  0.00  0.00    +0.140 A 
ATOM     16  N   UNL     1       0.281   0.301  -0.184  0.00  0.00    -0.236 NA
ATOM     17 BR   UNL     1       5.655  -2.138  -1.081  0.00  0.00    -0.049 Br
ENDBRANCH   5   6
ENDBRANCH   1   5
BRANCH   1  18
ATOM     18  C   UNL     1      -3.503   2.369  -1.077  0.00  0.00    +0.019 C 
BRANCH  18  19
ATOM     19  C   UNL     1      -4.275   2.087  -2.340  0.00  0.00    +0.201 C 
ATOM     20  O   UNL     1      -3.765   1.442  -3.231  0.00  0.00    -0.278 OA
ATOM     21  N   UNL     1      -5.533   2.553  -2.479  0.00  0.00    -0.286 N 
ATOM     22  H   UNL     1      -5.914   3.131  -1.799  0.00  0.00    +0.155 HD
BRANCH  21  23
ATOM     23  C   UNL     1      -6.288   2.202  -3.603  0.00  0.00    +0.053 A 
ATOM     24  C   UNL     1      -5.654   1.900  -4.801  0.00  0.00    +0.044 A 
ATOM     25  C   UNL     1      -6.403   1.549  -5.909  0.00  0.00    +0.043 A 
ATOM     26  C   UNL     1      -7.784   1.509  -5.827  0.00  0.00    +0.021 A 
ATOM     27  C   UNL     1      -8.419   1.814  -4.638  0.00  0.00    +0.023 A 
ATOM     28  C   UNL     1      -7.675   2.161  -3.525  0.00  0.00    +0.062 A 
ATOM     29 CL   UNL     1      -8.473   2.544  -2.032  0.00  0.00    -0.082 Cl
ATOM     30 CL   UNL     1      -5.611   1.164  -7.404  0.00  0.00    -0.083 Cl
ENDBRANCH  21  23
ENDBRANCH  18  19
ENDBRANCH   1  18
TORSDOF 6
