REMARK  Name = ZINC64137055
REMARK  11 active torsions:
REMARK  status: ('A' for Active; 'I' for Inactive)
REMARK    1  A    between atoms: C_1  and  C_2
REMARK    2  A    between atoms: C_2  and  C_3
REMARK    3  A    between atoms: C_3  and  N_4
REMARK    4  A    between atoms: C_11  and  O_31
REMARK    5  A    between atoms: C_13  and  C_16
REMARK    6  A    between atoms: C_16  and  N_18
REMARK    7  A    between atoms: C_22  and  C_25
REMARK    8  A    between atoms: C_25  and  C_26
REMARK    9  A    between atoms: C_26  and  O_28
REMARK   10  A    between atoms: O_28  and  C_29
REMARK   11  A    between atoms: C_29  and  C_30
REMARK                            x       y       z     vdW  Elec       q    Type
REMARK                         _______ _______ _______ _____ _____    ______ ____
ROOT
ATOM      1  N   UNL     1       0.738  -1.962  -1.265  0.00  0.00    -0.267 N 
ATOM      2  C   UNL     1       1.798  -2.651  -0.669  0.00  0.00    +0.043 A 
ATOM      3  C   UNL     1       2.990  -1.988  -0.402  0.00  0.00    +0.024 A 
ATOM      4  C   UNL     1       4.040  -2.668   0.183  0.00  0.00    +0.002 A 
ATOM      5  C   UNL     1       3.904  -4.006   0.502  0.00  0.00    +0.000 A 
ATOM      6  C   UNL     1       2.720  -4.667   0.239  0.00  0.00    +0.008 A 
ATOM      7  C   UNL     1       1.662  -3.993  -0.345  0.00  0.00    +0.007 A 
ATOM      8  C   UNL     1       0.375  -4.724  -0.615  0.00  0.00    +0.187 C 
ATOM      9  C   UNL     1      -0.486  -3.967  -1.581  0.00  0.00    +0.111 C 
ATOM     10  C   UNL     1      -0.286  -2.660  -1.852  0.00  0.00    +0.255 C 
ATOM     11  O   UNL     1      -1.107  -2.030  -2.721  0.00  0.00    -0.270 OA
ENDROOT
BRANCH   9  12
ATOM     12  C   UNL     1      -1.546  -4.644  -2.227  0.00  0.00    +0.273 C 
ATOM     13  O   UNL     1      -2.261  -4.048  -3.018  0.00  0.00    -0.268 OA
BRANCH  12  14
ATOM     14  N   UNL     1      -1.768  -5.944  -1.970  0.00  0.00    -0.152 NA
ATOM     15  C   UNL     1      -2.764  -6.580  -2.576  0.00  0.00    +0.163 A 
ATOM     16  N   UNL     1      -3.655  -6.090  -3.484  0.00  0.00    -0.339 N 
ATOM     17  H   UNL     1      -3.611  -5.163  -3.768  0.00  0.00    +0.167 HD
ATOM     18  C   UNL     1      -4.606  -6.926  -3.985  0.00  0.00    +0.035 A 
ATOM     19  C   UNL     1      -4.604  -8.189  -3.549  0.00  0.00    +0.070 A 
ATOM     20  S   UNL     1      -3.227  -8.189  -2.416  0.00  0.00    -0.060 S 
BRANCH  18  21
ATOM     21  C   UNL     1      -5.620  -6.446  -4.991  0.00  0.00    +0.174 C 
BRANCH  21  22
ATOM     22  C   UNL     1      -6.780  -5.810  -4.270  0.00  0.00    +0.313 C 
ATOM     23  O   UNL     1      -6.784  -5.753  -3.063  0.00  0.00    -0.250 OA
BRANCH  22  24
ATOM     24  O   UNL     1      -7.811  -5.308  -4.969  0.00  0.00    -0.465 OA
BRANCH  24  25
ATOM     25  C   UNL     1      -8.877  -4.720  -4.221  0.00  0.00    +0.229 C 
ATOM     26  C   UNL     1      -9.951  -4.206  -5.181  0.00  0.00    +0.048 C 
ENDBRANCH  24  25
ENDBRANCH  22  24
ENDBRANCH  21  22
ENDBRANCH  18  21
ENDBRANCH  12  14
ENDBRANCH   9  12
BRANCH   8  27
ATOM     27  O   UNL     1      -0.336  -4.890   0.614  0.00  0.00    -0.382 OA
ATOM     28  H   UNL     1      -1.179  -5.354   0.520  0.00  0.00    +0.211 HD
ENDBRANCH   8  27
BRANCH   1  29
ATOM     29  C   UNL     1       0.718  -0.497  -1.257  0.00  0.00    +0.114 C 
BRANCH  29  31
ATOM     30  C   UNL     1      -0.019   1.526   0.010  0.00  0.00    +0.005 C 
ATOM     31  C   UNL     1       0.002  -0.004   0.002  0.00  0.00    +0.016 C 
ENDBRANCH  29  31
ENDBRANCH   1  29
TORSDOF 9
