REMARK  Name = ZINC63874924
REMARK  8 active torsions:
REMARK  status: ('A' for Active; 'I' for Inactive)
REMARK    1  A    between atoms: C_1  and  O_2
REMARK    2  A    between atoms: O_2  and  C_3
REMARK    3  A    between atoms: C_3  and  C_5
REMARK    4  A    between atoms: C_7  and  N_17
REMARK    5  A    between atoms: C_18  and  C_20
REMARK    6  A    between atoms: C_20  and  N_21
REMARK    7  A    between atoms: C_24  and  C_29
REMARK    8  A    between atoms: C_29  and  C_30
REMARK                            x       y       z     vdW  Elec       q    Type
REMARK                         _______ _______ _______ _____ _____    ______ ____
ROOT
ATOM      1  C   UNL     1       1.159  -6.266   1.329  0.00  0.00    +0.213 C 
ENDROOT
BRANCH   1   2
ATOM      2  N   UNL     1       2.263  -7.186   1.612  0.00  0.00    -0.216 N 
ATOM      3  C   UNL     1       2.815  -8.010   0.700  0.00  0.00    +0.244 C 
ATOM      4  O   UNL     1       2.504  -8.125  -0.466  0.00  0.00    -0.273 OA
ATOM      5  C   UNL     1       3.908  -8.762   1.434  0.00  0.00    +0.165 C 
ATOM      6  N   UNL     1       3.837  -8.224   2.804  0.00  0.00    -0.287 N 
ATOM      7  C   UNL     1       2.852  -7.308   2.807  0.00  0.00    +0.310 C 
ATOM      8  O   UNL     1       2.530  -6.666   3.788  0.00  0.00    -0.252 OA
ATOM      9  H   UNL     1       4.395  -8.478   3.555  0.00  0.00    +0.151 HD
BRANCH   5  10
ATOM     10  C   UNL     1       3.624 -10.265   1.427  0.00  0.00    +0.065 C 
BRANCH  10  11
ATOM     11  C   UNL     1       4.782 -10.998   2.054  0.00  0.00    -0.039 C 
ATOM     12  C   UNL     1       4.892 -11.395   3.342  0.00  0.00    -0.001 A 
ATOM     13  C   UNL     1       3.999 -11.269   4.501  0.00  0.00    +0.010 A 
ATOM     14  C   UNL     1       4.393 -11.779   5.691  0.00  0.00    +0.001 A 
ATOM     15  C   UNL     1       5.629 -12.422   5.844  0.00  0.00    +0.002 A 
ATOM     16  C   UNL     1       6.502 -12.577   4.826  0.00  0.00    +0.026 A 
ATOM     17  C   UNL     1       6.191 -12.080   3.531  0.00  0.00    +0.043 A 
ATOM     18  N   UNL     1       6.859 -12.104   2.403  0.00  0.00    -0.380 N 
ATOM     19  C   UNL     1       6.055 -11.442   1.369  0.00  0.00    +0.144 C 
ATOM     20  H   UNL     1       7.736 -12.497   2.273  0.00  0.00    +0.160 HD
ENDBRANCH  10  11
ENDBRANCH   5  10
ENDBRANCH   1   2
BRANCH   1  22
ATOM     21  N   UNL     1       0.876  -3.933   0.558  0.00  0.00    -0.301 N 
ATOM     22  C   UNL     1       1.713  -4.940   0.876  0.00  0.00    +0.232 C 
ATOM     23  O   UNL     1       2.913  -4.779   0.798  0.00  0.00    -0.274 OA
ATOM     24  H   UNL     1      -0.083  -4.061   0.621  0.00  0.00    +0.150 HD
BRANCH  21  26
ATOM     25  C   UNL     1       0.657  -2.104  -1.120  0.00  0.00    +0.155 C 
ATOM     26  C   UNL     1       1.415  -2.644   0.118  0.00  0.00    +0.153 C 
ATOM     27  S   UNL     1       3.087  -2.829  -0.636  0.00  0.00    -0.106 S 
ATOM     28  C   UNL     1       2.584  -2.908  -2.337  0.00  0.00    -0.013 C 
ATOM     29  C   UNL     1       1.340  -2.505  -2.407  0.00  0.00    -0.044 C 
ATOM     30  C   UNL     1       0.601  -2.397  -3.747  0.00  0.00    +0.032 C 
ATOM     31  C   UNL     1       1.316  -1.343  -4.590  0.00  0.00    +0.004 C 
ATOM     32  C   UNL     1       2.535  -1.904  -5.282  0.00  0.00    +0.001 C 
ATOM     33  C   UNL     1       3.724  -2.187  -4.393  0.00  0.00    +0.005 C 
ATOM     34  C   UNL     1       3.437  -3.393  -3.492  0.00  0.00    +0.042 C 
BRANCH  25  35
ATOM     35  C   UNL     1       0.598  -0.600  -1.043  0.00  0.00    +0.317 C 
ATOM     36  O   UNL     1       1.088   0.070  -1.921  0.00  0.00    -0.250 OA
BRANCH  35  38
ATOM     37  C   UNL     1      -0.017   1.425   0.010  0.00  0.00    +0.280 C 
ATOM     38  O   UNL     1       0.002  -0.004   0.002  0.00  0.00    -0.467 OA
ENDBRANCH  35  38
ENDBRANCH  25  35
ENDBRANCH  21  26
ENDBRANCH   1  22
TORSDOF 7
