REMARK  Name = ZINC12636215
REMARK  6 active torsions:
REMARK  status: ('A' for Active; 'I' for Inactive)
REMARK    1  A    between atoms: C_3  and  C_6
REMARK    2  A    between atoms: N_8  and  N_9
REMARK    3  A    between atoms: C_10  and  C_12
REMARK    4  A    between atoms: C_12  and  S_13
REMARK    5  A    between atoms: S_13  and  C_14
REMARK    6  A    between atoms: C_21  and  C_23
REMARK                            x       y       z     vdW  Elec       q    Type
REMARK                         _______ _______ _______ _____ _____    ______ ____
ROOT
ATOM      1  C   UNL     1       0.875   4.427  -0.806  0.00  0.00    +0.109 A 
ATOM      2  C   UNL     1       1.767   3.395  -0.389  0.00  0.00    +0.043 A 
ATOM      3  C   UNL     1       1.419   2.039  -0.001  0.00  0.00    -0.025 A 
ATOM      4  C   UNL     1       2.441   1.230   0.360  0.00  0.00    -0.004 A 
ATOM      5  S   UNL     1       3.903   2.224   0.201  0.00  0.00    -0.073 S 
ATOM      6  C   UNL     1       3.146   3.720  -0.347  0.00  0.00    +0.113 A 
ATOM      7  N   UNL     1       3.621   4.907  -0.670  0.00  0.00    -0.225 NA
ATOM      8  C   UNL     1       2.737   5.822  -1.050  0.00  0.00    +0.135 A 
ATOM      9  N   UNL     1       1.441   5.593  -1.114  0.00  0.00    -0.225 NA
ATOM     10  C   UNL     1       2.354  -0.200   0.799  0.00  0.00    +0.043 C 
ATOM     11  C   UNL     1       0.891  -0.518   1.138  0.00  0.00    +0.005 C 
ATOM     12  C   UNL     1       0.002  -0.004   0.002  0.00  0.00    +0.005 C 
ATOM     13  C   UNL     1      -0.019   1.524   0.010  0.00  0.00    +0.037 C 
ENDROOT
BRANCH   8  14
ATOM     14  C   UNL     1       3.242   7.191  -1.428  0.00  0.00    +0.057 C 
ATOM     15  C   UNL     1       2.201   8.286  -1.667  0.00  0.00    +0.012 C 
ATOM     16  C   UNL     1       2.959   7.680  -2.850  0.00  0.00    +0.012 C 
ENDBRANCH   8  14
BRANCH   1  17
ATOM     17  S   UNL     1      -0.865   4.175  -0.909  0.00  0.00    -0.096 S 
BRANCH  17  18
ATOM     18  C   UNL     1      -1.387   5.812  -1.478  0.00  0.00    +0.173 C 
BRANCH  18  20
ATOM     19  N   UNL     1      -3.501   6.956  -2.060  0.00  0.00    -0.233 N 
ATOM     20  C   UNL     1      -2.885   5.833  -1.642  0.00  0.00    +0.239 C 
ATOM     21  O   UNL     1      -3.536   4.839  -1.398  0.00  0.00    -0.273 OA
ATOM     22  H   UNL     1      -2.981   7.751  -2.255  0.00  0.00    +0.173 HD
BRANCH  19  25
ATOM     23  C   UNL     1      -5.510   8.100  -2.630  0.00  0.00    +0.295 C 
ATOM     24  O   UNL     1      -4.857   9.097  -2.875  0.00  0.00    -0.265 OA
ATOM     25  N   UNL     1      -4.894   6.976  -2.212  0.00  0.00    -0.228 N 
ATOM     26  H   UNL     1      -5.414   6.181  -2.017  0.00  0.00    +0.173 HD
BRANCH  23  29
ATOM     27  C   UNL     1      -9.053   8.762  -3.210  0.00  0.00    +0.042 A 
ATOM     28  C   UNL     1      -7.715   9.186  -3.202  0.00  0.00    +0.054 A 
ATOM     29  C   UNL     1      -6.968   8.120  -2.789  0.00  0.00    +0.190 A 
ATOM     30  O   UNL     1      -7.805   7.088  -2.558  0.00  0.00    -0.458 OA
ATOM     31  C   UNL     1      -9.064   7.473  -2.806  0.00  0.00    +0.196 A 
ENDBRANCH  23  29
ENDBRANCH  19  25
ENDBRANCH  18  20
ENDBRANCH  17  18
ENDBRANCH   1  17
TORSDOF 6
