REMARK  Name = ZINC64518000
REMARK  8 active torsions:
REMARK  status: ('A' for Active; 'I' for Inactive)
REMARK    1  A    between atoms: C_1  and  N_2
REMARK    2  A    between atoms: C_8  and  N_13
REMARK    3  A    between atoms: C_14  and  C_16
REMARK    4  A    between atoms: C_16  and  C_17
REMARK    5  A    between atoms: C_17  and  C_18
REMARK    6  A    between atoms: C_20  and  C_23
REMARK    7  A    between atoms: C_23  and  S_24
REMARK    8  A    between atoms: S_24  and  C_25
REMARK                            x       y       z     vdW  Elec       q    Type
REMARK                         _______ _______ _______ _____ _____    ______ ____
ROOT
ATOM      1  C   UNL     1      -0.274 -10.733   1.139  0.00  0.00    +0.228 A 
ATOM      2  N   UNL     1      -1.375 -11.321   1.516  0.00  0.00    -0.195 NA
ATOM      3  C   UNL     1      -1.090 -12.464   2.150  0.00  0.00    +0.182 A 
ATOM      4  N   UNL     1       0.203 -12.618   2.183  0.00  0.00    -0.060 NA
ATOM      5  O   UNL     1       0.760 -11.493   1.519  0.00  0.00    -0.338 OA
ENDROOT
BRANCH   1   6
ATOM      6  C   UNL     1      -0.182  -9.424   0.396  0.00  0.00    +0.108 C 
BRANCH   6   7
ATOM      7  C   UNL     1      -0.092  -8.274   1.400  0.00  0.00    +0.105 C 
BRANCH   7   9
ATOM      8  N   UNL     1       0.089  -5.807   1.342  0.00  0.00    -0.285 N 
ATOM      9  C   UNL     1       0.000  -6.965   0.658  0.00  0.00    +0.218 C 
ATOM     10  O   UNL     1      -0.006  -6.954  -0.555  0.00  0.00    -0.275 OA
ATOM     11  H   UNL     1       0.171  -5.820   2.308  0.00  0.00    +0.155 HD
BRANCH   8  19
ATOM     12  C   UNL     1       1.455   1.228  -0.458  0.00  0.00    +0.142 C 
ATOM     13  N   UNL     1       1.026  -0.166  -0.324  0.00  0.00    -0.237 N 
ATOM     14  C   UNL     1       0.192  -0.790  -1.174  0.00  0.00    +0.254 C 
ATOM     15  O   UNL     1      -0.318  -0.294  -2.159  0.00  0.00    -0.270 OA
ATOM     16  C   UNL     1      -0.002  -2.178  -0.712  0.00  0.00    +0.050 A 
ATOM     17  C   UNL     1      -0.736  -3.260  -1.178  0.00  0.00    +0.015 A 
ATOM     18  C   UNL     1      -0.702  -4.460  -0.493  0.00  0.00    +0.024 A 
ATOM     19  C   UNL     1       0.063  -4.591   0.660  0.00  0.00    +0.034 A 
ATOM     20  C   UNL     1       0.805  -3.511   1.138  0.00  0.00    +0.037 A 
ATOM     21  C   UNL     1       0.776  -2.307   0.458  0.00  0.00    +0.051 A 
ATOM     22  C   UNL     1       1.420  -0.992   0.662  0.00  0.00    +0.254 C 
ATOM     23  O   UNL     1       2.175  -0.705   1.569  0.00  0.00    -0.270 OA
ENDBRANCH   8  19
ENDBRANCH   7   9
ENDBRANCH   6   7
ENDBRANCH   1   6
BRANCH   3  24
ATOM     24  C   UNL     1      -2.101 -13.419   2.731  0.00  0.00    +0.152 C 
BRANCH  24  25
ATOM     25  S   UNL     1      -2.568 -14.643   1.476  0.00  0.00    -0.107 S 
BRANCH  25  26
ATOM     26  C   UNL     1      -3.773 -15.702   2.322  0.00  0.00    +0.236 C 
ATOM     27  N   UNL     1      -3.170 -16.290   3.525  0.00  0.00    -0.355 N 
ATOM     28  C   UNL     1      -3.865 -15.886   4.548  0.00  0.00    +0.061 A 
ATOM     29  C   UNL     1      -3.753 -16.134   5.993  0.00  0.00    +0.029 A 
ATOM     30  C   UNL     1      -4.638 -15.568   6.836  0.00  0.00    +0.022 A 
ATOM     31  C   UNL     1      -5.683 -14.735   6.391  0.00  0.00    +0.043 A 
ATOM     32  C   UNL     1      -5.875 -14.443   5.088  0.00  0.00    +0.047 A 
ATOM     33  C   UNL     1      -4.970 -15.006   4.078  0.00  0.00    +0.062 A 
ATOM     34  N   UNL     1      -4.915 -14.900   2.780  0.00  0.00    -0.355 N 
ATOM     35 CL   UNL     1      -6.766 -14.057   7.566  0.00  0.00    -0.083 Cl
ATOM     36  H   UNL     1      -2.395 -16.873   3.552  0.00  0.00    +0.162 HD
ATOM     37  H   UNL     1      -5.517 -14.386   2.219  0.00  0.00    +0.162 HD
ENDBRANCH  25  26
ENDBRANCH  24  25
ENDBRANCH   3  24
TORSDOF 7
