REMARK  Name = ZINC13074594
REMARK  11 active torsions:
REMARK  status: ('A' for Active; 'I' for Inactive)
REMARK    1  A    between atoms: C_1  and  C_2
REMARK    2  A    between atoms: C_4  and  C_29
REMARK    3  A    between atoms: C_6  and  C_28
REMARK    4  A    between atoms: C_7  and  S_8
REMARK    5  A    between atoms: S_8  and  N_11
REMARK    6  A    between atoms: N_14  and  S_17
REMARK    7  A    between atoms: S_17  and  C_20
REMARK    8  A    between atoms: C_24  and  C_26
REMARK    9  A    between atoms: C_29  and  C_30
REMARK   10  A    between atoms: C_29  and  C_31
REMARK   11  A    between atoms: C_29  and  C_32
REMARK                            x       y       z     vdW  Elec       q    Type
REMARK                         _______ _______ _______ _____ _____    ______ ____
ROOT
ATOM      1  N   UNL     1      -3.619   3.873  -0.870  0.00  0.00    -0.174 NA
ATOM      2  C   UNL     1      -3.581   5.229  -1.436  0.00  0.00    +0.126 C 
ATOM      3  C   UNL     1      -2.961   5.152  -2.842  0.00  0.00    +0.126 C 
ATOM      4  N   UNL     1      -3.642   4.089  -3.595  0.00  0.00    -0.174 NA
ATOM      5  C   UNL     1      -3.684   2.734  -3.027  0.00  0.00    +0.126 C 
ATOM      6  C   UNL     1      -4.299   2.810  -1.623  0.00  0.00    +0.126 C 
ENDROOT
BRANCH   1   7
ATOM      7  S   UNL     1      -2.913   3.550   0.593  0.00  0.00    +0.061 S 
ATOM      8  O   UNL     1      -3.607   2.438   1.141  0.00  0.00    -0.153 OA
ATOM      9  O   UNL     1      -2.806   4.793   1.275  0.00  0.00    -0.153 OA
BRANCH   7  16
ATOM     10  C   UNL     1      -0.581   5.410   0.088  0.00  0.00    +0.046 C 
ATOM     11  C   UNL     1      -0.266   3.937   0.051  0.00  0.00    -0.024 A 
ATOM     12  C   UNL     1       1.024   3.512  -0.207  0.00  0.00    +0.009 A 
ATOM     13  C   UNL     1       1.314   2.161  -0.235  0.00  0.00    -0.041 A 
ATOM     14  C   UNL     1       0.314   1.234  -0.012  0.00  0.00    +0.009 A 
ATOM     15  C   UNL     1      -0.978   1.658   0.241  0.00  0.00    -0.024 A 
ATOM     16  C   UNL     1      -1.268   3.010   0.270  0.00  0.00    +0.111 A 
ATOM     17  C   UNL     1      -2.069   0.648   0.485  0.00  0.00    +0.046 C 
BRANCH  13  18
ATOM     18  C   UNL     1       2.722   1.698  -0.510  0.00  0.00    -0.013 C 
ATOM     19  C   UNL     1       3.661   2.256   0.562  0.00  0.00    +0.015 C 
ATOM     20  C   UNL     1       2.770   0.169  -0.485  0.00  0.00    +0.015 C 
ATOM     21  C   UNL     1       3.164   2.200  -1.886  0.00  0.00    +0.015 C 
ENDBRANCH  13  18
ENDBRANCH   7  16
ENDBRANCH   1   7
BRANCH   4  22
ATOM     22  S   UNL     1      -4.348   4.412  -5.058  0.00  0.00    +0.061 S 
ATOM     23  O   UNL     1      -3.692   5.559  -5.580  0.00  0.00    -0.153 OA
ATOM     24  O   UNL     1      -4.404   3.179  -5.762  0.00  0.00    -0.153 OA
BRANCH  22  25
ATOM     25  C   UNL     1      -6.014   4.886  -4.738  0.00  0.00    +0.106 A 
ATOM     26  C   UNL     1      -7.011   3.926  -4.706  0.00  0.00    +0.028 A 
ATOM     27  C   UNL     1      -8.321   4.289  -4.451  0.00  0.00    +0.003 A 
ATOM     28  C   UNL     1      -8.644   5.613  -4.237  0.00  0.00    +0.015 A 
ATOM     29  C   UNL     1      -7.645   6.587  -4.273  0.00  0.00    +0.065 A 
ATOM     30  C   UNL     1      -6.323   6.213  -4.526  0.00  0.00    +0.043 A 
BRANCH  29  31
ATOM     31  C   UNL     1      -7.983   8.007  -4.046  0.00  0.00    +0.387 C 
ATOM     32  O   UNL     1      -7.112   8.852  -4.078  0.00  0.00    -0.241 OA
ATOM     33  O   UNL     1      -9.259   8.364  -3.802  0.00  0.00    -0.241 OA
ENDBRANCH  29  31
ENDBRANCH  22  25
ENDBRANCH   4  22
TORSDOF 6
