REMARK  Name = ZINC40043549
REMARK  8 active torsions:
REMARK  status: ('A' for Active; 'I' for Inactive)
REMARK    1  A    between atoms: C_1  and  C_2
REMARK    2  A    between atoms: C_4  and  C_39
REMARK    3  A    between atoms: N_15  and  C_29
REMARK    4  A    between atoms: C_16  and  C_18
REMARK    5  A    between atoms: C_21  and  O_24
REMARK    6  A    between atoms: O_24  and  C_25
REMARK    7  A    between atoms: C_25  and  C_26
REMARK    8  A    between atoms: C_29  and  C_30
REMARK                            x       y       z     vdW  Elec       q    Type
REMARK                         _______ _______ _______ _____ _____    ______ ____
ROOT
ATOM      1  C   UNL     1      -0.018   1.503   0.010  0.00  0.00    +0.044 C 
ATOM      2  C   UNL     1       0.002  -0.004   0.002  0.00  0.00    -0.049 A 
ATOM      3  C   UNL     1       0.006  -0.689  -1.205  0.00  0.00    +0.010 A 
ATOM      4  C   UNL     1       0.021  -2.065  -1.235  0.00  0.00    -0.007 A 
ATOM      5  C   UNL     1       0.035  -2.790  -0.043  0.00  0.00    +0.142 A 
ATOM      6  C   UNL     1       0.037  -2.086   1.172  0.00  0.00    +0.065 A 
ATOM      7  C   UNL     1       0.023  -0.692   1.183  0.00  0.00    +0.018 A 
ATOM      8  C   UNL     1       0.068  -2.849   2.446  0.00  0.00    +0.199 A 
ATOM      9  O   UNL     1      -0.097  -2.332   3.537  0.00  0.00    -0.287 OA
ATOM     10  C   UNL     1       0.314  -4.283   2.265  0.00  0.00    +0.072 A 
ATOM     11  C   UNL     1       0.294  -4.850   1.022  0.00  0.00    +0.199 A 
ATOM     12  O   UNL     1       0.043  -4.141  -0.096  0.00  0.00    -0.449 OA
ATOM     13  C   UNL     1       0.583  -6.288   1.166  0.00  0.00    +0.283 C 
ATOM     14  O   UNL     1       0.643  -7.081   0.247  0.00  0.00    -0.267 OA
ATOM     15  N   UNL     1       0.770  -6.596   2.465  0.00  0.00    -0.279 N 
ATOM     16  C   UNL     1       0.614  -5.362   3.253  0.00  0.00    +0.145 C 
ATOM     17  C   UNL     1       0.023  -2.790  -2.557  0.00  0.00    +0.047 C 
ENDROOT
BRANCH  16  18
ATOM     18  C   UNL     1      -0.527  -5.508   4.226  0.00  0.00    -0.022 A 
ATOM     19  C   UNL     1      -1.668  -6.194   3.854  0.00  0.00    +0.009 A 
ATOM     20  C   UNL     1      -2.716  -6.329   4.744  0.00  0.00    +0.046 A 
ATOM     21  C   UNL     1      -2.622  -5.775   6.013  0.00  0.00    +0.121 A 
ATOM     22  C   UNL     1      -1.476  -5.088   6.384  0.00  0.00    +0.046 A 
ATOM     23  C   UNL     1      -0.429  -4.960   5.492  0.00  0.00    +0.009 A 
BRANCH  21  24
ATOM     24  O   UNL     1      -3.652  -5.906   6.890  0.00  0.00    -0.483 OA
BRANCH  24  25
ATOM     25  C   UNL     1      -3.486  -5.310   8.179  0.00  0.00    +0.324 C 
BRANCH  25  26
ATOM     26  C   UNL     1      -4.719  -5.556   9.008  0.00  0.00    +0.248 C 
ATOM     27  O   UNL     1      -5.649  -6.180   8.542  0.00  0.00    -0.272 OA
ATOM     28  N   UNL     1      -4.789  -5.083  10.268  0.00  0.00    -0.327 N 
ATOM     29  H   UNL     1      -4.045  -4.584  10.641  0.00  0.00    +0.145 HD
ATOM     30  H   UNL     1      -5.583  -5.241  10.803  0.00  0.00    +0.145 HD
ENDBRANCH  25  26
ENDBRANCH  24  25
ENDBRANCH  21  24
ENDBRANCH  16  18
BRANCH  15  31
ATOM     31  C   UNL     1       1.076  -7.926   2.999  0.00  0.00    +0.144 C 
BRANCH  31  32
ATOM     32  C   UNL     1       2.570  -8.117   3.045  0.00  0.00    -0.026 A 
ATOM     33  C   UNL     1       3.230  -8.651   1.954  0.00  0.00    +0.009 A 
ATOM     34  C   UNL     1       4.601  -8.829   1.990  0.00  0.00    +0.050 A 
ATOM     35  C   UNL     1       5.316  -8.472   3.122  0.00  0.00    +0.166 A 
ATOM     36  C   UNL     1       4.651  -7.934   4.221  0.00  0.00    +0.167 A 
ATOM     37  C   UNL     1       3.278  -7.754   4.175  0.00  0.00    +0.054 A 
ATOM     38  O   UNL     1       5.567  -7.669   5.198  0.00  0.00    -0.453 OA
ATOM     39  C   UNL     1       6.739  -8.426   4.842  0.00  0.00    +0.466 C 
ATOM     40  O   UNL     1       6.648  -8.543   3.410  0.00  0.00    -0.453 OA
ENDBRANCH  31  32
ENDBRANCH  15  31
TORSDOF 6
