REMARK  Name = ZINC63229019
REMARK  9 active torsions:
REMARK  status: ('A' for Active; 'I' for Inactive)
REMARK    1  A    between atoms: C_1  and  O_2
REMARK    2  A    between atoms: O_2  and  C_3
REMARK    3  A    between atoms: C_6  and  N_9
REMARK    4  A    between atoms: N_9  and  S_10
REMARK    5  A    between atoms: S_10  and  C_13
REMARK    6  A    between atoms: C_15  and  N_25
REMARK    7  A    between atoms: C_18  and  N_19
REMARK    8  A    between atoms: C_26  and  C_28
REMARK    9  A    between atoms: C_28  and  C_29
REMARK                            x       y       z     vdW  Elec       q    Type
REMARK                         _______ _______ _______ _____ _____    ______ ____
ROOT
ATOM      1  C   UNL     1      -4.224  -5.039  -0.339  0.00  0.00    +0.131 A 
ATOM      2  C   UNL     1      -4.715  -6.267   0.058  0.00  0.00    +0.054 A 
ATOM      3  C   UNL     1      -3.848  -7.239   0.541  0.00  0.00    +0.035 A 
ATOM      4  C   UNL     1      -2.487  -6.975   0.625  0.00  0.00    +0.025 A 
ATOM      5  C   UNL     1      -1.996  -5.748   0.228  0.00  0.00    +0.027 A 
ATOM      6  C   UNL     1      -2.862  -4.778  -0.261  0.00  0.00    +0.057 A 
ENDROOT
BRANCH   6   7
ATOM      7  N   UNL     1      -2.364  -3.536  -0.668  0.00  0.00    -0.324 N 
ATOM      8  C   UNL     1      -2.145  -2.452   0.302  0.00  0.00    +0.133 C 
ATOM      9  C   UNL     1      -0.723  -1.912   0.112  0.00  0.00    +0.178 C 
ATOM     10  O   UNL     1      -0.525  -1.581  -1.265  0.00  0.00    -0.377 OA
ATOM     11  C   UNL     1      -0.625  -2.695  -2.155  0.00  0.00    +0.178 C 
ATOM     12  C   UNL     1      -2.037  -3.277  -2.080  0.00  0.00    +0.133 C 
ENDBRANCH   6   7
BRANCH   3  13
ATOM     13  N   UNL     1      -4.346  -8.485   0.944  0.00  0.00    -0.285 N 
ATOM     14  C   UNL     1      -3.619  -9.600   0.737  0.00  0.00    +0.221 C 
ATOM     15  O   UNL     1      -2.498  -9.518   0.282  0.00  0.00    -0.275 OA
ATOM     16  H   UNL     1      -5.215  -8.544   1.372  0.00  0.00    +0.155 HD
BRANCH  14  17
ATOM     17  C   UNL     1      -4.199 -10.951   1.072  0.00  0.00    +0.129 C 
BRANCH  17  18
ATOM     18  C   UNL     1      -3.191 -12.024   0.749  0.00  0.00    -0.033 C 
ATOM     19  C   UNL     1      -2.312 -12.597   1.603  0.00  0.00    -0.001 A 
ATOM     20  C   UNL     1      -2.042 -12.400   3.032  0.00  0.00    +0.010 A 
ATOM     21  C   UNL     1      -1.077 -13.139   3.625  0.00  0.00    +0.001 A 
ATOM     22  C   UNL     1      -0.330 -14.086   2.911  0.00  0.00    +0.002 A 
ATOM     23  C   UNL     1      -0.521 -14.324   1.596  0.00  0.00    +0.026 A 
ATOM     24  C   UNL     1      -1.511 -13.604   0.871  0.00  0.00    +0.043 A 
ATOM     25  N   UNL     1      -1.879 -13.651  -0.386  0.00  0.00    -0.380 N 
ATOM     26  C   UNL     1      -2.962 -12.682  -0.593  0.00  0.00    +0.145 C 
ATOM     27  H   UNL     1      -1.502 -14.232  -1.065  0.00  0.00    +0.160 HD
ENDBRANCH  17  18
ENDBRANCH  14  17
ENDBRANCH   3  13
BRANCH   1  28
ATOM     28  S   UNL     1      -5.324  -3.807  -0.952  0.00  0.00    +0.074 S 
ATOM     29  O   UNL     1      -5.006  -2.603  -0.268  0.00  0.00    -0.150 OA
ATOM     30  O   UNL     1      -6.626  -4.377  -0.928  0.00  0.00    -0.150 OA
BRANCH  28  31
ATOM     31  N   UNL     1      -4.944  -3.561  -2.545  0.00  0.00    -0.216 N 
ATOM     32  H   UNL     1      -4.572  -2.711  -2.829  0.00  0.00    +0.174 HD
BRANCH  31  36
ATOM     33  C   UNL     1      -5.588  -6.591  -5.334  0.00  0.00    +0.120 A 
ATOM     34  C   UNL     1      -5.987  -5.293  -5.616  0.00  0.00    +0.047 A 
ATOM     35  C   UNL     1      -5.774  -4.288  -4.693  0.00  0.00    +0.028 A 
ATOM     36  C   UNL     1      -5.161  -4.578  -3.481  0.00  0.00    +0.048 A 
ATOM     37  C   UNL     1      -4.762  -5.878  -3.199  0.00  0.00    +0.028 A 
ATOM     38  C   UNL     1      -4.980  -6.883  -4.122  0.00  0.00    +0.047 A 
BRANCH  33  40
ATOM     39  C   UNL     1      -6.428  -7.209  -7.471  0.00  0.00    +0.277 C 
ATOM     40  O   UNL     1      -5.798  -7.580  -6.244  0.00  0.00    -0.495 OA
ENDBRANCH  33  40
ENDBRANCH  31  36
ENDBRANCH  28  31
ENDBRANCH   1  28
TORSDOF 8
