REMARK  Name = ZINC12542415
REMARK  7 active torsions:
REMARK  status: ('A' for Active; 'I' for Inactive)
REMARK    1  A    between atoms: C_1  and  N_2
REMARK    2  A    between atoms: N_2  and  C_3
REMARK    3  A    between atoms: C_6  and  N_21
REMARK    4  A    between atoms: C_8  and  C_9
REMARK    5  A    between atoms: N_11  and  C_12
REMARK    6  A    between atoms: C_15  and  O_19
REMARK    7  A    between atoms: O_19  and  C_20
REMARK                            x       y       z     vdW  Elec       q    Type
REMARK                         _______ _______ _______ _____ _____    ______ ____
ROOT
ATOM      1  C   UNL     1      -4.833   0.865   0.130  0.00  0.00    +0.250 C 
ATOM      2  O   UNL     1      -5.938   1.314   0.370  0.00  0.00    -0.270 OA
ATOM      3  N   UNL     1      -4.686  -0.442  -0.166  0.00  0.00    -0.281 N 
ATOM      4  H   UNL     1      -3.799  -0.815  -0.283  0.00  0.00    +0.155 HD
ENDROOT
BRANCH   3   5
ATOM      5  C   UNL     1      -5.814  -1.260  -0.303  0.00  0.00    +0.035 A 
ATOM      6  C   UNL     1      -5.752  -2.597   0.067  0.00  0.00    +0.027 A 
ATOM      7  C   UNL     1      -6.866  -3.402  -0.064  0.00  0.00    +0.049 A 
ATOM      8  C   UNL     1      -8.045  -2.879  -0.574  0.00  0.00    +0.138 A 
ATOM      9  C   UNL     1      -8.107  -1.544  -0.949  0.00  0.00    +0.084 A 
ATOM     10  C   UNL     1      -6.994  -0.736  -0.813  0.00  0.00    +0.047 A 
ATOM     11 CL   UNL     1      -9.583  -0.889  -1.587  0.00  0.00    -0.080 Cl
BRANCH   8  12
ATOM     12  O   UNL     1      -9.140  -3.674  -0.707  0.00  0.00    -0.494 OA
ATOM     13  C   UNL     1      -9.005  -5.038  -0.302  0.00  0.00    +0.277 C 
ENDBRANCH   8  12
ENDBRANCH   3   5
BRANCH   1  19
ATOM     14  C   UNL     1      -3.815   3.132   0.349  0.00  0.00    +0.039 A 
ATOM     15  C   UNL     1      -2.696   3.956   0.377  0.00  0.00    +0.026 A 
ATOM     16  C   UNL     1      -1.436   3.416   0.226  0.00  0.00    +0.034 A 
ATOM     17  C   UNL     1      -1.275   2.052   0.036  0.00  0.00    +0.127 A 
ATOM     18  C   UNL     1      -2.372   1.220   0.005  0.00  0.00    +0.047 A 
ATOM     19  C   UNL     1      -3.655   1.751   0.162  0.00  0.00    +0.060 A 
BRANCH  14  21
ATOM     20  C   UNL     1      -5.260   5.127   0.561  0.00  0.00    +0.125 C 
ATOM     21  N   UNL     1      -5.085   3.673   0.505  0.00  0.00    -0.346 N 
ATOM     22  H   UNL     1      -5.855   3.089   0.577  0.00  0.00    +0.146 HD
ENDBRANCH  14  21
BRANCH  17  23
ATOM     23  N   UNL     1       0.083   1.487  -0.129  0.00  0.00    +0.056 N 
ATOM     24  O   UNL     1       0.229   0.289  -0.291  0.00  0.00    -0.126 OA
ATOM     25  O   UNL     1       1.055   2.221  -0.108  0.00  0.00    -0.126 OA
ENDBRANCH  17  23
ENDBRANCH   1  19
TORSDOF 5
