REMARK  Name = ZINC10343863
REMARK  13 active torsions:
REMARK  status: ('A' for Active; 'I' for Inactive)
REMARK    1  A    between atoms: C_1  and  C_2
REMARK    2  A    between atoms: C_2  and  C_36
REMARK    3  A    between atoms: C_6  and  C_25
REMARK    4  A    between atoms: N_8  and  C_16
REMARK    5  A    between atoms: C_16  and  C_17
REMARK    6  A    between atoms: N_19  and  C_20
REMARK    7  A    between atoms: C_20  and  C_21
REMARK    8  A    between atoms: C_21  and  C_22
REMARK    9  A    between atoms: C_22  and  N_74
REMARK   10  A    between atoms: C_23  and  N_74
REMARK   11  A    between atoms: C_24  and  N_74
REMARK   12  A    between atoms: C_30  and  O_31
REMARK   13  A    between atoms: O_31  and  C_32
REMARK                            x       y       z     vdW  Elec       q    Type
REMARK                         _______ _______ _______ _____ _____    ______ ____
ROOT
ATOM      1  C   UNL     1      -3.748  -9.795   3.109  0.00  0.00    +0.011 C 
ATOM      2  C   UNL     1      -4.122 -10.316   1.720  0.00  0.00    -0.023 C 
ATOM      3  C   UNL     1      -3.439  -9.467   0.648  0.00  0.00    +0.058 C 
ATOM      4  C   UNL     1      -3.885  -8.023   0.775  0.00  0.00    +0.017 C 
ATOM      5  C   UNL     1      -5.128  -7.719   1.186  0.00  0.00    +0.037 C 
ATOM      6  C   UNL     1      -5.715  -6.333   1.313  0.00  0.00    +0.143 C 
ATOM      7  N   UNL     1      -4.939  -5.281   0.700  0.00  0.00    -0.308 N 
ATOM      8  C   UNL     1      -3.724  -5.032   1.325  0.00  0.00    +0.052 A 
ATOM      9  C   UNL     1      -3.528  -3.863   2.050  0.00  0.00    +0.025 A 
ATOM     10  C   UNL     1      -2.316  -3.649   2.682  0.00  0.00    +0.002 A 
ATOM     11  C   UNL     1      -1.305  -4.589   2.598  0.00  0.00    +0.002 A 
ATOM     12  C   UNL     1      -1.494  -5.750   1.868  0.00  0.00    +0.025 A 
ATOM     13  C   UNL     1      -2.705  -5.957   1.228  0.00  0.00    +0.052 A 
ATOM     14  N   UNL     1      -2.945  -7.093   0.459  0.00  0.00    -0.316 N 
ATOM     15  C   UNL     1      -6.022  -8.754   1.553  0.00  0.00    +0.163 C 
ATOM     16  O   UNL     1      -7.143  -8.457   1.915  0.00  0.00    -0.292 OA
ATOM     17  C   UNL     1      -5.636 -10.202   1.512  0.00  0.00    +0.086 C 
ATOM     18  C   UNL     1      -3.688 -11.777   1.579  0.00  0.00    +0.011 C 
ATOM     19  H   UNL     1      -2.415  -7.228  -0.342  0.00  0.00    +0.152 HD
ENDROOT
BRANCH   6  20
ATOM     20  C   UNL     1      -5.868  -6.019   2.779  0.00  0.00    +0.019 A 
ATOM     21  C   UNL     1      -4.934  -6.482   3.686  0.00  0.00    +0.009 A 
ATOM     22  C   UNL     1      -5.074  -6.193   5.031  0.00  0.00    +0.001 A 
ATOM     23  C   UNL     1      -6.147  -5.441   5.471  0.00  0.00    +0.004 A 
ATOM     24  C   UNL     1      -7.082  -4.975   4.568  0.00  0.00    +0.046 A 
ATOM     25  C   UNL     1      -6.942  -5.259   3.217  0.00  0.00    +0.125 A 
BRANCH  25  26
ATOM     26  O   UNL     1      -7.859  -4.798   2.326  0.00  0.00    -0.495 OA
ATOM     27  C   UNL     1      -8.939  -4.022   2.849  0.00  0.00    +0.277 C 
ENDBRANCH  25  26
ENDBRANCH   6  20
BRANCH   7  28
ATOM     28  C   UNL     1      -5.729  -4.048   0.576  0.00  0.00    +0.201 C 
BRANCH  28  29
ATOM     29  C   UNL     1      -6.851  -4.268  -0.405  0.00  0.00    +0.230 C 
ATOM     30  O   UNL     1      -6.927  -5.313  -1.016  0.00  0.00    -0.274 OA
ATOM     31  N   UNL     1      -7.772  -3.304  -0.603  0.00  0.00    -0.314 N 
ATOM     32  H   UNL     1      -7.712  -2.468  -0.114  0.00  0.00    +0.149 HD
BRANCH  31  33
ATOM     33  C   UNL     1      -8.863  -3.517  -1.557  0.00  0.00    +0.102 C 
BRANCH  33  34
ATOM     34  C   UNL     1      -9.760  -2.278  -1.591  0.00  0.00    +0.000 C 
BRANCH  34  35
ATOM     35  C   UNL     1     -10.900  -2.501  -2.587  0.00  0.00    -0.078 C 
BRANCH  35  38
ATOM     36  C   UNL     1     -12.723  -1.388  -3.728  0.00  0.00    -0.097 C 
ATOM     37  C   UNL     1     -12.450  -1.124  -1.337  0.00  0.00    -0.097 C 
ATOM     38  N   UNL     1     -11.744  -1.288  -2.625  0.00  0.00    +0.376 N 
ATOM     39  H   UNL     1     -11.145  -0.470  -2.784  0.00  0.00    -0.083 HD
ENDBRANCH  35  38
ENDBRANCH  34  35
ENDBRANCH  33  34
ENDBRANCH  31  33
ENDBRANCH  28  29
ENDBRANCH   7  28
TORSDOF 8
