REMARK  Name = ZINC39639412
REMARK  7 active torsions:
REMARK  status: ('A' for Active; 'I' for Inactive)
REMARK    1  A    between atoms: C_1  and  C_2
REMARK    2  A    between atoms: C_5  and  C_8
REMARK    3  A    between atoms: C_8  and  C_10
REMARK    4  A    between atoms: C_8  and  N_11
REMARK    5  A    between atoms: C_12  and  C_14
REMARK    6  A    between atoms: C_25  and  C_27
REMARK    7  A    between atoms: C_30  and  C_32
REMARK                            x       y       z     vdW  Elec       q    Type
REMARK                         _______ _______ _______ _____ _____    ______ ____
ROOT
ATOM      1  C   UNL     1       2.460  -6.468   1.999  0.00  0.00    +0.100 C 
ATOM      2  C   UNL     1       1.730  -6.497   3.361  0.00  0.00    +0.121 C 
ATOM      3  N   UNL     1       1.237  -7.888   3.492  0.00  0.00    -0.294 N 
ATOM      4  C   UNL     1       2.335  -8.722   2.948  0.00  0.00    +0.115 C 
ATOM      5  C   UNL     1       2.858  -7.930   1.734  0.00  0.00    -0.004 C 
ATOM      6  C   UNL     1       2.198  -8.433   0.453  0.00  0.00    -0.010 C 
ATOM      7  C   UNL     1       2.654  -9.869   0.180  0.00  0.00    -0.082 C 
ATOM      8  N   UNL     1       4.116  -9.903   0.047  0.00  0.00    +0.379 N 
ATOM      9  C   UNL     1       4.743  -9.506   1.313  0.00  0.00    -0.082 C 
ATOM     10  C   UNL     1       4.375  -8.055   1.635  0.00  0.00    -0.010 C 
ATOM     11  C   UNL     1       0.056  -8.302   3.993  0.00  0.00    +0.282 C 
ATOM     12  O   UNL     1      -0.205  -9.490   4.033  0.00  0.00    -0.267 OA
ATOM     13  H   UNL     1       4.409 -10.838  -0.193  0.00  0.00    -0.086 HD
ATOM     14  H   UNL     1       4.401  -9.267  -0.682  0.00  0.00    -0.086 HD
ENDROOT
BRANCH  11  15
ATOM     15  C   UNL     1      -0.914  -7.322   4.487  0.00  0.00    +0.190 A 
ATOM     16  C   UNL     1      -2.149  -7.607   5.026  0.00  0.00    +0.055 A 
ATOM     17  C   UNL     1      -2.735  -6.383   5.363  0.00  0.00    +0.050 A 
ATOM     18  C   UNL     1      -1.845  -5.404   5.021  0.00  0.00    +0.136 A 
ATOM     19  O   UNL     1      -0.750  -5.982   4.500  0.00  0.00    -0.450 OA
BRANCH  18  20
ATOM     20  C   UNL     1      -2.051  -3.953   5.200  0.00  0.00    +0.017 A 
ATOM     21  C   UNL     1      -3.236  -3.478   5.768  0.00  0.00    +0.014 A 
ATOM     22  C   UNL     1      -3.422  -2.122   5.933  0.00  0.00    +0.039 A 
ATOM     23  C   UNL     1      -2.436  -1.231   5.537  0.00  0.00    +0.123 A 
ATOM     24  C   UNL     1      -1.259  -1.697   4.973  0.00  0.00    +0.039 A 
ATOM     25  C   UNL     1      -1.060  -3.051   4.808  0.00  0.00    +0.014 A 
ATOM     26  F   UNL     1      -2.624   0.097   5.701  0.00  0.00    -0.205 F 
ENDBRANCH  18  20
ENDBRANCH  11  15
BRANCH   1  28
ATOM     27  N   UNL     1       2.036  -5.337  -0.159  0.00  0.00    -0.308 N 
ATOM     28  C   UNL     1       1.534  -5.972   0.919  0.00  0.00    +0.219 C 
ATOM     29  O   UNL     1       0.338  -6.144   1.019  0.00  0.00    -0.275 OA
ATOM     30  H   UNL     1       2.993  -5.200  -0.239  0.00  0.00    +0.149 HD
BRANCH  27  31
ATOM     31  C   UNL     1       1.136  -4.854  -1.210  0.00  0.00    +0.100 C 
ATOM     32  C   UNL     1       0.601  -3.473  -0.828  0.00  0.00    +0.033 C 
BRANCH  31  37
ATOM     33  C   UNL     1       4.022  -4.486  -6.202  0.00  0.00    +0.044 C 
ATOM     34  C   UNL     1       3.270  -4.582  -4.900  0.00  0.00    -0.050 A 
ATOM     35  C   UNL     1       1.970  -5.053  -4.886  0.00  0.00    +0.004 A 
ATOM     36  C   UNL     1       1.280  -5.141  -3.692  0.00  0.00    +0.006 A 
ATOM     37  C   UNL     1       1.889  -4.759  -2.511  0.00  0.00    -0.027 A 
ATOM     38  C   UNL     1       3.189  -4.289  -2.525  0.00  0.00    +0.006 A 
ATOM     39  C   UNL     1       3.881  -4.205  -3.719  0.00  0.00    +0.004 A 
ENDBRANCH  31  37
ENDBRANCH  27  31
ENDBRANCH   1  28
TORSDOF 5
