REMARK  Name = ZINC39688231
REMARK  6 active torsions:
REMARK  status: ('A' for Active; 'I' for Inactive)
REMARK    1  A    between atoms: C_5  and  C_7
REMARK    2  A    between atoms: C_11  and  C_20
REMARK    3  A    between atoms: N_22  and  C_23
REMARK    4  A    between atoms: C_23  and  C_24
REMARK    5  A    between atoms: C_24  and  O_25
REMARK    6  A    between atoms: O_25  and  C_26
REMARK                            x       y       z     vdW  Elec       q    Type
REMARK                         _______ _______ _______ _____ _____    ______ ____
ROOT
ATOM      1  C   UNL     1       1.389  -1.874  -0.135  0.00  0.00    +0.265 C 
ATOM      2  O   UNL     1       0.304  -2.420  -0.163  0.00  0.00    -0.268 OA
ATOM      3  N   UNL     1       2.516  -2.614  -0.110  0.00  0.00    -0.295 N 
ATOM      4  C   UNL     1       3.917  -2.133  -0.067  0.00  0.00    +0.121 C 
ATOM      5  C   UNL     1       4.635  -3.108   0.893  0.00  0.00    +0.100 C 
ATOM      6  C   UNL     1       3.789  -4.391   0.854  0.00  0.00    -0.004 C 
ATOM      7  C   UNL     1       2.633  -4.091  -0.111  0.00  0.00    +0.115 C 
ATOM      8  C   UNL     1       3.241  -4.705   2.243  0.00  0.00    -0.010 C 
ATOM      9  C   UNL     1       2.450  -6.015   2.191  0.00  0.00    -0.082 C 
ATOM     10  N   UNL     1       3.327  -7.100   1.733  0.00  0.00    +0.379 N 
ATOM     11  C   UNL     1       3.776  -6.835   0.360  0.00  0.00    -0.082 C 
ATOM     12  C   UNL     1       4.622  -5.559   0.335  0.00  0.00    -0.010 C 
ATOM     13  H   UNL     1       4.130  -7.162   2.341  0.00  0.00    -0.086 HD
ATOM     14  H   UNL     1       2.822  -7.973   1.757  0.00  0.00    -0.086 HD
ENDROOT
BRANCH   1  19
ATOM     15  C   UNL     1       0.402   1.747  -0.149  0.00  0.00    +0.004 A 
ATOM     16  C   UNL     1       1.662   2.323  -0.117  0.00  0.00    +0.020 A 
ATOM     17  C   UNL     1       2.781   1.506  -0.092  0.00  0.00    +0.111 A 
ATOM     18  N   UNL     1       2.662   0.196  -0.098  0.00  0.00    -0.250 NA
ATOM     19  C   UNL     1       1.474  -0.395  -0.129  0.00  0.00    +0.126 A 
ATOM     20  C   UNL     1       0.306   0.364  -0.155  0.00  0.00    +0.033 A 
ENDBRANCH   1  19
BRANCH   5  21
ATOM     21  C   UNL     1       4.669  -2.541   2.288  0.00  0.00    +0.218 C 
ATOM     22  O   UNL     1       3.780  -1.808   2.667  0.00  0.00    -0.275 OA
ATOM     23  N   UNL     1       5.687  -2.847   3.116  0.00  0.00    -0.312 N 
ATOM     24  H   UNL     1       6.399  -3.433   2.813  0.00  0.00    +0.149 HD
BRANCH  23  25
ATOM     25  C   UNL     1       5.720  -2.296   4.473  0.00  0.00    +0.145 C 
BRANCH  25  26
ATOM     26  C   UNL     1       6.971  -2.796   5.197  0.00  0.00    +0.247 C 
BRANCH  26  27
ATOM     27  O   UNL     1       8.136  -2.278   4.550  0.00  0.00    -0.490 OA
BRANCH  27  28
ATOM     28  C   UNL     1       9.340  -2.630   5.072  0.00  0.00    +0.121 A 
ATOM     29  C   UNL     1       9.400  -3.462   6.181  0.00  0.00    +0.048 A 
ATOM     30  C   UNL     1      10.625  -3.819   6.711  0.00  0.00    +0.042 A 
ATOM     31  C   UNL     1      11.792  -3.346   6.136  0.00  0.00    +0.124 A 
ATOM     32  C   UNL     1      11.734  -2.516   5.030  0.00  0.00    +0.042 A 
ATOM     33  C   UNL     1      10.511  -2.163   4.494  0.00  0.00    +0.048 A 
ATOM     34  F   UNL     1      12.989  -3.696   6.656  0.00  0.00    -0.205 F 
ENDBRANCH  27  28
ENDBRANCH  26  27
ENDBRANCH  25  26
ENDBRANCH  23  25
ENDBRANCH   5  21
TORSDOF 6
