REMARK  Name = ZINC09471705
REMARK  8 active torsions:
REMARK  status: ('A' for Active; 'I' for Inactive)
REMARK    1  A    between atoms: C_1  and  C_2
REMARK    2  A    between atoms: C_3  and  C_13
REMARK    3  A    between atoms: C_5  and  C_7
REMARK    4  A    between atoms: C_16  and  S_19
REMARK    5  A    between atoms: S_19  and  C_20
REMARK    6  A    between atoms: C_20  and  C_21
REMARK    7  A    between atoms: N_23  and  C_24
REMARK    8  A    between atoms: C_28  and  N_30
REMARK                            x       y       z     vdW  Elec       q    Type
REMARK                         _______ _______ _______ _____ _____    ______ ____
ROOT
ATOM      1  C   UNL     1       1.514  -0.005  -4.806  0.00  0.00    +0.102 A 
ATOM      2  C   UNL     1       0.398   0.773  -5.143  0.00  0.00    +0.033 A 
ATOM      3  C   UNL     1      -0.357   1.296  -4.123  0.00  0.00    +0.039 A 
ATOM      4  C   UNL     1       0.038   1.032  -2.809  0.00  0.00    +0.120 A 
ATOM      5  N   UNL     1       1.109   0.286  -2.577  0.00  0.00    -0.142 NA
ATOM      6  N   UNL     1       1.814  -0.209  -3.528  0.00  0.00    -0.148 NA
ENDROOT
BRANCH   1   9
ATOM      7  C   UNL     1       4.029  -1.740  -4.409  0.00  0.00    +0.067 C 
ATOM      8  C   UNL     1       3.482  -1.373  -5.764  0.00  0.00    +0.055 A 
ATOM      9  C   UNL     1       2.354  -0.594  -5.868  0.00  0.00    +0.062 A 
ATOM     10  S   UNL     1       2.192  -0.486  -7.646  0.00  0.00    -0.065 S 
ATOM     11  C   UNL     1       3.619  -1.482  -8.056  0.00  0.00    +0.109 A 
ATOM     12  N   UNL     1       4.075  -1.796  -6.851  0.00  0.00    -0.244 NA
BRANCH  11  13
ATOM     13  C   UNL     1       4.149  -1.854  -9.385  0.00  0.00    +0.007 A 
ATOM     14  C   UNL     1       3.507  -1.416 -10.544  0.00  0.00    +0.010 A 
ATOM     15  C   UNL     1       4.010  -1.764 -11.781  0.00  0.00    +0.001 A 
ATOM     16  C   UNL     1       5.142  -2.553 -11.873  0.00  0.00    +0.000 A 
ATOM     17  C   UNL     1       5.781  -2.995 -10.728  0.00  0.00    +0.001 A 
ATOM     18  C   UNL     1       5.291  -2.651  -9.485  0.00  0.00    +0.010 A 
ENDBRANCH  11  13
ENDBRANCH   1   9
BRANCH   4  19
ATOM     19  S   UNL     1      -0.891   1.685  -1.462  0.00  0.00    -0.095 S 
BRANCH  19  20
ATOM     20  C   UNL     1      -0.016   1.080   0.008  0.00  0.00    +0.172 C 
BRANCH  20  21
ATOM     21  C   UNL     1      -0.717   1.573   1.248  0.00  0.00    +0.227 C 
ATOM     22  O   UNL     1      -1.709   2.264   1.150  0.00  0.00    -0.275 OA
ATOM     23  N   UNL     1      -0.242   1.246   2.466  0.00  0.00    -0.285 N 
ATOM     24  H   UNL     1       0.511   0.639   2.546  0.00  0.00    +0.155 HD
BRANCH  23  25
ATOM     25  C   UNL     1      -0.834   1.782   3.616  0.00  0.00    +0.036 A 
ATOM     26  C   UNL     1      -0.052   2.086   4.723  0.00  0.00    +0.026 A 
ATOM     27  C   UNL     1      -0.637   2.621   5.854  0.00  0.00    +0.042 A 
ATOM     28  C   UNL     1      -2.004   2.842   5.889  0.00  0.00    +0.154 A 
ATOM     29  C   UNL     1      -2.786   2.535   4.788  0.00  0.00    +0.163 A 
ATOM     30  C   UNL     1      -2.203   2.006   3.653  0.00  0.00    +0.059 A 
ATOM     31  F   UNL     1      -2.575   3.360   6.998  0.00  0.00    -0.203 F 
BRANCH  29  32
ATOM     32  N   UNL     1      -4.246   2.774   4.828  0.00  0.00    +0.059 N 
ATOM     33  O   UNL     1      -4.934   2.504   3.859  0.00  0.00    -0.126 OA
ATOM     34  O   UNL     1      -4.760   3.241   5.829  0.00  0.00    -0.126 OA
ENDBRANCH  29  32
ENDBRANCH  23  25
ENDBRANCH  20  21
ENDBRANCH  19  20
ENDBRANCH   4  19
TORSDOF 7
