REMARK  Name = ZINC39676951
REMARK  13 active torsions:
REMARK  status: ('A' for Active; 'I' for Inactive)
REMARK    1  A    between atoms: C_1  and  C_2
REMARK    2  A    between atoms: C_5  and  C_38
REMARK    3  A    between atoms: C_6  and  C_8
REMARK    4  A    between atoms: C_8  and  C_9
REMARK    5  A    between atoms: C_9  and  N_10
REMARK    6  A    between atoms: C_11  and  C_13
REMARK    7  A    between atoms: C_24  and  C_26
REMARK    8  A    between atoms: C_28  and  O_36
REMARK    9  A    between atoms: C_29  and  O_34
REMARK   10  A    between atoms: C_30  and  O_32
REMARK   11  A    between atoms: O_32  and  C_33
REMARK   12  A    between atoms: O_34  and  C_35
REMARK   13  A    between atoms: O_36  and  C_37
REMARK                            x       y       z     vdW  Elec       q    Type
REMARK                         _______ _______ _______ _____ _____    ______ ____
ROOT
ATOM      1  C   UNL     1       2.455  -5.390   6.512  0.00  0.00    +0.100 C 
ATOM      2  C   UNL     1       1.644  -6.621   6.050  0.00  0.00    +0.121 C 
ATOM      3  N   UNL     1       2.668  -7.621   5.666  0.00  0.00    -0.296 N 
ATOM      4  C   UNL     1       3.730  -7.473   6.689  0.00  0.00    +0.115 C 
ATOM      5  C   UNL     1       3.823  -5.954   6.934  0.00  0.00    -0.004 C 
ATOM      6  C   UNL     1       4.077  -5.671   8.412  0.00  0.00    -0.010 C 
ATOM      7  C   UNL     1       5.466  -6.189   8.794  0.00  0.00    -0.082 C 
ATOM      8  N   UNL     1       6.482  -5.527   7.966  0.00  0.00    +0.379 N 
ATOM      9  C   UNL     1       6.286  -5.879   6.555  0.00  0.00    -0.082 C 
ATOM     10  C   UNL     1       4.931  -5.348   6.078  0.00  0.00    -0.010 C 
ATOM     11  C   UNL     1       2.639  -8.474   4.623  0.00  0.00    +0.247 C 
ATOM     12  O   UNL     1       1.753  -8.392   3.794  0.00  0.00    -0.270 OA
ATOM     13  H   UNL     1       6.404  -4.527   8.076  0.00  0.00    -0.086 HD
ATOM     14  H   UNL     1       7.400  -5.824   8.261  0.00  0.00    -0.086 HD
ENDROOT
BRANCH  11  15
ATOM     15  C   UNL     1       3.683  -9.509   4.486  0.00  0.00    +0.044 A 
ATOM     16  C   UNL     1       4.422  -9.909   5.602  0.00  0.00    +0.062 A 
ATOM     17  C   UNL     1       5.399 -10.878   5.472  0.00  0.00    +0.166 A 
ATOM     18  C   UNL     1       5.647 -11.455   4.229  0.00  0.00    +0.204 A 
ATOM     19  C   UNL     1       4.912 -11.058   3.115  0.00  0.00    +0.166 A 
ATOM     20  C   UNL     1       3.930 -10.094   3.242  0.00  0.00    +0.062 A 
BRANCH  19  21
ATOM     21  O   UNL     1       5.157 -11.623   1.903  0.00  0.00    -0.491 OA
ATOM     22  C   UNL     1       4.366 -11.169   0.803  0.00  0.00    +0.277 C 
ENDBRANCH  19  21
BRANCH  18  23
ATOM     23  O   UNL     1       6.608 -12.408   4.104  0.00  0.00    -0.488 OA
ATOM     24  C   UNL     1       6.204 -13.766   4.291  0.00  0.00    +0.277 C 
ENDBRANCH  18  23
BRANCH  17  25
ATOM     25  O   UNL     1       6.119 -11.268   6.558  0.00  0.00    -0.491 OA
ATOM     26  C   UNL     1       5.812 -10.634   7.801  0.00  0.00    +0.277 C 
ENDBRANCH  17  25
ENDBRANCH  11  15
BRANCH   1  28
ATOM     27  N   UNL     1       2.849  -3.110   5.635  0.00  0.00    -0.315 N 
ATOM     28  C   UNL     1       2.619  -4.413   5.376  0.00  0.00    +0.218 C 
ATOM     29  O   UNL     1       2.544  -4.799   4.229  0.00  0.00    -0.275 OA
ATOM     30  H   UNL     1       2.909  -2.802   6.553  0.00  0.00    +0.149 HD
BRANCH  27  31
ATOM     31  C   UNL     1       3.008  -2.161   4.531  0.00  0.00    +0.109 C 
BRANCH  31  32
ATOM     32  C   UNL     1       3.256  -0.760   5.095  0.00  0.00    +0.054 C 
BRANCH  32  38
ATOM     33  C   UNL     1       6.212   1.784   1.957  0.00  0.00    +0.044 C 
ATOM     34  C   UNL     1       4.834   1.434   2.458  0.00  0.00    -0.050 A 
ATOM     35  C   UNL     1       3.720   2.010   1.876  0.00  0.00    +0.003 A 
ATOM     36  C   UNL     1       2.457   1.689   2.335  0.00  0.00    +0.004 A 
ATOM     37  C   UNL     1       2.307   0.793   3.377  0.00  0.00    -0.047 A 
ATOM     38  C   UNL     1       3.420   0.217   3.959  0.00  0.00    -0.043 A 
ATOM     39  C   UNL     1       4.684   0.534   3.496  0.00  0.00    +0.007 A 
ATOM     40  C   UNL     1       0.929   0.444   3.879  0.00  0.00    +0.044 C 
ENDBRANCH  32  38
ENDBRANCH  31  32
ENDBRANCH  27  31
ENDBRANCH   1  28
TORSDOF 8
