REMARK  Name = ZINC64064679
REMARK  8 active torsions:
REMARK  status: ('A' for Active; 'I' for Inactive)
REMARK    1  A    between atoms: C_1  and  C_2
REMARK    2  A    between atoms: C_2  and  C_3
REMARK    3  A    between atoms: C_5  and  C_17
REMARK    4  A    between atoms: N_19  and  C_20
REMARK    5  A    between atoms: C_20  and  C_21
REMARK    6  A    between atoms: C_21  and  N_28
REMARK    7  A    between atoms: N_28  and  C_29
REMARK    8  A    between atoms: N_28  and  C_30
REMARK                            x       y       z     vdW  Elec       q    Type
REMARK                         _______ _______ _______ _____ _____    ______ ____
ROOT
ATOM      1  C   UNL     1      -0.391  -2.854  -0.907  0.00  0.00    +0.243 C 
ATOM      2  O   UNL     1      -0.133  -3.900  -1.476  0.00  0.00    -0.270 OA
ATOM      3  N   UNL     1      -1.608  -2.293  -1.047  0.00  0.00    -0.313 N 
ATOM      4  H   UNL     1      -1.813  -1.460  -0.595  0.00  0.00    +0.149 HD
ENDROOT
BRANCH   1   6
ATOM      5  C   UNL     1       0.428  -0.935   0.669  0.00  0.00    +0.132 C 
ATOM      6  C   UNL     1       0.588  -2.229  -0.100  0.00  0.00    +0.051 C 
ATOM      7  H   UNL     1       3.439  -1.974   1.241  0.00  0.00    +0.170 HD
ATOM      8  C   UNL     1       1.838  -2.671   0.131  0.00  0.00    +0.098 C 
ATOM      9  N   UNL     1       2.523  -1.834   0.953  0.00  0.00    -0.269 N 
ATOM     10  N   UNL     1       1.730  -0.739   1.330  0.00  0.00    -0.228 N 
ATOM     11  C   UNL     1       2.096   0.317   2.161  0.00  0.00    +0.161 A 
ATOM     12  C   UNL     1       3.406   0.415   2.632  0.00  0.00    +0.052 A 
ATOM     13  C   UNL     1       3.722   1.484   3.454  0.00  0.00    +0.077 A 
ATOM     14  C   UNL     1       2.712   2.394   3.759  0.00  0.00    +0.289 A 
ATOM     15  O   UNL     1       2.975   3.458   4.561  0.00  0.00    -0.264 OA
ATOM     16  N   UNL     1       1.498   2.221   3.267  0.00  0.00    -0.105 NA
ATOM     17  N   UNL     1       1.204   1.234   2.501  0.00  0.00    -0.129 NA
BRANCH   5  19
ATOM     18  C   UNL     1      -0.385  -2.245   2.634  0.00  0.00    +0.006 C 
ATOM     19  C   UNL     1      -0.686  -1.065   1.709  0.00  0.00    +0.026 C 
ENDBRANCH   5  19
ENDBRANCH   1   6
BRANCH   3  20
ATOM     20  C   UNL     1      -2.622  -2.941  -1.883  0.00  0.00    +0.092 C 
BRANCH  20  21
ATOM     21  C   UNL     1      -3.953  -2.200  -1.738  0.00  0.00    -0.050 C 
ATOM     22  C   UNL     1      -5.085  -3.191  -1.732  0.00  0.00    -0.010 C 
ATOM     23  C   UNL     1      -4.729  -4.497  -2.467  0.00  0.00    -0.001 C 
ATOM     24  C   UNL     1      -3.953  -4.254  -3.776  0.00  0.00    -0.000 C 
ATOM     25  C   UNL     1      -4.500  -3.094  -4.563  0.00  0.00    -0.000 C 
ATOM     26  C   UNL     1      -3.702  -1.828  -4.189  0.00  0.00    -0.001 C 
ATOM     27  C   UNL     1      -4.146  -1.244  -2.933  0.00  0.00    -0.010 C 
BRANCH  21  28
ATOM     28  N   UNL     1      -3.956  -1.433  -0.486  0.00  0.00    +0.381 N 
ATOM     29  C   UNL     1      -5.256  -0.768  -0.322  0.00  0.00    -0.096 C 
ATOM     30  C   UNL     1      -3.724  -2.341   0.646  0.00  0.00    -0.096 C 
ATOM     31  H   UNL     1      -3.224  -0.739  -0.515  0.00  0.00    -0.082 HD
ENDBRANCH  21  28
ENDBRANCH  20  21
ENDBRANCH   3  20
TORSDOF 5
