REMARK  Name = ZINC20291914
REMARK  7 active torsions:
REMARK  status: ('A' for Active; 'I' for Inactive)
REMARK    1  A    between atoms: C_11  and  C_13
REMARK    2  A    between atoms: C_13  and  S_14
REMARK    3  A    between atoms: S_14  and  C_15
REMARK    4  A    between atoms: N_19  and  N_20
REMARK    5  A    between atoms: N_21  and  N_22
REMARK    6  A    between atoms: C_23  and  C_24
REMARK    7  A    between atoms: C_28  and  N_30
REMARK                            x       y       z     vdW  Elec       q    Type
REMARK                         _______ _______ _______ _____ _____    ______ ____
ROOT
ATOM      1  C   UNL     1       6.707  -7.543  -0.101  0.00  0.00    +0.210 A 
ATOM      2  N   UNL     1       5.758  -8.504  -0.103  0.00  0.00    -0.119 NA
ATOM      3  N   UNL     1       6.317  -9.662  -0.113  0.00  0.00    -0.109 NA
ATOM      4  C   UNL     1       7.658  -9.516  -0.118  0.00  0.00    +0.254 A 
ATOM      5  N   UNL     1       7.922  -8.169  -0.116  0.00  0.00    -0.211 N 
ATOM      6  N   UNL     1       8.562 -10.500  -0.128  0.00  0.00    -0.204 N 
ATOM      7  H   UNL     1       9.508 -10.290  -0.131  0.00  0.00    +0.177 HD
ENDROOT
BRANCH   5   8
ATOM      8  N   UNL     1       9.152  -7.574  -0.124  0.00  0.00    -0.294 N 
ATOM      9  H   UNL     1       9.486  -7.423   0.816  0.00  0.00    +0.163 HD
ATOM     10  H   UNL     1       9.813  -8.117  -0.660  0.00  0.00    +0.163 HD
ENDBRANCH   5   8
BRANCH   6  11
ATOM     11  N   UNL     1       8.175 -11.731  -0.134  0.00  0.00    -0.188 NA
ATOM     12  C   UNL     1       9.064 -12.699  -0.143  0.00  0.00    +0.138 C 
BRANCH  12  13
ATOM     13  C   UNL     1       8.625 -14.097  -0.150  0.00  0.00    -0.003 A 
ATOM     14  C   UNL     1       7.255 -14.407  -0.151  0.00  0.00    +0.009 A 
ATOM     15  C   UNL     1       6.853 -15.723  -0.157  0.00  0.00    +0.003 A 
ATOM     16  C   UNL     1       7.794 -16.741  -0.161  0.00  0.00    +0.033 A 
ATOM     17  C   UNL     1       9.147 -16.445  -0.160  0.00  0.00    +0.127 A 
ATOM     18  C   UNL     1       9.570 -15.134  -0.160  0.00  0.00    +0.042 A 
BRANCH  17  19
ATOM     19  N   UNL     1      10.142 -17.541  -0.164  0.00  0.00    +0.056 N 
ATOM     20  O   UNL     1       9.740 -18.795  -0.168  0.00  0.00    -0.126 OA
ATOM     21  O   UNL     1      11.429 -17.262  -0.162  0.00  0.00    -0.126 OA
ENDBRANCH  17  19
ENDBRANCH  12  13
ENDBRANCH   6  11
BRANCH   1  22
ATOM     22  S   UNL     1       6.447  -5.904  -0.090  0.00  0.00    -0.075 S 
BRANCH  22  23
ATOM     23  C   UNL     1       4.639  -5.747  -0.072  0.00  0.00    +0.173 C 
BRANCH  23  34
ATOM     24  C   UNL     1      -0.017   1.366   0.010  0.00  0.00    +0.002 A 
ATOM     25  C   UNL     1       1.157   2.107   0.002  0.00  0.00    +0.001 A 
ATOM     26  C   UNL     1       2.373   1.450  -0.013  0.00  0.00    +0.017 A 
ATOM     27  C   UNL     1       2.401   0.077  -0.020  0.00  0.00    +0.041 A 
ATOM     28  C   UNL     1       1.227  -0.710  -0.013  0.00  0.00    +0.080 A 
ATOM     29  C   UNL     1       0.002  -0.004   0.002  0.00  0.00    +0.029 A 
ATOM     30  N   UNL     1       1.420  -2.047  -0.022  0.00  0.00    -0.225 NA
ATOM     31  C   UNL     1       2.616  -2.587  -0.037  0.00  0.00    +0.165 A 
ATOM     32  S   UNL     1       3.682  -1.153  -0.039  0.00  0.00    -0.052 S 
ATOM     33  N   UNL     1       2.963  -3.929  -0.047  0.00  0.00    -0.264 N 
ATOM     34  C   UNL     1       4.262  -4.288  -0.061  0.00  0.00    +0.229 C 
ATOM     35  O   UNL     1       5.126  -3.438  -0.065  0.00  0.00    -0.275 OA
ATOM     36  H   UNL     1       2.271  -4.609  -0.043  0.00  0.00    +0.157 HD
ENDBRANCH  23  34
ENDBRANCH  22  23
ENDBRANCH   1  22
TORSDOF 7
