REMARK  Name = ZINC12637817
REMARK  9 active torsions:
REMARK  status: ('A' for Active; 'I' for Inactive)
REMARK    1  A    between atoms: C_1  and  C_2
REMARK    2  A    between atoms: C_2  and  C_3
REMARK    3  A    between atoms: C_8  and  N_9
REMARK    4  A    between atoms: N_9  and  C_10
REMARK    5  A    between atoms: C_10  and  C_12
REMARK    6  A    between atoms: C_10  and  C_19
REMARK    7  A    between atoms: C_15  and  O_18
REMARK    8  A    between atoms: N_21  and  C_22
REMARK    9  A    between atoms: C_27  and  C_29
REMARK                            x       y       z     vdW  Elec       q    Type
REMARK                         _______ _______ _______ _____ _____    ______ ____
ROOT
ATOM      1  N   UNL     1       3.802  -2.106   0.240  0.00  0.00    -0.251 N 
ATOM      2  C   UNL     1       3.710  -0.803   0.573  0.00  0.00    +0.252 C 
ATOM      3  O   UNL     1       4.667  -0.068   0.423  0.00  0.00    -0.270 OA
ENDROOT
BRANCH   2   4
ATOM      4  C   UNL     1       2.447  -0.268   1.118  0.00  0.00    +0.041 A 
ATOM      5  C   UNL     1       1.608  -1.088   1.876  0.00  0.00    +0.017 A 
ATOM      6  C   UNL     1       0.430  -0.586   2.383  0.00  0.00    +0.050 A 
ATOM      7  C   UNL     1       0.071   0.736   2.143  0.00  0.00    +0.162 A 
ATOM      8  C   UNL     1       0.904   1.559   1.390  0.00  0.00    +0.163 A 
ATOM      9  C   UNL     1       2.087   1.061   0.877  0.00  0.00    +0.062 A 
ATOM     10  O   UNL     1       0.570   2.858   1.154  0.00  0.00    -0.485 OA
ATOM     11  C   UNL     1      -0.798   3.220   1.367  0.00  0.00    +0.270 C 
ATOM     12  C   UNL     1      -1.247   2.630   2.711  0.00  0.00    +0.270 C 
ATOM     13  O   UNL     1      -1.101   1.207   2.647  0.00  0.00    -0.485 OA
ENDBRANCH   2   4
BRANCH   1  19
ATOM     14  C   UNL     1       1.592  -2.719  -0.516  0.00  0.00    -0.026 A 
ATOM     15  C   UNL     1       0.484  -3.539  -0.431  0.00  0.00    +0.005 A 
ATOM     16  C   UNL     1       0.448  -4.562   0.498  0.00  0.00    +0.000 A 
ATOM     17  C   UNL     1       1.523  -4.772   1.342  0.00  0.00    +0.002 A 
ATOM     18  C   UNL     1       2.637  -3.959   1.259  0.00  0.00    +0.024 A 
ATOM     19  C   UNL     1       2.676  -2.930   0.327  0.00  0.00    +0.041 A 
BRANCH  14  21
ATOM     20  C   UNL     1       2.227  -2.115  -2.835  0.00  0.00    +0.009 C 
ATOM     21  C   UNL     1       1.628  -1.600  -1.525  0.00  0.00    +0.033 C 
ENDBRANCH  14  21
ENDBRANCH   1  19
BRANCH   1  22
ATOM     22  C   UNL     1       5.081  -2.658  -0.211  0.00  0.00    +0.197 C 
BRANCH  22  23
ATOM     23  C   UNL     1       4.945  -4.146  -0.407  0.00  0.00    -0.018 A 
ATOM     24  C   UNL     1       3.964  -4.645  -1.244  0.00  0.00    +0.009 A 
ATOM     25  C   UNL     1       3.841  -6.008  -1.429  0.00  0.00    +0.046 A 
ATOM     26  C   UNL     1       4.695  -6.877  -0.766  0.00  0.00    +0.117 A 
ATOM     27  C   UNL     1       5.675  -6.374   0.077  0.00  0.00    +0.046 A 
ATOM     28  C   UNL     1       5.798  -5.010   0.255  0.00  0.00    +0.009 A 
BRANCH  26  29
ATOM     29  O   UNL     1       4.572  -8.219  -0.942  0.00  0.00    -0.507 OA
ATOM     30  H   UNL     1       3.971  -8.645  -0.315  0.00  0.00    +0.292 HD
ENDBRANCH  26  29
ENDBRANCH  22  23
BRANCH  22  31
ATOM     31  C   UNL     1       5.474  -2.013  -1.516  0.00  0.00    +0.239 C 
ATOM     32  O   UNL     1       4.756  -1.175  -2.019  0.00  0.00    -0.273 OA
ATOM     33  N   UNL     1       6.623  -2.368  -2.124  0.00  0.00    -0.311 N 
ATOM     34  H   UNL     1       7.198  -3.038  -1.722  0.00  0.00    +0.149 HD
BRANCH  33  35
ATOM     35  C   UNL     1       7.005  -1.742  -3.392  0.00  0.00    +0.073 C 
ATOM     36  C   UNL     1       6.393  -2.523  -4.573  0.00  0.00    +0.022 C 
ATOM     37  C   UNL     1       7.486  -2.473  -5.669  0.00  0.00    +0.002 C 
ATOM     38  C   UNL     1       8.795  -2.616  -4.853  0.00  0.00    +0.002 C 
ATOM     39  C   UNL     1       8.532  -1.800  -3.570  0.00  0.00    +0.022 C 
ENDBRANCH  33  35
ENDBRANCH  22  31
ENDBRANCH   1  22
TORSDOF 8
