REMARK  Name = ZINC33568305
REMARK  7 active torsions:
REMARK  status: ('A' for Active; 'I' for Inactive)
REMARK    1  A    between atoms: C_3  and  C_9
REMARK    2  A    between atoms: C_12  and  C_14
REMARK    3  A    between atoms: C_14  and  C_16
REMARK    4  A    between atoms: C_17  and  C_18
REMARK    5  A    between atoms: C_21  and  C_23
REMARK    6  A    between atoms: C_26  and  S_29
REMARK    7  A    between atoms: S_29  and  N_32
REMARK                            x       y       z     vdW  Elec       q    Type
REMARK                         _______ _______ _______ _____ _____    ______ ____
ROOT
ATOM      1  C   UNL     1      -1.198   1.739   0.017  0.00  0.00    +0.058 C 
ATOM      2  C   UNL     1      -0.013   1.076   0.008  0.00  0.00    +0.050 C 
ENDROOT
BRANCH   2   3
ATOM      3  C   UNL     1       1.201   1.799   0.000  0.00  0.00    +0.129 A 
ATOM      4  C   UNL     1       2.471   1.251  -0.015  0.00  0.00    +0.050 A 
ATOM      5  C   UNL     1       3.372   2.319  -0.018  0.00  0.00    +0.050 A 
ATOM      6  C   UNL     1       2.625   3.475  -0.006  0.00  0.00    +0.136 A 
ATOM      7  O   UNL     1       1.321   3.143   0.000  0.00  0.00    -0.455 OA
BRANCH   6   8
ATOM      8  C   UNL     1       3.163   4.849  -0.005  0.00  0.00    +0.017 A 
ATOM      9  C   UNL     1       4.544   5.061  -0.012  0.00  0.00    +0.013 A 
ATOM     10  C   UNL     1       5.041   6.348  -0.016  0.00  0.00    +0.029 A 
ATOM     11  C   UNL     1       4.175   7.428  -0.003  0.00  0.00    +0.105 A 
ATOM     12  C   UNL     1       2.806   7.225   0.010  0.00  0.00    +0.029 A 
ATOM     13  C   UNL     1       2.295   5.944   0.009  0.00  0.00    +0.013 A 
BRANCH  11  14
ATOM     14  S   UNL     1       4.818   9.068  -0.001  0.00  0.00    +0.056 S 
ATOM     15  O   UNL     1       6.120   8.994  -0.565  0.00  0.00    -0.153 OA
ATOM     16  O   UNL     1       3.801   9.903  -0.538  0.00  0.00    -0.153 OA
BRANCH  14  17
ATOM     17  N   UNL     1       5.012   9.516   1.581  0.00  0.00    -0.204 NA
ATOM     18  H   UNL     1       5.414  10.539   1.626  0.00  0.00    +0.144 HD
ATOM     19  H   UNL     1       5.712   8.825   2.075  0.00  0.00    +0.144 HD
ENDBRANCH  14  17
ENDBRANCH  11  14
ENDBRANCH   6   8
ENDBRANCH   2   3
BRANCH   1  20
ATOM     20  C   UNL     1      -2.414   1.015   0.019  0.00  0.00    +0.221 C 
ATOM     21  O   UNL     1      -2.398  -0.205   0.012  0.00  0.00    -0.284 OA
BRANCH  20  25
ATOM     22  C   UNL     1      -5.164   3.365   0.045  0.00  0.00    +0.137 A 
ATOM     23  C   UNL     1      -5.874   2.197   0.042  0.00  0.00    +0.050 A 
ATOM     24  C   UNL     1      -4.946   1.152   0.032  0.00  0.00    +0.054 A 
ATOM     25  C   UNL     1      -3.694   1.731   0.029  0.00  0.00    +0.175 A 
ATOM     26  O   UNL     1      -3.852   3.071   0.043  0.00  0.00    -0.452 OA
BRANCH  22  29
ATOM     27  C   UNL     1      -7.271   6.341  -0.849  0.00  0.00    +0.002 A 
ATOM     28  C   UNL     1      -6.731   5.072  -0.867  0.00  0.00    +0.013 A 
ATOM     29  C   UNL     1      -5.742   4.723   0.055  0.00  0.00    +0.037 A 
ATOM     30  C   UNL     1      -5.297   5.668   0.984  0.00  0.00    +0.070 A 
ATOM     31  C   UNL     1      -5.842   6.938   0.987  0.00  0.00    +0.060 A 
ATOM     32  C   UNL     1      -6.827   7.273   0.072  0.00  0.00    +0.021 A 
ATOM     33 CL   UNL     1      -5.293   8.115   2.139  0.00  0.00    -0.082 Cl
ATOM     34 CL   UNL     1      -4.064   5.248   2.131  0.00  0.00    -0.081 Cl
ENDBRANCH  22  29
ENDBRANCH  20  25
ENDBRANCH   1  20
TORSDOF 7
