REMARK  Name = ZINC13270208
REMARK  5 active torsions:
REMARK  status: ('A' for Active; 'I' for Inactive)
REMARK    1  A    between atoms: C_4  and  N_7
REMARK    2  A    between atoms: C_8  and  C_10
REMARK    3  A    between atoms: N_15  and  S_17
REMARK    4  A    between atoms: S_17  and  C_20
REMARK    5  A    between atoms: C_24  and  C_26
REMARK                            x       y       z     vdW  Elec       q    Type
REMARK                         _______ _______ _______ _____ _____    ______ ____
ROOT
ATOM      1  C   UNL     1      -3.268   1.941   3.621  0.00  0.00    +0.091 C 
ATOM      2  C   UNL     1      -2.933   0.683   4.425  0.00  0.00    +0.015 C 
ATOM      3  C   UNL     1      -1.994  -0.210   3.610  0.00  0.00    +0.018 C 
ATOM      4  C   UNL     1      -2.700  -0.638   2.314  0.00  0.00    +0.109 C 
ATOM      5  N   UNL     1      -3.150   0.569   1.607  0.00  0.00    -0.176 NA
ATOM      6  C   UNL     1      -3.984   1.540   2.327  0.00  0.00    +0.122 C 
ENDROOT
BRANCH   1   8
ATOM      7  N   UNL     1      -3.743   3.313   5.624  0.00  0.00    -0.285 N 
ATOM      8  C   UNL     1      -4.166   2.834   4.437  0.00  0.00    +0.222 C 
ATOM      9  O   UNL     1      -5.270   3.123   4.026  0.00  0.00    -0.275 OA
ATOM     10  H   UNL     1      -2.889   3.029   5.984  0.00  0.00    +0.155 HD
BRANCH   7  14
ATOM     11  C   UNL     1      -6.107   6.009   7.745  0.00  0.00    +0.000 A 
ATOM     12  C   UNL     1      -6.702   5.003   7.007  0.00  0.00    +0.002 A 
ATOM     13  C   UNL     1      -5.921   4.107   6.303  0.00  0.00    +0.023 A 
ATOM     14  C   UNL     1      -4.537   4.218   6.337  0.00  0.00    +0.033 A 
ATOM     15  C   UNL     1      -3.942   5.227   7.084  0.00  0.00    +0.023 A 
ATOM     16  C   UNL     1      -4.729   6.123   7.781  0.00  0.00    +0.002 A 
ENDBRANCH   7  14
ENDBRANCH   1   8
BRANCH   5  17
ATOM     17  S   UNL     1      -2.730   0.826   0.026  0.00  0.00    +0.061 S 
ATOM     18  O   UNL     1      -3.715   1.692  -0.520  0.00  0.00    -0.153 OA
ATOM     19  O   UNL     1      -2.445  -0.450  -0.531  0.00  0.00    -0.153 OA
BRANCH  17  20
ATOM     20  C   UNL     1      -1.214   1.724   0.028  0.00  0.00    +0.106 A 
ATOM     21  C   UNL     1      -0.009   1.044   0.023  0.00  0.00    +0.030 A 
ATOM     22  C   UNL     1       1.186   1.740   0.019  0.00  0.00    +0.023 A 
ATOM     23  C   UNL     1       1.183   3.121   0.025  0.00  0.00    +0.055 A 
ATOM     24  C   UNL     1      -0.030   3.814   0.035  0.00  0.00    +0.083 A 
ATOM     25  C   UNL     1      -1.232   3.103   0.039  0.00  0.00    +0.045 A 
ATOM     26 CL   UNL     1       2.684   3.994   0.021  0.00  0.00    -0.083 Cl
BRANCH  24  27
ATOM     27  C   UNL     1      -0.042   5.290   0.042  0.00  0.00    +0.388 C 
ATOM     28  O   UNL     1       1.006   5.906   0.038  0.00  0.00    -0.241 OA
ATOM     29  O   UNL     1      -1.214   5.955   0.052  0.00  0.00    -0.241 OA
ENDBRANCH  24  27
ENDBRANCH  17  20
ENDBRANCH   5  17
TORSDOF 5
