REMARK  Name = ZINC36601344
REMARK  15 active torsions:
REMARK  status: ('A' for Active; 'I' for Inactive)
REMARK    1  A    between atoms: C_1  and  C_2
REMARK    2  A    between atoms: C_2  and  C_3
REMARK    3  A    between atoms: C_3  and  C_4
REMARK    4  A    between atoms: C_4  and  N_5
REMARK    5  A    between atoms: C_6  and  C_8
REMARK    6  A    between atoms: C_8  and  C_10
REMARK    7  A    between atoms: C_8  and  N_19
REMARK    8  A    between atoms: C_11  and  O_18
REMARK    9  A    between atoms: C_13  and  O_17
REMARK   10  A    between atoms: C_15  and  O_16
REMARK   11  A    between atoms: N_19  and  C_20
REMARK   12  A    between atoms: C_20  and  C_21
REMARK   13  A    between atoms: C_24  and  C_26
REMARK   14  A    between atoms: C_27  and  C_29
REMARK   15  A    between atoms: C_33  and  N_35
REMARK                            x       y       z     vdW  Elec       q    Type
REMARK                         _______ _______ _______ _____ _____    ______ ____
ROOT
ATOM      1  C   UNL     1       1.748  -4.393  -3.512  0.00  0.00    +0.200 C 
ENDROOT
BRANCH   1   2
ATOM      2  C   UNL     1       0.625  -3.869  -4.368  0.00  0.00    +0.065 A 
ATOM      3  C   UNL     1      -0.579  -4.554  -4.429  0.00  0.00    +0.129 A 
ATOM      4  C   UNL     1      -1.613  -4.071  -5.217  0.00  0.00    +0.091 A 
ATOM      5  C   UNL     1      -1.443  -2.902  -5.944  0.00  0.00    +0.124 A 
ATOM      6  C   UNL     1      -0.239  -2.216  -5.883  0.00  0.00    +0.091 A 
ATOM      7  C   UNL     1       0.793  -2.697  -5.091  0.00  0.00    +0.129 A 
BRANCH   7   8
ATOM      8  O   UNL     1       1.971  -2.022  -5.027  0.00  0.00    -0.506 OA
ATOM      9  H   UNL     1       2.616  -2.294  -5.694  0.00  0.00    +0.292 HD
ENDBRANCH   7   8
BRANCH   5  10
ATOM     10  O   UNL     1      -2.456  -2.429  -6.717  0.00  0.00    -0.507 OA
ATOM     11  H   UNL     1      -3.052  -1.823  -6.256  0.00  0.00    +0.292 HD
ENDBRANCH   5  10
BRANCH   3  12
ATOM     12  O   UNL     1      -0.746  -5.699  -3.717  0.00  0.00    -0.506 OA
ATOM     13  H   UNL     1      -1.170  -5.570  -2.857  0.00  0.00    +0.292 HD
ENDBRANCH   3  12
ENDBRANCH   1   2
BRANCH   1  15
ATOM     14  N   UNL     1       0.731  -3.623  -1.393  0.00  0.00    -0.313 N 
ATOM     15  C   UNL     1       1.242  -4.640  -2.115  0.00  0.00    +0.238 C 
ATOM     16  O   UNL     1       1.294  -5.755  -1.639  0.00  0.00    -0.273 OA
ATOM     17  H   UNL     1       0.689  -2.732  -1.774  0.00  0.00    +0.149 HD
BRANCH  14  18
ATOM     18  C   UNL     1       0.238  -3.863  -0.035  0.00  0.00    +0.104 C 
BRANCH  18  19
ATOM     19  C   UNL     1      -0.285  -2.553   0.557  0.00  0.00    +0.018 C 
BRANCH  19  21
ATOM     20  C   UNL     1      -1.323  -1.493   2.568  0.00  0.00    +0.004 C 
ATOM     21  C   UNL     1      -0.799  -2.804   1.976  0.00  0.00    -0.002 C 
ENDBRANCH  19  21
ENDBRANCH  18  19
ENDBRANCH  14  18
ENDBRANCH   1  15
BRANCH   1  22
ATOM     22  N   UNL     1       2.249  -5.648  -4.079  0.00  0.00    -0.274 N 
ATOM     23  C   UNL     1       3.133  -6.394  -3.388  0.00  0.00    +0.248 C 
ATOM     24  O   UNL     1       3.647  -7.365  -3.908  0.00  0.00    -0.270 OA
BRANCH  23  25
ATOM     25  C   UNL     1       3.477  -6.032  -1.996  0.00  0.00    +0.039 A 
ATOM     26  C   UNL     1       3.275  -4.729  -1.540  0.00  0.00    +0.013 A 
ATOM     27  C   UNL     1       3.598  -4.398  -0.241  0.00  0.00    +0.003 A 
ATOM     28  C   UNL     1       4.122  -5.355   0.611  0.00  0.00    +0.033 A 
ATOM     29  C   UNL     1       4.325  -6.649   0.165  0.00  0.00    +0.127 A 
ATOM     30  C   UNL     1       4.000  -6.995  -1.131  0.00  0.00    +0.045 A 
BRANCH  29  31
ATOM     31  N   UNL     1       4.885  -7.666   1.083  0.00  0.00    +0.056 N 
ATOM     32  O   UNL     1       5.165  -7.366   2.220  0.00  0.00    -0.126 OA
ATOM     33  O   UNL     1       5.064  -8.797   0.695  0.00  0.00    -0.126 OA
ENDBRANCH  29  31
ENDBRANCH  23  25
BRANCH  22  34
ATOM     34  C   UNL     1       1.789  -6.091  -5.397  0.00  0.00    +0.183 C 
BRANCH  34  35
ATOM     35  C   UNL     1       2.797  -5.688  -6.443  0.00  0.00    +0.122 A 
ATOM     36  C   UNL     1       3.782  -6.466  -6.927  0.00  0.00    +0.046 A 
ATOM     37  C   UNL     1       4.483  -5.692  -7.880  0.00  0.00    +0.045 A 
ATOM     38  C   UNL     1       3.885  -4.488  -7.922  0.00  0.00    +0.102 A 
ATOM     39  O   UNL     1       2.861  -4.494  -7.053  0.00  0.00    -0.463 OA
ATOM     40  C   UNL     1       4.292  -3.332  -8.798  0.00  0.00    +0.086 C 
ENDBRANCH  34  35
ENDBRANCH  22  34
ENDBRANCH   1  22
TORSDOF 13
