REMARK  Name = ZINC39652842
REMARK  5 active torsions:
REMARK  status: ('A' for Active; 'I' for Inactive)
REMARK    1  A    between atoms: C_4  and  C_8
REMARK    2  A    between atoms: C_12  and  C_21
REMARK    3  A    between atoms: N_23  and  C_24
REMARK    4  A    between atoms: C_24  and  C_25
REMARK    5  A    between atoms: C_25  and  C_26
REMARK                            x       y       z     vdW  Elec       q    Type
REMARK                         _______ _______ _______ _____ _____    ______ ____
ROOT
ATOM      1  C   UNL     1       3.819  -0.790  -0.004  0.00  0.00    +0.252 C 
ATOM      2  O   UNL     1       4.410  -1.055   1.025  0.00  0.00    -0.270 OA
ATOM      3  N   UNL     1       4.385  -1.064  -1.196  0.00  0.00    -0.296 N 
ATOM      4  C   UNL     1       3.829  -0.811  -2.546  0.00  0.00    +0.121 C 
ATOM      5  C   UNL     1       5.038  -0.339  -3.384  0.00  0.00    +0.100 C 
ATOM      6  C   UNL     1       6.266  -0.918  -2.663  0.00  0.00    -0.004 C 
ATOM      7  C   UNL     1       5.708  -1.682  -1.452  0.00  0.00    +0.115 C 
ATOM      8  C   UNL     1       7.183   0.207  -2.193  0.00  0.00    -0.010 C 
ATOM      9  C   UNL     1       8.424  -0.396  -1.529  0.00  0.00    -0.082 C 
ATOM     10  N   UNL     1       9.125  -1.257  -2.490  0.00  0.00    +0.379 N 
ATOM     11  C   UNL     1       8.269  -2.388  -2.866  0.00  0.00    -0.082 C 
ATOM     12  C   UNL     1       7.021  -1.870  -3.586  0.00  0.00    -0.010 C 
ATOM     13  H   UNL     1       9.354  -0.722  -3.314  0.00  0.00    -0.086 HD
ATOM     14  H   UNL     1       9.975  -1.604  -2.071  0.00  0.00    -0.086 HD
ENDROOT
BRANCH   1  18
ATOM     15  C   UNL     1      -0.030   1.001   0.156  0.00  0.00    +0.006 A 
ATOM     16  C   UNL     1       1.098   1.800   0.120  0.00  0.00    +0.039 A 
ATOM     17  C   UNL     1       2.355   1.225   0.068  0.00  0.00    +0.138 A 
ATOM     18  C   UNL     1       2.482  -0.168   0.052  0.00  0.00    +0.107 A 
ATOM     19  C   UNL     1       1.335  -0.968   0.088  0.00  0.00    +0.138 A 
ATOM     20  C   UNL     1       0.087  -0.377   0.140  0.00  0.00    +0.039 A 
ATOM     21  F   UNL     1       1.447  -2.314   0.073  0.00  0.00    -0.205 F 
ATOM     22  F   UNL     1       3.456   2.007   0.033  0.00  0.00    -0.205 F 
ENDBRANCH   1  18
BRANCH   5  23
ATOM     23  C   UNL     1       4.946  -0.880  -4.787  0.00  0.00    +0.218 C 
ATOM     24  O   UNL     1       4.408  -1.948  -4.992  0.00  0.00    -0.275 OA
ATOM     25  N   UNL     1       5.463  -0.178  -5.816  0.00  0.00    -0.315 N 
ATOM     26  H   UNL     1       5.893   0.676  -5.652  0.00  0.00    +0.149 HD
BRANCH  25  27
ATOM     27  C   UNL     1       5.374  -0.704  -7.180  0.00  0.00    +0.109 C 
BRANCH  27  28
ATOM     28  C   UNL     1       6.032   0.280  -8.150  0.00  0.00    +0.054 C 
BRANCH  28  29
ATOM     29  C   UNL     1       5.940  -0.262  -9.553  0.00  0.00    -0.046 A 
ATOM     30  C   UNL     1       6.945  -1.072 -10.048  0.00  0.00    +0.005 A 
ATOM     31  C   UNL     1       6.862  -1.569 -11.335  0.00  0.00    +0.015 A 
ATOM     32  C   UNL     1       5.772  -1.256 -12.128  0.00  0.00    +0.018 A 
ATOM     33  C   UNL     1       4.767  -0.445 -11.632  0.00  0.00    +0.015 A 
ATOM     34  C   UNL     1       4.849   0.047 -10.343  0.00  0.00    +0.005 A 
ATOM     35 BR   UNL     1       5.658  -1.935 -13.889  0.00  0.00    -0.050 Br
ENDBRANCH  28  29
ENDBRANCH  27  28
ENDBRANCH  25  27
ENDBRANCH   5  23
TORSDOF 5
