REMARK  Name = ZINC67177159
REMARK  6 active torsions:
REMARK  status: ('A' for Active; 'I' for Inactive)
REMARK    1  A    between atoms: C_1  and  C_2
REMARK    2  A    between atoms: C_2  and  C_3
REMARK    3  A    between atoms: C_2  and  C_4
REMARK    4  A    between atoms: C_7  and  O_26
REMARK    5  A    between atoms: C_8  and  C_10
REMARK    6  A    between atoms: C_16  and  C_19
REMARK                            x       y       z     vdW  Elec       q    Type
REMARK                         _______ _______ _______ _____ _____    ______ ____
ROOT
ATOM      1  C   UNL     1       0.062  -2.644   4.232  0.00  0.00    +0.250 C 
ATOM      2  O   UNL     1       0.679  -3.128   5.161  0.00  0.00    -0.270 OA
ATOM      3  N   UNL     1      -1.251  -2.910   4.083  0.00  0.00    -0.292 N 
ATOM      4  C   UNL     1      -1.989  -2.442   2.899  0.00  0.00    +0.136 C 
ATOM      5  C   UNL     1      -2.749  -3.632   2.303  0.00  0.00    +0.179 C 
ATOM      6  O   UNL     1      -3.525  -4.258   3.328  0.00  0.00    -0.369 OA
ATOM      7  C   UNL     1      -2.748  -4.807   4.396  0.00  0.00    +0.168 C 
ATOM      8  C   UNL     1      -1.987  -3.682   5.097  0.00  0.00    +0.144 C 
ENDROOT
BRANCH   7   9
ATOM      9  C   UNL     1      -3.661  -5.491   5.381  0.00  0.00    +0.018 A 
ATOM     10  C   UNL     1      -4.985  -5.109   5.478  0.00  0.00    +0.009 A 
ATOM     11  C   UNL     1      -5.822  -5.736   6.381  0.00  0.00    +0.001 A 
ATOM     12  C   UNL     1      -5.336  -6.747   7.189  0.00  0.00    +0.003 A 
ATOM     13  C   UNL     1      -4.012  -7.132   7.094  0.00  0.00    +0.039 A 
ATOM     14  C   UNL     1      -3.174  -6.507   6.185  0.00  0.00    +0.129 A 
ATOM     15  F   UNL     1      -1.881  -6.886   6.088  0.00  0.00    -0.205 F 
ENDBRANCH   7   9
BRANCH   1  20
ATOM     16  C   UNL     1       0.815   0.255   1.971  0.00  0.00    -0.044 A 
ATOM     17  C   UNL     1       2.045  -0.116   1.452  0.00  0.00    +0.007 A 
ATOM     18  C   UNL     1       2.634  -1.305   1.832  0.00  0.00    +0.046 A 
ATOM     19  C   UNL     1       1.995  -2.138   2.739  0.00  0.00    +0.129 A 
ATOM     20  C   UNL     1       0.751  -1.767   3.267  0.00  0.00    +0.078 A 
ATOM     21  C   UNL     1       0.169  -0.558   2.877  0.00  0.00    +0.020 A 
BRANCH  16  23
ATOM     22  C   UNL     1       1.112   2.716   1.913  0.00  0.00    +0.012 C 
ATOM     23  C   UNL     1       0.184   1.556   1.548  0.00  0.00    +0.013 C 
ATOM     24  C   UNL     1      -0.045   1.544   0.035  0.00  0.00    +0.012 C 
ENDBRANCH  16  23
BRANCH  19  25
ATOM     25  O   UNL     1       2.572  -3.308   3.113  0.00  0.00    -0.506 OA
ATOM     26  H   UNL     1       3.146  -3.233   3.888  0.00  0.00    +0.292 HD
ENDBRANCH  19  25
ENDBRANCH   1  20
TORSDOF 4
