REMARK  Name = ZINC25615814
REMARK  7 active torsions:
REMARK  status: ('A' for Active; 'I' for Inactive)
REMARK    1  A    between atoms: C_1  and  C_2
REMARK    2  A    between atoms: C_2  and  N_3
REMARK    3  A    between atoms: C_9  and  C_15
REMARK    4  A    between atoms: N_17  and  C_18
REMARK    5  A    between atoms: C_18  and  C_19
REMARK    6  A    between atoms: C_19  and  C_21
REMARK    7  A    between atoms: C_19  and  N_26
REMARK                            x       y       z     vdW  Elec       q    Type
REMARK                         _______ _______ _______ _____ _____    ______ ____
ROOT
ATOM      1  C   UNL     1      -2.991  -3.194   1.447  0.00  0.00    +0.244 C 
ATOM      2  O   UNL     1      -4.149  -2.864   1.608  0.00  0.00    -0.270 OA
ATOM      3  N   UNL     1      -2.701  -4.401   0.922  0.00  0.00    -0.312 N 
ATOM      4  H   UNL     1      -1.653  -4.701   0.777  0.00  0.00    +0.149 HD
ENDROOT
BRANCH   1  11
ATOM      5  N   UNL     1       0.877   1.558   3.439  0.00  0.00    -0.287 N 
ATOM      6  C   UNL     1       1.245   0.365   2.919  0.00  0.00    +0.262 A 
ATOM      7  O   UNL     1       2.418   0.074   2.775  0.00  0.00    -0.267 OA
ATOM      8  C   UNL     1       0.175  -0.569   2.533  0.00  0.00    +0.065 A 
ATOM      9  C   UNL     1       0.457  -1.821   1.987  0.00  0.00    +0.016 A 
ATOM     10  C   UNL     1      -0.565  -2.658   1.642  0.00  0.00    +0.014 A 
ATOM     11  C   UNL     1      -1.898  -2.272   1.829  0.00  0.00    +0.039 A 
ATOM     12  C   UNL     1      -2.202  -1.029   2.370  0.00  0.00    +0.041 A 
ATOM     13  C   UNL     1      -1.165  -0.163   2.728  0.00  0.00    +0.080 A 
ATOM     14  N   UNL     1      -1.414   1.057   3.258  0.00  0.00    -0.222 NA
ATOM     15  C   UNL     1      -0.444   1.870   3.594  0.00  0.00    +0.183 A 
ATOM     16  S   UNL     1      -0.861   3.440   4.277  0.00  0.00    -0.011 S 
BRANCH   5  18
ATOM     17  C   UNL     1       2.240   3.431   2.654  0.00  0.00    +0.027 C 
ATOM     18  C   UNL     1       1.903   2.524   3.839  0.00  0.00    +0.124 C 
ENDBRANCH   5  18
ENDBRANCH   1  11
BRANCH   3  19
ATOM     19  C   UNL     1      -3.783  -5.314   0.544  0.00  0.00    +0.097 C 
BRANCH  19  20
ATOM     20  C   UNL     1      -3.192  -6.553  -0.131  0.00  0.00    +0.016 C 
BRANCH  20  21
ATOM     21  N   UNL     1      -2.189  -7.162   0.753  0.00  0.00    +0.387 N 
ATOM     22  C   UNL     1      -1.537  -8.305   0.102  0.00  0.00    -0.078 C 
ATOM     23  C   UNL     1      -0.403  -8.821   0.990  0.00  0.00    -0.019 C 
ATOM     24  C   UNL     1      -0.974  -9.241   2.347  0.00  0.00    -0.004 C 
ATOM     25  C   UNL     1      -1.690  -8.046   2.982  0.00  0.00    -0.019 C 
ATOM     26  C   UNL     1      -2.787  -7.552   2.037  0.00  0.00    -0.078 C 
ATOM     27  H   UNL     1      -1.416  -6.407   0.959  0.00  0.00    -0.081 HD
ENDBRANCH  20  21
BRANCH  20  28
ATOM     28  C   UNL     1      -4.290  -7.548  -0.405  0.00  0.00    +0.093 A 
ATOM     29  C   UNL     1      -4.791  -7.854  -1.615  0.00  0.00    +0.043 A 
ATOM     30  C   UNL     1      -5.795  -8.829  -1.409  0.00  0.00    +0.041 A 
ATOM     31  C   UNL     1      -5.853  -9.054  -0.084  0.00  0.00    +0.195 A 
ATOM     32  O   UNL     1      -4.939  -8.276   0.519  0.00  0.00    -0.469 OA
ENDBRANCH  20  28
ENDBRANCH  19  20
ENDBRANCH   3  19
TORSDOF 6
