REMARK  Name = ZINC66491531
REMARK  10 active torsions:
REMARK  status: ('A' for Active; 'I' for Inactive)
REMARK    1  A    between atoms: C_1  and  C_2
REMARK    2  A    between atoms: C_3  and  C_13
REMARK    3  A    between atoms: C_5  and  C_7
REMARK    4  A    between atoms: C_13  and  C_14
REMARK    5  A    between atoms: N_16  and  C_17
REMARK    6  A    between atoms: C_17  and  C_18
REMARK    7  A    between atoms: N_20  and  C_21
REMARK    8  A    between atoms: N_20  and  C_22
REMARK    9  A    between atoms: C_22  and  C_23
REMARK   10  A    between atoms: C_23  and  C_24
REMARK                            x       y       z     vdW  Elec       q    Type
REMARK                         _______ _______ _______ _____ _____    ______ ____
ROOT
ATOM      1  C   UNL     1      -3.001  -0.228  -1.406  0.00  0.00    +0.219 C 
ATOM      2  O   UNL     1      -2.251  -0.451  -2.333  0.00  0.00    -0.275 OA
ATOM      3  N   UNL     1      -4.271   0.156  -1.644  0.00  0.00    -0.306 N 
ATOM      4  H   UNL     1      -4.871   0.333  -0.903  0.00  0.00    +0.149 HD
ENDROOT
BRANCH   1   5
ATOM      5  C   UNL     1      -2.513  -0.381   0.012  0.00  0.00    +0.154 C 
BRANCH   5   8
ATOM      6  C   UNL     1      -0.018   1.503   0.010  0.00  0.00    +0.088 C 
ATOM      7  C   UNL     1       0.002  -0.004   0.002  0.00  0.00    +0.126 A 
ATOM      8  C   UNL     1      -1.071  -0.816   0.003  0.00  0.00    +0.091 A 
ATOM      9  N   UNL     1      -0.627  -2.083  -0.006  0.00  0.00    -0.213 NA
ATOM     10  C   UNL     1       0.685  -2.068  -0.012  0.00  0.00    +0.228 A 
ATOM     11  O   UNL     1       1.098  -0.788  -0.013  0.00  0.00    -0.440 OA
BRANCH  10  12
ATOM     12  C   UNL     1       1.562  -3.258  -0.023  0.00  0.00    +0.037 A 
ATOM     13  C   UNL     1       1.006  -4.538  -0.033  0.00  0.00    +0.013 A 
ATOM     14  C   UNL     1       1.830  -5.644  -0.043  0.00  0.00    +0.001 A 
ATOM     15  C   UNL     1       3.204  -5.487  -0.043  0.00  0.00    +0.000 A 
ATOM     16  C   UNL     1       3.762  -4.221  -0.033  0.00  0.00    +0.001 A 
ATOM     17  C   UNL     1       2.949  -3.106  -0.028  0.00  0.00    +0.013 A 
ENDBRANCH  10  12
ENDBRANCH   5   8
ENDBRANCH   1   5
BRANCH   3  18
ATOM     18  C   UNL     1      -4.745   0.304  -3.022  0.00  0.00    +0.200 C 
BRANCH  18  19
ATOM     19  C   UNL     1      -6.188   0.740  -3.013  0.00  0.00    +0.233 C 
ATOM     20  O   UNL     1      -6.763   0.908  -1.958  0.00  0.00    -0.274 OA
ATOM     21  N   UNL     1      -6.838   0.941  -4.176  0.00  0.00    -0.303 N 
ATOM     22  C   UNL     1      -6.143   0.737  -5.449  0.00  0.00    +0.132 C 
BRANCH  21  23
ATOM     23  C   UNL     1      -8.241   1.364  -4.166  0.00  0.00    +0.113 C 
BRANCH  23  24
ATOM     24  C   UNL     1      -8.313   2.892  -4.157  0.00  0.00    +0.074 C 
BRANCH  24  25
ATOM     25  C   UNL     1      -9.756   3.327  -4.148  0.00  0.00    +0.043 A 
ATOM     26  C   UNL     1     -10.205   4.183  -3.160  0.00  0.00    +0.023 A 
ATOM     27  C   UNL     1     -11.534   4.577  -3.160  0.00  0.00    +0.003 A 
ATOM     28  C   UNL     1     -12.366   4.093  -4.159  0.00  0.00    +0.020 A 
ATOM     29  C   UNL     1     -11.845   3.240  -5.114  0.00  0.00    +0.111 A 
ATOM     30  N   UNL     1     -10.574   2.891  -5.085  0.00  0.00    -0.260 NA
ENDBRANCH  24  25
ENDBRANCH  23  24
ENDBRANCH  21  23
ENDBRANCH  18  19
ENDBRANCH   3  18
TORSDOF 8
