REMARK  Name = ZINC08622716
REMARK  6 active torsions:
REMARK  status: ('A' for Active; 'I' for Inactive)
REMARK    1  A    between atoms: C_1  and  C_2
REMARK    2  A    between atoms: C_2  and  C_28
REMARK    3  A    between atoms: N_5  and  C_9
REMARK    4  A    between atoms: C_9  and  C_10
REMARK    5  A    between atoms: C_10  and  C_12
REMARK    6  A    between atoms: C_21  and  C_22
REMARK                            x       y       z     vdW  Elec       q    Type
REMARK                         _______ _______ _______ _____ _____    ______ ____
ROOT
ATOM      1  C   UNL     1      -0.661   6.357   0.043  0.00  0.00    +0.183 C 
ATOM      2  O   UNL     1      -0.255   7.501   0.046  0.00  0.00    -0.290 OA
ENDROOT
BRANCH   1   3
ATOM      3  C   UNL     1       0.256   5.282   0.029  0.00  0.00    +0.052 A 
ATOM      4  C   UNL     1      -0.066   3.842   0.023  0.00  0.00    +0.011 A 
ATOM      5  C   UNL     1      -1.260   3.124   0.031  0.00  0.00    +0.011 A 
ATOM      6  C   UNL     1      -1.227   1.746   0.017  0.00  0.00    +0.001 A 
ATOM      7  C   UNL     1      -0.013   1.076   0.008  0.00  0.00    +0.002 A 
ATOM      8  C   UNL     1       1.175   1.774   0.000  0.00  0.00    +0.026 A 
ATOM      9  C   UNL     1       1.164   3.166   0.008  0.00  0.00    +0.048 A 
ATOM     10  N   UNL     1       2.171   4.111   0.004  0.00  0.00    -0.354 N 
ATOM     11  H   UNL     1       3.119   3.908  -0.006  0.00  0.00    +0.166 HD
ATOM     12  C   UNL     1       1.646   5.368   0.016  0.00  0.00    +0.058 A 
BRANCH  12  13
ATOM     13  C   UNL     1       2.426   6.620   0.016  0.00  0.00    -0.001 A 
ATOM     14  C   UNL     1       2.076   7.665   0.876  0.00  0.00    +0.010 A 
ATOM     15  C   UNL     1       2.814   8.830   0.875  0.00  0.00    +0.001 A 
ATOM     16  C   UNL     1       3.890   8.971   0.017  0.00  0.00    +0.000 A 
ATOM     17  C   UNL     1       4.239   7.943  -0.842  0.00  0.00    +0.001 A 
ATOM     18  C   UNL     1       3.514   6.770  -0.848  0.00  0.00    +0.010 A 
ENDBRANCH  12  13
ENDBRANCH   1   3
BRANCH   1  19
ATOM     19  C   UNL     1      -2.143   6.083   0.056  0.00  0.00    +0.197 C 
BRANCH  19  24
ATOM     20  C   UNL     1      -5.413   9.253   1.216  0.00  0.00    +0.047 C 
ATOM     21  C   UNL     1      -3.964   9.250   0.725  0.00  0.00    +0.135 C 
ATOM     22  C   UNL     1      -3.246   8.000   1.192  0.00  0.00    +0.251 C 
ATOM     23  O   UNL     1      -3.046   7.654   2.337  0.00  0.00    -0.272 OA
ATOM     24  N   UNL     1      -2.874   7.353   0.070  0.00  0.00    -0.216 N 
ATOM     25  C   UNL     1      -3.260   8.010  -1.030  0.00  0.00    +0.310 C 
ATOM     26  O   UNL     1      -3.042   7.621  -2.161  0.00  0.00    -0.252 OA
ATOM     27  N   UNL     1      -3.915   9.149  -0.744  0.00  0.00    -0.281 N 
ATOM     28  H   UNL     1      -4.283   9.782  -1.381  0.00  0.00    +0.152 HD
BRANCH  21  29
ATOM     29  C   UNL     1      -3.244  10.487   1.196  0.00  0.00    -0.015 A 
ATOM     30  C   UNL     1      -2.606  10.491   2.422  0.00  0.00    +0.007 A 
ATOM     31  C   UNL     1      -1.940  11.623   2.852  0.00  0.00    +0.020 A 
ATOM     32  C   UNL     1      -1.922  12.757   2.060  0.00  0.00    +0.041 A 
ATOM     33  C   UNL     1      -2.565  12.755   0.835  0.00  0.00    +0.020 A 
ATOM     34  C   UNL     1      -3.226  11.620   0.403  0.00  0.00    +0.007 A 
ATOM     35 CL   UNL     1      -1.093  14.182   2.602  0.00  0.00    -0.084 Cl
ENDBRANCH  21  29
ENDBRANCH  19  24
ENDBRANCH   1  19
TORSDOF 5
