REMARK  Name = ZINC09089751
REMARK  8 active torsions:
REMARK  status: ('A' for Active; 'I' for Inactive)
REMARK    1  A    between atoms: C_1  and  C_2
REMARK    2  A    between atoms: C_2  and  C_3
REMARK    3  A    between atoms: C_3  and  C_4
REMARK    4  A    between atoms: C_4  and  N_5
REMARK    5  A    between atoms: N_5  and  S_6
REMARK    6  A    between atoms: S_6  and  C_9
REMARK    7  A    between atoms: N_17  and  C_18
REMARK    8  A    between atoms: C_18  and  C_20
REMARK                            x       y       z     vdW  Elec       q    Type
REMARK                         _______ _______ _______ _____ _____    ______ ____
ROOT
ATOM      1  C   UNL     1      -2.345  -5.157   0.881  0.00  0.00    +0.106 A 
ATOM      2  C   UNL     1      -1.031  -5.574   0.747  0.00  0.00    +0.030 A 
ATOM      3  C   UNL     1      -0.423  -6.338   1.717  0.00  0.00    +0.029 A 
ATOM      4  C   UNL     1      -1.124  -6.715   2.871  0.00  0.00    +0.055 A 
ATOM      5  C   UNL     1      -2.453  -6.280   2.981  0.00  0.00    +0.041 A 
ATOM      6  C   UNL     1      -3.056  -5.511   2.014  0.00  0.00    +0.045 A 
ATOM      7  S   UNL     1      -2.969  -6.950   4.540  0.00  0.00    -0.052 S 
ATOM      8  C   UNL     1      -1.542  -7.724   4.975  0.00  0.00    +0.164 A 
ATOM      9  N   UNL     1      -1.299  -8.426   6.078  0.00  0.00    -0.152 NA
ATOM     10  N   UNL     1      -0.694  -7.471   3.945  0.00  0.00    -0.335 N 
ATOM     11  H   UNL     1       0.211  -7.819   3.964  0.00  0.00    +0.168 HD
ENDROOT
BRANCH   1  12
ATOM     12  S   UNL     1      -3.100  -4.180  -0.375  0.00  0.00    +0.058 S 
ATOM     13  O   UNL     1      -4.502  -4.378  -0.256  0.00  0.00    -0.153 OA
ATOM     14  O   UNL     1      -2.393  -4.448  -1.579  0.00  0.00    -0.153 OA
BRANCH  12  15
ATOM     15  N   UNL     1      -2.812  -2.593  -0.001  0.00  0.00    -0.190 NA
ATOM     16  H   UNL     1      -3.551  -2.006   0.224  0.00  0.00    +0.148 HD
BRANCH  15  17
ATOM     17  C   UNL     1      -1.441  -2.076  -0.008  0.00  0.00    +0.106 C 
BRANCH  17  18
ATOM     18  C   UNL     1      -1.474  -0.546  -0.002  0.00  0.00    +0.017 C 
BRANCH  18  20
ATOM     19  C   UNL     1      -0.074   1.524  -0.004  0.00  0.00    +0.004 C 
ATOM     20  C   UNL     1      -0.042  -0.006  -0.010  0.00  0.00    -0.002 C 
ENDBRANCH  18  20
ENDBRANCH  17  18
ENDBRANCH  15  17
ENDBRANCH  12  15
ENDBRANCH   1  12
BRANCH   9  21
ATOM     21  C   UNL     1      -0.138  -9.071   6.216  0.00  0.00    +0.270 C 
ATOM     22  O   UNL     1       0.736  -8.940   5.377  0.00  0.00    -0.268 OA
BRANCH  21  23
ATOM     23  C   UNL     1       0.088  -9.947   7.392  0.00  0.00    +0.042 A 
ATOM     24  C   UNL     1      -0.903 -10.116   8.363  0.00  0.00    +0.033 A 
ATOM     25  C   UNL     1      -0.651 -10.941   9.442  0.00  0.00    +0.111 A 
ATOM     26  N   UNL     1       0.505 -11.564   9.561  0.00  0.00    -0.263 NA
ATOM     27  C   UNL     1       1.466 -11.433   8.668  0.00  0.00    +0.111 A 
ATOM     28  C   UNL     1       1.295 -10.632   7.556  0.00  0.00    +0.033 A 
ENDBRANCH  21  23
ENDBRANCH   9  21
TORSDOF 7
