REMARK  Name = ZINC39675888
REMARK  9 active torsions:
REMARK  status: ('A' for Active; 'I' for Inactive)
REMARK    1  A    between atoms: C_1  and  N_2
REMARK    2  A    between atoms: N_2  and  C_3
REMARK    3  A    between atoms: N_2  and  C_4
REMARK    4  A    between atoms: C_4  and  C_6
REMARK    5  A    between atoms: C_4  and  C_35
REMARK    6  A    between atoms: C_6  and  N_7
REMARK    7  A    between atoms: C_8  and  C_10
REMARK    8  A    between atoms: C_21  and  C_23
REMARK    9  A    between atoms: C_26  and  C_28
REMARK                            x       y       z     vdW  Elec       q    Type
REMARK                         _______ _______ _______ _____ _____    ______ ____
ROOT
ATOM      1  C   UNL     1      -2.562   3.787  -1.702  0.00  0.00    +0.100 C 
ATOM      2  C   UNL     1      -1.101   4.222  -1.954  0.00  0.00    +0.121 C 
ATOM      3  N   UNL     1      -1.088   4.696  -3.358  0.00  0.00    -0.294 N 
ATOM      4  C   UNL     1      -2.370   5.423  -3.514  0.00  0.00    +0.115 C 
ATOM      5  C   UNL     1      -3.392   4.579  -2.726  0.00  0.00    -0.004 C 
ATOM      6  C   UNL     1      -4.123   3.625  -3.666  0.00  0.00    -0.010 C 
ATOM      7  C   UNL     1      -4.986   4.434  -4.638  0.00  0.00    -0.082 C 
ATOM      8  N   UNL     1      -5.950   5.243  -3.883  0.00  0.00    +0.379 N 
ATOM      9  C   UNL     1      -5.239   6.222  -3.050  0.00  0.00    -0.082 C 
ATOM     10  C   UNL     1      -4.387   5.488  -2.011  0.00  0.00    -0.010 C 
ATOM     11  C   UNL     1      -0.127   4.507  -4.284  0.00  0.00    +0.282 C 
ATOM     12  O   UNL     1      -0.216   5.044  -5.372  0.00  0.00    -0.267 OA
ATOM     13  H   UNL     1      -6.557   5.729  -4.526  0.00  0.00    -0.086 HD
ATOM     14  H   UNL     1      -6.503   4.641  -3.292  0.00  0.00    -0.086 HD
ENDROOT
BRANCH  11  15
ATOM     15  C   UNL     1       1.026   3.656  -3.980  0.00  0.00    +0.190 A 
ATOM     16  C   UNL     1       2.124   3.461  -4.790  0.00  0.00    +0.055 A 
ATOM     17  C   UNL     1       2.974   2.581  -4.113  0.00  0.00    +0.050 A 
ATOM     18  C   UNL     1       2.371   2.274  -2.927  0.00  0.00    +0.136 A 
ATOM     19  O   UNL     1       1.202   2.932  -2.854  0.00  0.00    -0.450 OA
BRANCH  18  20
ATOM     20  C   UNL     1       2.917   1.373  -1.892  0.00  0.00    +0.017 A 
ATOM     21  C   UNL     1       4.201   0.840  -2.033  0.00  0.00    +0.014 A 
ATOM     22  C   UNL     1       4.705  -0.001  -1.063  0.00  0.00    +0.039 A 
ATOM     23  C   UNL     1       3.942  -0.317   0.049  0.00  0.00    +0.123 A 
ATOM     24  C   UNL     1       2.667   0.209   0.194  0.00  0.00    +0.039 A 
ATOM     25  C   UNL     1       2.155   1.055  -0.766  0.00  0.00    +0.014 A 
ATOM     26  F   UNL     1       4.442  -1.141   0.996  0.00  0.00    -0.205 F 
ENDBRANCH  18  20
ENDBRANCH  11  15
BRANCH   1  28
ATOM     27  N   UNL     1      -3.742   1.638  -1.373  0.00  0.00    -0.316 N 
ATOM     28  C   UNL     1      -2.716   2.306  -1.936  0.00  0.00    +0.218 C 
ATOM     29  O   UNL     1      -1.916   1.715  -2.630  0.00  0.00    -0.275 OA
ATOM     30  H   UNL     1      -4.421   2.121  -0.877  0.00  0.00    +0.149 HD
BRANCH  27  31
ATOM     31  C   UNL     1      -3.831   0.182  -1.510  0.00  0.00    +0.093 C 
BRANCH  31  32
ATOM     32  C   UNL     1      -5.010  -0.337  -0.684  0.00  0.00    -0.021 C 
BRANCH  32  33
ATOM     33  C   UNL     1      -6.297   0.213  -1.245  0.00  0.00    -0.059 A 
ATOM     34  C   UNL     1      -6.870  -0.372  -2.359  0.00  0.00    +0.002 A 
ATOM     35  C   UNL     1      -8.050   0.132  -2.873  0.00  0.00    +0.000 A 
ATOM     36  C   UNL     1      -8.656   1.220  -2.275  0.00  0.00    +0.000 A 
ATOM     37  C   UNL     1      -8.083   1.804  -1.161  0.00  0.00    +0.000 A 
ATOM     38  C   UNL     1      -6.906   1.298  -0.643  0.00  0.00    +0.002 A 
ENDBRANCH  32  33
BRANCH  32  40
ATOM     39  C   UNL     1      -3.817  -2.342  -0.128  0.00  0.00    -0.096 C 
ATOM     40  N   UNL     1      -5.039  -1.804  -0.740  0.00  0.00    +0.382 N 
ATOM     41  C   UNL     1      -6.212  -2.299  -0.007  0.00  0.00    -0.096 C 
ATOM     42  H   UNL     1      -5.093  -2.103  -1.702  0.00  0.00    -0.082 HD
ENDBRANCH  32  40
ENDBRANCH  31  32
ENDBRANCH  27  31
ENDBRANCH   1  28
TORSDOF 7
