REMARK  Name = ZINC15913838
REMARK  6 active torsions:
REMARK  status: ('A' for Active; 'I' for Inactive)
REMARK    1  A    between atoms: C_1  and  C_2
REMARK    2  A    between atoms: C_3  and  C_20
REMARK    3  A    between atoms: C_4  and  C_10
REMARK    4  A    between atoms: C_13  and  C_16
REMARK    5  A    between atoms: N_22  and  C_23
REMARK    6  A    between atoms: C_27  and  N_29
REMARK                            x       y       z     vdW  Elec       q    Type
REMARK                         _______ _______ _______ _____ _____    ______ ____
ROOT
ATOM      1  C   UNL     1       0.164   4.473  -0.771  0.00  0.00    +0.061 C 
ATOM      2  C   UNL     1      -0.065   3.136  -0.114  0.00  0.00    +0.019 C 
ATOM      3  C   UNL     1      -1.309   2.795   0.281  0.00  0.00    +0.056 C 
ATOM      4  C   UNL     1      -1.496   1.439   0.932  0.00  0.00    +0.142 C 
ATOM      5  N   UNL     1      -0.294   0.604   1.091  0.00  0.00    -0.288 N 
ATOM      6  C   UNL     1       0.884   1.084   0.646  0.00  0.00    +0.304 C 
ATOM      7  O   UNL     1       1.882   0.400   0.768  0.00  0.00    -0.252 OA
ATOM      8  N   UNL     1       0.991   2.289   0.072  0.00  0.00    -0.273 N 
ATOM      9  H   UNL     1      -0.349  -0.272   1.504  0.00  0.00    +0.151 HD
ATOM     10  H   UNL     1       1.868   2.577  -0.228  0.00  0.00    +0.156 HD
ENDROOT
BRANCH   4  11
ATOM     11  C   UNL     1      -2.091   1.664   2.298  0.00  0.00    -0.023 A 
ATOM     12  C   UNL     1      -1.288   2.087   3.341  0.00  0.00    +0.006 A 
ATOM     13  C   UNL     1      -1.835   2.297   4.593  0.00  0.00    +0.013 A 
ATOM     14  C   UNL     1      -3.182   2.074   4.805  0.00  0.00    +0.055 A 
ATOM     15  C   UNL     1      -3.984   1.646   3.764  0.00  0.00    +0.013 A 
ATOM     16  C   UNL     1      -3.439   1.441   2.510  0.00  0.00    +0.006 A 
BRANCH  14  17
ATOM     17  C   UNL     1      -3.777   2.298   6.171  0.00  0.00    +0.417 C 
ATOM     18  F   UNL     1      -3.703   1.113   6.911  0.00  0.00    -0.166 F 
ATOM     19  F   UNL     1      -3.064   3.304   6.831  0.00  0.00    -0.166 F 
ATOM     20  F   UNL     1      -5.115   2.683   6.040  0.00  0.00    -0.166 F 
ENDBRANCH  14  17
ENDBRANCH   4  11
BRANCH   3  21
ATOM     21  C   UNL     1      -2.405   3.672   0.088  0.00  0.00    +0.248 C 
ATOM     22  O   UNL     1      -3.206   3.460  -0.804  0.00  0.00    -0.270 OA
ATOM     23  N   UNL     1      -2.561   4.742   0.893  0.00  0.00    -0.282 N 
ATOM     24  H   UNL     1      -1.884   4.954   1.554  0.00  0.00    +0.155 HD
BRANCH  23  25
ATOM     25  C   UNL     1      -3.699   5.546   0.775  0.00  0.00    +0.036 A 
ATOM     26  C   UNL     1      -4.262   5.775  -0.474  0.00  0.00    +0.023 A 
ATOM     27  C   UNL     1      -5.389   6.566  -0.587  0.00  0.00    +0.004 A 
ATOM     28  C   UNL     1      -5.950   7.137   0.540  0.00  0.00    +0.033 A 
ATOM     29  C   UNL     1      -5.389   6.915   1.784  0.00  0.00    +0.128 A 
ATOM     30  C   UNL     1      -4.265   6.121   1.905  0.00  0.00    +0.056 A 
BRANCH  29  31
ATOM     31  N   UNL     1      -5.993   7.529   2.988  0.00  0.00    +0.056 N 
ATOM     32  O   UNL     1      -5.499   7.333   4.084  0.00  0.00    -0.126 OA
ATOM     33  O   UNL     1      -6.985   8.228   2.883  0.00  0.00    -0.126 OA
ENDBRANCH  29  31
ENDBRANCH  23  25
ENDBRANCH   3  21
TORSDOF 5
