REMARK  Name = ZINC26513410
REMARK  8 active torsions:
REMARK  status: ('A' for Active; 'I' for Inactive)
REMARK    1  A    between atoms: C_1  and  C_2
REMARK    2  A    between atoms: C_4  and  N_27
REMARK    3  A    between atoms: C_6  and  S_8
REMARK    4  A    between atoms: S_8  and  C_9
REMARK    5  A    between atoms: C_9  and  C_11
REMARK    6  A    between atoms: C_9  and  C_12
REMARK    7  A    between atoms: N_14  and  C_15
REMARK    8  A    between atoms: C_18  and  N_21
REMARK                            x       y       z     vdW  Elec       q    Type
REMARK                         _______ _______ _______ _____ _____    ______ ____
ROOT
ATOM      1  C   UNL     1       8.425  -0.104  -1.149  0.00  0.00    +0.230 C 
ATOM      2  O   UNL     1       7.817  -1.098  -1.487  0.00  0.00    -0.274 OA
ATOM      3  N   UNL     1       7.753   1.002  -0.773  0.00  0.00    -0.285 N 
ATOM      4  H   UNL     1       8.301   1.930  -0.552  0.00  0.00    +0.155 HD
ENDROOT
BRANCH   3   5
ATOM      5  C   UNL     1       6.357   0.970  -0.662  0.00  0.00    +0.034 A 
ATOM      6  C   UNL     1       5.609   2.092  -0.989  0.00  0.00    +0.025 A 
ATOM      7  C   UNL     1       4.233   2.061  -0.881  0.00  0.00    +0.025 A 
ATOM      8  C   UNL     1       3.598   0.906  -0.443  0.00  0.00    +0.036 A 
ATOM      9  C   UNL     1       4.347  -0.215  -0.110  0.00  0.00    +0.025 A 
ATOM     10  C   UNL     1       5.722  -0.185  -0.225  0.00  0.00    +0.025 A 
BRANCH   8  11
ATOM     11  N   UNL     1       2.202   0.873  -0.333  0.00  0.00    -0.271 N 
ATOM     12  C   UNL     1       1.327   2.033  -0.544  0.00  0.00    +0.114 C 
ATOM     13  C   UNL     1      -0.088   1.449  -0.750  0.00  0.00    +0.029 C 
ATOM     14  C   UNL     1       0.014   0.102   0.001  0.00  0.00    +0.098 C 
ATOM     15  C   UNL     1       1.491  -0.224  -0.020  0.00  0.00    +0.220 C 
ATOM     16  O   UNL     1       1.965  -1.316   0.213  0.00  0.00    -0.275 OA
ENDBRANCH   8  11
ENDBRANCH   3   5
BRANCH   1  17
ATOM     17  C   UNL     1       9.932  -0.106  -1.151  0.00  0.00    +0.137 C 
ATOM     18  C   UNL     1      10.442   0.588  -2.416  0.00  0.00    +0.029 C 
BRANCH  17  19
ATOM     19  S   UNL     1      10.533  -1.813  -1.115  0.00  0.00    -0.074 S 
BRANCH  19  25
ATOM     20  C   UNL     1      15.325  -3.571  -0.739  0.00  0.00    +0.066 C 
ATOM     21  C   UNL     1      14.399  -2.384  -0.805  0.00  0.00    +0.044 A 
ATOM     22  C   UNL     1      14.905  -1.100  -0.753  0.00  0.00    +0.066 A 
ATOM     23  C   UNL     1      14.012  -0.028  -0.818  0.00  0.00    +0.121 A 
ATOM     24  N   UNL     1      12.711  -0.278  -0.926  0.00  0.00    -0.207 NA
ATOM     25  C   UNL     1      12.265  -1.525  -0.972  0.00  0.00    +0.191 A 
ATOM     26  N   UNL     1      13.090  -2.561  -0.907  0.00  0.00    -0.227 NA
BRANCH  23  27
ATOM     27  N   UNL     1      14.475   1.276  -0.770  0.00  0.00    -0.343 N 
ATOM     28  H   UNL     1      13.765   2.115  -0.821  0.00  0.00    +0.144 HD
ATOM     29  H   UNL     1      15.554   1.474  -0.681  0.00  0.00    +0.144 HD
ENDBRANCH  23  27
ENDBRANCH  19  25
ENDBRANCH  17  19
ENDBRANCH   1  17
TORSDOF 6
