REMARK  Name = ZINC28249816
REMARK  11 active torsions:
REMARK  status: ('A' for Active; 'I' for Inactive)
REMARK    1  A    between atoms: C_1  and  C_2
REMARK    2  A    between atoms: C_5  and  N_9
REMARK    3  A    between atoms: C_6  and  C_8
REMARK    4  A    between atoms: C_10  and  C_12
REMARK    5  A    between atoms: C_14  and  C_35
REMARK    6  A    between atoms: C_16  and  C_24
REMARK    7  A    between atoms: C_18  and  C_22
REMARK    8  A    between atoms: C_18  and  O_23
REMARK    9  A    between atoms: N_26  and  C_27
REMARK   10  A    between atoms: C_30  and  C_34
REMARK   11  A    between atoms: C_32  and  C_33
REMARK                            x       y       z     vdW  Elec       q    Type
REMARK                         _______ _______ _______ _____ _____    ______ ____
ROOT
ATOM      1  C   UNL     1      -1.813   5.477   0.876  0.00  0.00    +0.149 C 
ATOM      2  C   UNL     1      -1.643   4.646  -0.400  0.00  0.00    +0.054 C 
ATOM      3  C   UNL     1      -2.353   5.345  -1.560  0.00  0.00    +0.115 C 
ATOM      4  C   UNL     1      -3.857   5.409  -1.285  0.00  0.00    +0.082 C 
ATOM      5  C   UNL     1      -4.110   6.269  -0.042  0.00  0.00    +0.110 C 
ATOM      6  C   UNL     1      -3.289   5.715   1.102  0.00  0.00    +0.148 C 
ATOM      7  O   UNL     1      -3.800   5.469   2.168  0.00  0.00    -0.296 OA
ATOM      8  C   UNL     1      -4.570   6.028  -2.488  0.00  0.00    +0.042 C 
ENDROOT
BRANCH   2   9
ATOM      9  C   UNL     1      -0.176   4.508  -0.719  0.00  0.00    -0.024 A 
ATOM     10  C   UNL     1       0.413   3.255  -0.788  0.00  0.00    +0.007 A 
ATOM     11  C   UNL     1       1.766   3.177  -1.079  0.00  0.00    +0.020 A 
ATOM     12  C   UNL     1       2.476   4.342  -1.300  0.00  0.00    +0.111 A 
ATOM     13  N   UNL     1       1.881   5.517  -1.230  0.00  0.00    -0.263 NA
ATOM     14  C   UNL     1       0.598   5.630  -0.951  0.00  0.00    +0.114 A 
ENDBRANCH   2   9
BRANCH   1  16
ATOM     15  N   UNL     1      -1.274   5.272   3.281  0.00  0.00    -0.285 N 
ATOM     16  C   UNL     1      -1.235   4.728   2.049  0.00  0.00    +0.228 C 
ATOM     17  O   UNL     1      -0.736   3.635   1.884  0.00  0.00    -0.275 OA
ATOM     18  H   UNL     1      -1.790   6.230   3.444  0.00  0.00    +0.155 HD
BRANCH  15  23
ATOM     19  C   UNL     1       1.224   2.622   7.632  0.00  0.00    +0.044 C 
ATOM     20  C   UNL     1       0.560   3.326   6.476  0.00  0.00    -0.050 A 
ATOM     21  C   UNL     1       0.096   2.595   5.397  0.00  0.00    +0.005 A 
ATOM     22  C   UNL     1      -0.512   3.237   4.337  0.00  0.00    +0.024 A 
ATOM     23  C   UNL     1      -0.658   4.618   4.354  0.00  0.00    +0.036 A 
ATOM     24  C   UNL     1      -0.186   5.350   5.436  0.00  0.00    -0.029 A 
ATOM     25  C   UNL     1       0.417   4.701   6.496  0.00  0.00    +0.008 A 
ATOM     26  C   UNL     1      -0.336   6.849   5.456  0.00  0.00    +0.045 C 
ENDBRANCH  15  23
ENDBRANCH   1  16
BRANCH   3  27
ATOM     27  C   UNL     1      -2.110   4.575  -2.833  0.00  0.00    +0.224 C 
ATOM     28  O   UNL     1      -1.522   3.515  -2.798  0.00  0.00    -0.275 OA
ATOM     29  N   UNL     1      -2.546   5.065  -4.011  0.00  0.00    -0.285 N 
ATOM     30  H   UNL     1      -3.003   6.065  -4.055  0.00  0.00    +0.155 HD
BRANCH  29  31
ATOM     31  C   UNL     1      -2.419   4.301  -5.176  0.00  0.00    +0.036 A 
ATOM     32  C   UNL     1      -2.250   2.925  -5.092  0.00  0.00    +0.024 A 
ATOM     33  C   UNL     1      -2.125   2.174  -6.244  0.00  0.00    +0.005 A 
ATOM     34  C   UNL     1      -2.167   2.791  -7.481  0.00  0.00    -0.050 A 
ATOM     35  C   UNL     1      -2.334   4.161  -7.568  0.00  0.00    +0.008 A 
ATOM     36  C   UNL     1      -2.466   4.917  -6.420  0.00  0.00    -0.029 A 
ATOM     37  C   UNL     1      -2.655   6.409  -6.516  0.00  0.00    +0.045 C 
ATOM     38  C   UNL     1      -2.029   1.969  -8.736  0.00  0.00    +0.044 C 
ENDBRANCH  29  31
ENDBRANCH   3  27
BRANCH   4  39
ATOM     39  O   UNL     1      -4.357   4.089  -1.061  0.00  0.00    -0.388 OA
ATOM     40  H   UNL     1      -5.424   3.935  -0.845  0.00  0.00    +0.210 HD
ENDBRANCH   4  39
TORSDOF 6
