REMARK  Name = ZINC09335606
REMARK  9 active torsions:
REMARK  status: ('A' for Active; 'I' for Inactive)
REMARK    1  A    between atoms: C_1  and  C_2
REMARK    2  A    between atoms: C_2  and  C_4
REMARK    3  A    between atoms: C_2  and  N_66
REMARK    4  A    between atoms: C_7  and  S_15
REMARK    5  A    between atoms: N_8  and  C_9
REMARK    6  A    between atoms: S_15  and  C_16
REMARK    7  A    between atoms: C_16  and  C_18
REMARK    8  A    between atoms: C_16  and  C_19
REMARK    9  A    between atoms: N_21  and  C_22
REMARK                            x       y       z     vdW  Elec       q    Type
REMARK                         _______ _______ _______ _____ _____    ______ ____
ROOT
ATOM      1  C   UNL     1      -1.212   5.968   1.341  0.00  0.00    +0.125 A 
ATOM      2  N   UNL     1      -0.602   5.691   0.223  0.00  0.00    -0.135 NA
ATOM      3  N   UNL     1      -0.411   4.424   0.126  0.00  0.00    -0.122 NA
ATOM      4  C   UNL     1      -0.892   3.816   1.186  0.00  0.00    +0.197 A 
ATOM      5  N   UNL     1      -1.425   4.783   1.994  0.00  0.00    -0.275 N 
ENDROOT
BRANCH   5   6
ATOM      6  C   UNL     1      -2.054   4.599   3.233  0.00  0.00    +0.050 A 
ATOM      7  C   UNL     1      -3.400   4.906   3.382  0.00  0.00    +0.026 A 
ATOM      8  C   UNL     1      -4.019   4.718   4.602  0.00  0.00    +0.002 A 
ATOM      9  C   UNL     1      -3.297   4.237   5.679  0.00  0.00    +0.000 A 
ATOM     10  C   UNL     1      -1.955   3.936   5.535  0.00  0.00    +0.002 A 
ATOM     11  C   UNL     1      -1.332   4.116   4.316  0.00  0.00    +0.026 A 
ENDBRANCH   5   6
BRANCH   1  13
ATOM     12  C   UNL     1      -2.838   7.816   1.038  0.00  0.00    -0.005 C 
ATOM     13  C   UNL     1      -1.614   7.338   1.823  0.00  0.00    -0.002 C 
BRANCH  13  19
ATOM     14  C   UNL     1       0.720   7.798   2.273  0.00  0.00    -0.078 C 
ATOM     15  C   UNL     1       1.887   8.720   1.916  0.00  0.00    -0.019 C 
ATOM     16  C   UNL     1       1.564  10.145   2.373  0.00  0.00    -0.004 C 
ATOM     17  C   UNL     1       0.261  10.602   1.711  0.00  0.00    -0.019 C 
ATOM     18  C   UNL     1      -0.860   9.625   2.074  0.00  0.00    -0.078 C 
ATOM     19  N   UNL     1      -0.498   8.277   1.585  0.00  0.00    +0.386 N 
ATOM     20  H   UNL     1      -0.314   8.327   0.577  0.00  0.00    -0.081 HD
ENDBRANCH  13  19
ENDBRANCH   1  13
BRANCH   4  21
ATOM     21  S   UNL     1      -0.864   2.083   1.504  0.00  0.00    -0.073 S 
BRANCH  21  22
ATOM     22  C   UNL     1      -0.024   1.503   0.009  0.00  0.00    +0.137 C 
ATOM     23  C   UNL     1       1.407   2.043  -0.014  0.00  0.00    +0.029 C 
BRANCH  22  24
ATOM     24  C   UNL     1       0.007  -0.004   0.003  0.00  0.00    +0.230 C 
ATOM     25  O   UNL     1      -0.145  -0.618   1.038  0.00  0.00    -0.274 OA
ATOM     26  N   UNL     1       0.203  -0.669  -1.153  0.00  0.00    -0.285 N 
ATOM     27  H   UNL     1       0.259  -0.182  -1.990  0.00  0.00    +0.155 HD
BRANCH  26  28
ATOM     28  C   UNL     1       0.326  -2.062  -1.146  0.00  0.00    +0.034 A 
ATOM     29  C   UNL     1      -0.419  -2.819  -0.233  0.00  0.00    +0.024 A 
ATOM     30  C   UNL     1      -0.323  -4.174  -0.207  0.00  0.00    +0.010 A 
ATOM     31  C   UNL     1       0.543  -4.833  -1.098  0.00  0.00    -0.018 A 
ATOM     32  C   UNL     1       0.667  -6.233  -1.089  0.00  0.00    +0.008 A 
ATOM     33  C   UNL     1       1.515  -6.840  -1.965  0.00  0.00    +0.001 A 
ATOM     34  C   UNL     1       2.264  -6.094  -2.872  0.00  0.00    +0.001 A 
ATOM     35  C   UNL     1       2.171  -4.737  -2.910  0.00  0.00    +0.008 A 
ATOM     36  C   UNL     1       1.306  -4.074  -2.021  0.00  0.00    -0.016 A 
ATOM     37  C   UNL     1       1.184  -2.675  -2.032  0.00  0.00    +0.031 A 
ENDBRANCH  26  28
ENDBRANCH  22  24
ENDBRANCH  21  22
ENDBRANCH   4  21
TORSDOF 7
