REMARK  Name = ZINC62038868
REMARK  8 active torsions:
REMARK  status: ('A' for Active; 'I' for Inactive)
REMARK    1  A    between atoms: C_1  and  C_2
REMARK    2  A    between atoms: C_11  and  S_15
REMARK    3  A    between atoms: S_15  and  C_16
REMARK    4  A    between atoms: C_16  and  C_18
REMARK    5  A    between atoms: C_16  and  C_19
REMARK    6  A    between atoms: N_21  and  C_22
REMARK    7  A    between atoms: C_24  and  C_29
REMARK    8  A    between atoms: C_27  and  O_28
REMARK                            x       y       z     vdW  Elec       q    Type
REMARK                         _______ _______ _______ _____ _____    ______ ____
ROOT
ATOM      1  C   UNL     1       0.991  -6.167  -3.648  0.00  0.00    +0.136 C 
ATOM      2  C   UNL     1       2.451  -6.622  -3.665  0.00  0.00    +0.029 C 
ENDROOT
BRANCH   1   3
ATOM      3  C   UNL     1       0.514  -5.953  -5.061  0.00  0.00    +0.230 C 
ATOM      4  O   UNL     1       0.551  -4.844  -5.552  0.00  0.00    -0.274 OA
ATOM      5  N   UNL     1       0.047  -6.992  -5.780  0.00  0.00    -0.282 N 
ATOM      6  H   UNL     1       0.077  -7.889  -5.412  0.00  0.00    +0.155 HD
BRANCH   5   7
ATOM      7  C   UNL     1      -0.483  -6.778  -7.060  0.00  0.00    +0.076 A 
ATOM      8  C   UNL     1       0.053  -5.799  -7.874  0.00  0.00    +0.038 A 
ATOM      9  C   UNL     1      -0.479  -5.588  -9.152  0.00  0.00    +0.016 A 
ATOM     10  C   UNL     1      -1.552  -6.370  -9.597  0.00  0.00    +0.015 A 
ATOM     11  C   UNL     1      -2.080  -7.344  -8.779  0.00  0.00    +0.048 A 
ATOM     12  C   UNL     1      -1.548  -7.557  -7.514  0.00  0.00    +0.138 A 
BRANCH  12  13
ATOM     13  O   UNL     1      -2.070  -8.522  -6.714  0.00  0.00    -0.505 OA
ATOM     14  H   UNL     1      -2.792  -8.216  -6.148  0.00  0.00    +0.292 HD
ENDBRANCH  12  13
BRANCH   9  15
ATOM     15  C   UNL     1       0.086  -4.549 -10.023  0.00  0.00    +0.258 C 
ATOM     16  O   UNL     1      -0.377  -4.368 -11.129  0.00  0.00    -0.296 OA
ENDBRANCH   9  15
ENDBRANCH   5   7
ENDBRANCH   1   3
BRANCH   1  17
ATOM     17  S   UNL     1       0.852  -4.614  -2.720  0.00  0.00    -0.093 S 
BRANCH  17  27
ATOM     18  C   UNL     1       0.028   1.520   0.020  0.00  0.00    +0.008 C 
ATOM     19  C   UNL     1       0.048  -0.010   0.010  0.00  0.00    -0.009 C 
ATOM     20  C   UNL     1       0.762  -0.506  -1.251  0.00  0.00    +0.008 C 
ATOM     21  C   UNL     1       0.571  -2.016  -1.395  0.00  0.00    +0.037 C 
ATOM     22  C   UNL     1       0.995  -2.694  -0.095  0.00  0.00    -0.025 A 
ATOM     23  C   UNL     1       1.086  -1.984   1.053  0.00  0.00    -0.004 A 
ATOM     24  S   UNL     1       1.601  -3.152   2.287  0.00  0.00    -0.073 S 
ATOM     25  C   UNL     1       1.694  -4.588   1.268  0.00  0.00    +0.113 A 
ATOM     26  C   UNL     1       1.318  -4.109  -0.013  0.00  0.00    +0.043 A 
ATOM     27  C   UNL     1       1.298  -5.059  -1.075  0.00  0.00    +0.109 A 
ATOM     28  N   UNL     1       1.637  -6.305  -0.746  0.00  0.00    -0.229 NA
ATOM     29  C   UNL     1       1.977  -6.678   0.472  0.00  0.00    +0.223 A 
ATOM     30  N   UNL     1       2.016  -5.844   1.505  0.00  0.00    -0.228 NA
ATOM     31  C   UNL     1       0.807  -0.524   1.242  0.00  0.00    +0.046 C 
ENDBRANCH  17  27
ENDBRANCH   1  17
TORSDOF 6
