REMARK  Name = ZINC63994260
REMARK  8 active torsions:
REMARK  status: ('A' for Active; 'I' for Inactive)
REMARK    1  A    between atoms: C_1  and  C_2
REMARK    2  A    between atoms: C_2  and  N_3
REMARK    3  A    between atoms: C_6  and  C_8
REMARK    4  A    between atoms: C_17  and  N_21
REMARK    5  A    between atoms: N_21  and  C_22
REMARK    6  A    between atoms: C_22  and  C_23
REMARK    7  A    between atoms: C_23  and  C_24
REMARK    8  A    between atoms: C_32  and  C_34
REMARK                            x       y       z     vdW  Elec       q    Type
REMARK                         _______ _______ _______ _____ _____    ______ ____
ROOT
ATOM      1  N   UNL     1      -1.378  -0.498   0.014  0.00  0.00    -0.268 N 
ATOM      2  C   UNL     1      -2.097  -0.754   1.120  0.00  0.00    +0.043 A 
ATOM      3  C   UNL     1      -3.311  -1.201   0.715  0.00  0.00    +0.004 A 
ATOM      4  C   UNL     1      -3.274  -1.200  -0.690  0.00  0.00    +0.151 A 
ATOM      5  N   UNL     1      -2.077  -0.757  -1.037  0.00  0.00    -0.166 NA
ATOM      6  C   UNL     1      -4.427  -1.599   1.640  0.00  0.00    +0.023 C 
ATOM      7  C   UNL     1      -4.119  -1.039   3.035  0.00  0.00    -0.067 C 
ATOM      8  C   UNL     1      -2.683  -1.401   3.425  0.00  0.00    -0.009 C 
ATOM      9  C   UNL     1      -1.697  -0.601   2.565  0.00  0.00    +0.054 C 
ENDROOT
BRANCH   4  10
ATOM     10  C   UNL     1      -4.362  -1.607  -1.602  0.00  0.00    +0.267 C 
ATOM     11  O   UNL     1      -5.383  -2.090  -1.152  0.00  0.00    -0.268 OA
ATOM     12  N   UNL     1      -4.223  -1.444  -2.932  0.00  0.00    -0.295 N 
ATOM     13  C   UNL     1      -2.945  -0.979  -3.474  0.00  0.00    +0.119 C 
ATOM     14  C   UNL     1      -2.315  -2.090  -4.321  0.00  0.00    +0.088 C 
ATOM     15  S   UNL     1      -3.487  -2.560  -5.629  0.00  0.00    -0.158 S 
ATOM     16  C   UNL     1      -5.008  -2.936  -4.706  0.00  0.00    +0.088 C 
ATOM     17  C   UNL     1      -5.350  -1.740  -3.818  0.00  0.00    +0.119 C 
ENDBRANCH   4  10
BRANCH   7  18
ATOM     18  N   UNL     1      -5.051  -1.617   4.012  0.00  0.00    +0.381 N 
ATOM     19  H   UNL     1      -6.000  -1.449   3.712  0.00  0.00    -0.086 HD
ATOM     20  H   UNL     1      -4.892  -2.611   4.082  0.00  0.00    -0.086 HD
BRANCH  18  21
ATOM     21  C   UNL     1      -4.835  -0.993   5.324  0.00  0.00    -0.078 C 
BRANCH  21  22
ATOM     22  C   UNL     1      -5.807  -1.595   6.341  0.00  0.00    +0.014 C 
BRANCH  22  23
ATOM     23  C   UNL     1      -5.585  -0.955   7.688  0.00  0.00    -0.040 C 
ATOM     24  C   UNL     1      -4.685   0.007   7.992  0.00  0.00    +0.005 A 
ATOM     25  C   UNL     1      -3.682   0.721   7.194  0.00  0.00    +0.048 A 
ATOM     26  C   UNL     1      -2.903   1.656   7.782  0.00  0.00    +0.127 A 
ATOM     27  C   UNL     1      -3.016   1.979   9.143  0.00  0.00    +0.078 A 
ATOM     28  C   UNL     1      -3.909   1.379   9.963  0.00  0.00    +0.150 A 
ATOM     29  C   UNL     1      -4.806   0.346   9.428  0.00  0.00    +0.079 A 
ATOM     30  N   UNL     1      -5.742  -0.377   9.990  0.00  0.00    -0.376 N 
ATOM     31  C   UNL     1      -6.328  -1.255   8.970  0.00  0.00    +0.103 C 
ATOM     32  C   UNL     1      -6.130  -2.720   9.364  0.00  0.00    +0.035 C 
ATOM     33  F   UNL     1      -3.975   1.728  11.266  0.00  0.00    -0.203 F 
ATOM     34  F   UNL     1      -1.984   2.304   7.034  0.00  0.00    -0.205 F 
ATOM     35  H   UNL     1      -6.006  -0.337  10.922  0.00  0.00    +0.160 HD
ENDBRANCH  22  23
ENDBRANCH  21  22
ENDBRANCH  18  21
ENDBRANCH   7  18
BRANCH   1  37
ATOM     36  C   UNL     1      -0.023   1.538  -0.002  0.00  0.00    +0.029 C 
ATOM     37  C   UNL     1      -0.003   0.008   0.005  0.00  0.00    +0.140 C 
ENDBRANCH   1  37
TORSDOF 6
