REMARK  Name = ZINC39943959
REMARK  8 active torsions:
REMARK  status: ('A' for Active; 'I' for Inactive)
REMARK    1  A    between atoms: C_1  and  C_2
REMARK    2  A    between atoms: C_6  and  N_12
REMARK    3  A    between atoms: C_9  and  C_11
REMARK    4  A    between atoms: C_13  and  C_15
REMARK    5  A    between atoms: C_15  and  S_16
REMARK    6  A    between atoms: S_16  and  C_17
REMARK    7  A    between atoms: C_21  and  C_30
REMARK    8  A    between atoms: N_22  and  C_23
REMARK                            x       y       z     vdW  Elec       q    Type
REMARK                         _______ _______ _______ _____ _____    ______ ____
ROOT
ATOM      1  S   UNL     1       7.104  -3.238  -3.392  0.00  0.00    -0.108 S 
ENDROOT
BRANCH   1   2
ATOM      2  C   UNL     1       7.579  -4.892  -3.964  0.00  0.00    +0.241 C 
ATOM      3  N   UNL     1       6.396  -5.766  -4.058  0.00  0.00    -0.237 N 
ATOM      4  N   UNL     1       6.617  -6.823  -3.167  0.00  0.00    -0.168 NA
ATOM      5  C   UNL     1       7.753  -6.704  -2.562  0.00  0.00    +0.153 C 
ATOM      6  N   UNL     1       8.438  -5.556  -2.969  0.00  0.00    -0.254 N 
ATOM      7  H   UNL     1       5.620  -5.634  -4.624  0.00  0.00    +0.171 HD
BRANCH   6   8
ATOM      8  C   UNL     1       9.689  -5.123  -2.522  0.00  0.00    +0.038 A 
ATOM      9  C   UNL     1      10.831  -5.424  -3.253  0.00  0.00    +0.025 A 
ATOM     10  C   UNL     1      12.066  -4.994  -2.809  0.00  0.00    +0.022 A 
ATOM     11  C   UNL     1      12.166  -4.263  -1.637  0.00  0.00    +0.041 A 
ATOM     12  C   UNL     1      11.029  -3.962  -0.908  0.00  0.00    +0.022 A 
ATOM     13  C   UNL     1       9.791  -4.385  -1.349  0.00  0.00    +0.025 A 
ATOM     14 CL   UNL     1      13.720  -3.725  -1.082  0.00  0.00    -0.084 Cl
ENDBRANCH   6   8
BRANCH   5  15
ATOM     15  C   UNL     1       8.265  -7.665  -1.562  0.00  0.00    +0.017 A 
ATOM     16  C   UNL     1       7.454  -8.707  -1.111  0.00  0.00    +0.011 A 
ATOM     17  C   UNL     1       7.938  -9.601  -0.179  0.00  0.00    +0.001 A 
ATOM     18  C   UNL     1       9.226  -9.465   0.310  0.00  0.00    +0.000 A 
ATOM     19  C   UNL     1      10.035  -8.434  -0.133  0.00  0.00    +0.001 A 
ATOM     20  C   UNL     1       9.565  -7.537  -1.069  0.00  0.00    +0.011 A 
ENDBRANCH   5  15
ENDBRANCH   1   2
BRANCH   1  21
ATOM     21  C   UNL     1       6.268  -3.543  -1.811  0.00  0.00    +0.168 C 
BRANCH  21  23
ATOM     22  N   UNL     1       5.168  -2.214  -0.039  0.00  0.00    -0.285 N 
ATOM     23  C   UNL     1       5.816  -2.233  -1.220  0.00  0.00    +0.225 C 
ATOM     24  O   UNL     1       6.037  -1.195  -1.807  0.00  0.00    -0.275 OA
ATOM     25  H   UNL     1       4.991  -3.045   0.430  0.00  0.00    +0.151 HD
BRANCH  22  30
ATOM     26  C   UNL     1       4.253   1.117   4.510  0.00  0.00    +0.030 C 
ATOM     27  C   UNL     1       3.781  -0.281   4.104  0.00  0.00    +0.099 C 
ATOM     28  C   UNL     1       3.858  -0.424   2.608  0.00  0.00    -0.011 C 
ATOM     29  C   UNL     1       4.950  -0.937   2.014  0.00  0.00    +0.065 C 
ATOM     30  C   UNL     1       4.729  -0.940   0.535  0.00  0.00    +0.243 C 
ATOM     31  O   UNL     1       3.305  -0.773   0.353  0.00  0.00    -0.347 OA
ATOM     32  C   UNL     1       2.868  -0.075   1.539  0.00  0.00    +0.146 C 
ATOM     33  C   UNL     1       2.868   1.435   1.294  0.00  0.00    +0.043 C 
ATOM     34  C   UNL     1       6.089  -1.387   2.831  0.00  0.00    +0.258 C 
ATOM     35  O   UNL     1       7.148  -1.719   2.335  0.00  0.00    -0.269 OA
ATOM     36  N   UNL     1       5.883  -1.408   4.171  0.00  0.00    -0.247 N 
ATOM     37  N   UNL     1       4.646  -1.292   4.725  0.00  0.00    -0.233 NA
ATOM     38  H   UNL     1       6.648  -1.509   4.759  0.00  0.00    +0.169 HD
ATOM     39  H   UNL     1       4.704  -1.155   5.723  0.00  0.00    +0.145 HD
ENDBRANCH  22  30
ENDBRANCH  21  23
ENDBRANCH   1  21
TORSDOF 6
