REMARK  Name = ZINC09422316
REMARK  4 active torsions:
REMARK  status: ('A' for Active; 'I' for Inactive)
REMARK    1  A    between atoms: C_4  and  N_7
REMARK    2  A    between atoms: C_19  and  C_21
REMARK    3  A    between atoms: C_21  and  S_22
REMARK    4  A    between atoms: S_22  and  C_23
REMARK                            x       y       z     vdW  Elec       q    Type
REMARK                         _______ _______ _______ _____ _____    ______ ____
ROOT
ATOM      1  N   UNL     1      -3.659  -1.578  -1.077  0.00  0.00    -0.327 N 
ATOM      2  C   UNL     1      -3.626  -0.576  -0.002  0.00  0.00    +0.124 C 
ATOM      3  C   UNL     1      -2.325   0.224  -0.094  0.00  0.00    +0.127 C 
ATOM      4  N   UNL     1      -1.181  -0.693   0.010  0.00  0.00    -0.298 N 
ATOM      5  C   UNL     1      -1.214  -1.695  -1.065  0.00  0.00    +0.127 C 
ATOM      6  C   UNL     1      -2.515  -2.495  -0.973  0.00  0.00    +0.124 C 
ATOM      7  C   UNL     1       0.002  -0.004   0.002  0.00  0.00    +0.199 A 
ATOM      8  N   UNL     1       1.176  -0.692  -0.012  0.00  0.00    -0.295 N 
ATOM      9  H   UNL     1       1.172  -1.662  -0.018  0.00  0.00    +0.172 HD
ATOM     10  C   UNL     1       2.347  -0.019  -0.020  0.00  0.00    +0.253 A 
ATOM     11  O   UNL     1       3.409  -0.620  -0.033  0.00  0.00    -0.268 OA
ATOM     12  C   UNL     1       2.319   1.387  -0.013  0.00  0.00    +0.094 A 
ATOM     13  C   UNL     1       1.111   2.022   0.002  0.00  0.00    +0.060 A 
ATOM     14  N   UNL     1      -0.016   1.314   0.009  0.00  0.00    -0.220 NA
ENDROOT
BRANCH   1  18
ATOM     15  C   UNL     1      -7.257  -3.674  -1.053  0.00  0.00    +0.000 A 
ATOM     16  C   UNL     1      -6.292  -3.970  -1.998  0.00  0.00    +0.002 A 
ATOM     17  C   UNL     1      -5.098  -3.277  -2.009  0.00  0.00    +0.023 A 
ATOM     18  C   UNL     1      -4.866  -2.281  -1.069  0.00  0.00    +0.030 A 
ATOM     19  C   UNL     1      -5.835  -1.989  -0.117  0.00  0.00    +0.023 A 
ATOM     20  C   UNL     1      -7.030  -2.683  -0.116  0.00  0.00    +0.002 A 
ENDBRANCH   1  18
BRANCH  13  21
ATOM     21  C   UNL     1       1.054   3.528   0.010  0.00  0.00    +0.132 C 
BRANCH  21  22
ATOM     22  S   UNL     1       0.573   4.124  -1.634  0.00  0.00    -0.091 S 
BRANCH  22  23
ATOM     23  C   UNL     1       0.551   5.877  -1.463  0.00  0.00    +0.160 A 
ATOM     24  N   UNL     1       0.817   6.617  -0.403  0.00  0.00    -0.133 NA
ATOM     25  N   UNL     1       0.739   7.988  -0.489  0.00  0.00    -0.125 NA
ATOM     26  C   UNL     1       0.400   8.556  -1.630  0.00  0.00    +0.180 A 
ATOM     27  S   UNL     1       0.171   7.129  -2.679  0.00  0.00    -0.025 S 
ATOM     28  N   UNL     1       0.262   9.905  -1.935  0.00  0.00    -0.336 N 
ATOM     29  H   UNL     1       0.425  10.575  -1.254  0.00  0.00    +0.144 HD
ATOM     30  H   UNL     1       0.003  10.176  -2.830  0.00  0.00    +0.144 HD
ENDBRANCH  22  23
ENDBRANCH  21  22
ENDBRANCH  13  21
TORSDOF 4
