REMARK  Name = ZINC39637414
REMARK  8 active torsions:
REMARK  status: ('A' for Active; 'I' for Inactive)
REMARK    1  A    between atoms: C_1  and  C_2
REMARK    2  A    between atoms: C_5  and  O_8
REMARK    3  A    between atoms: O_8  and  C_9
REMARK    4  A    between atoms: C_10  and  C_15
REMARK    5  A    between atoms: C_19  and  C_28
REMARK    6  A    between atoms: N_30  and  C_31
REMARK    7  A    between atoms: C_36  and  C_41
REMARK    8  A    between atoms: C_38  and  C_40
REMARK                            x       y       z     vdW  Elec       q    Type
REMARK                         _______ _______ _______ _____ _____    ______ ____
ROOT
ATOM      1  C   UNL     1       0.278  -6.858  -0.128  0.00  0.00    +0.252 C 
ATOM      2  O   UNL     1       0.238  -6.289  -1.202  0.00  0.00    -0.270 OA
ATOM      3  N   UNL     1       0.307  -8.205  -0.080  0.00  0.00    -0.296 N 
ATOM      4  C   UNL     1       0.427  -9.068   1.118  0.00  0.00    +0.121 C 
ATOM      5  C   UNL     1      -0.526 -10.252   0.844  0.00  0.00    +0.100 C 
ATOM      6  C   UNL     1      -0.653 -10.307  -0.688  0.00  0.00    -0.004 C 
ATOM      7  C   UNL     1       0.219  -9.157  -1.213  0.00  0.00    +0.115 C 
ATOM      8  C   UNL     1      -0.140 -11.643  -1.214  0.00  0.00    -0.010 C 
ATOM      9  C   UNL     1      -0.330 -11.696  -2.732  0.00  0.00    -0.082 C 
ATOM     10  N   UNL     1      -1.752 -11.535  -3.055  0.00  0.00    +0.379 N 
ATOM     11  C   UNL     1      -2.216 -10.209  -2.629  0.00  0.00    -0.082 C 
ATOM     12  C   UNL     1      -2.105 -10.093  -1.106  0.00  0.00    -0.010 C 
ATOM     13  H   UNL     1      -1.883 -11.631  -4.051  0.00  0.00    -0.086 HD
ATOM     14  H   UNL     1      -2.287 -12.246  -2.579  0.00  0.00    -0.086 HD
ENDROOT
BRANCH   1  16
ATOM     15  C   UNL     1      -0.436  -4.881   1.226  0.00  0.00    +0.233 A 
ATOM     16  C   UNL     1       0.294  -6.074   1.121  0.00  0.00    +0.099 A 
ATOM     17  C   UNL     1       1.039  -6.508   2.224  0.00  0.00    +0.020 A 
ATOM     18  C   UNL     1       1.021  -5.737   3.373  0.00  0.00    +0.021 A 
ATOM     19  C   UNL     1       0.276  -4.572   3.400  0.00  0.00    +0.114 A 
ATOM     20  N   UNL     1      -0.414  -4.179   2.346  0.00  0.00    -0.220 NA
BRANCH  15  21
ATOM     21  O   UNL     1      -1.163  -4.442   0.171  0.00  0.00    -0.437 OA
BRANCH  21  26
ATOM     22  C   UNL     1      -3.670   0.584   0.593  0.00  0.00    +0.044 C 
ATOM     23  C   UNL     1      -2.999  -0.761   0.481  0.00  0.00    -0.050 A 
ATOM     24  C   UNL     1      -1.619  -0.845   0.472  0.00  0.00    +0.007 A 
ATOM     25  C   UNL     1      -1.002  -2.076   0.368  0.00  0.00    +0.046 A 
ATOM     26  C   UNL     1      -1.768  -3.229   0.273  0.00  0.00    +0.130 A 
ATOM     27  C   UNL     1      -3.153  -3.142   0.283  0.00  0.00    +0.046 A 
ATOM     28  C   UNL     1      -3.765  -1.909   0.392  0.00  0.00    +0.007 A 
ENDBRANCH  21  26
ENDBRANCH  15  21
ENDBRANCH   1  16
BRANCH   5  29
ATOM     29  C   UNL     1      -1.871 -10.001   1.475  0.00  0.00    +0.218 C 
ATOM     30  O   UNL     1      -2.317  -8.874   1.525  0.00  0.00    -0.275 OA
ATOM     31  N   UNL     1      -2.579 -11.028   1.985  0.00  0.00    -0.312 N 
ATOM     32  H   UNL     1      -2.223 -11.930   1.945  0.00  0.00    +0.149 HD
BRANCH  31  33
ATOM     33  C   UNL     1      -3.887 -10.784   2.599  0.00  0.00    +0.076 C 
ATOM     34  C   UNL     1      -3.696 -10.381   4.062  0.00  0.00    +0.022 C 
ATOM     35  C   UNL     1      -5.061 -10.126   4.704  0.00  0.00    +0.002 C 
ATOM     36  C   UNL     1      -5.905 -11.400   4.631  0.00  0.00    +0.003 C 
ATOM     37  C   UNL     1      -6.096 -11.803   3.168  0.00  0.00    -0.009 C 
ATOM     38  C   UNL     1      -4.730 -12.058   2.527  0.00  0.00    +0.009 C 
ATOM     39  C   UNL     1      -4.017 -13.185   3.277  0.00  0.00    +0.009 C 
ATOM     40  C   UNL     1      -6.939 -13.077   3.096  0.00  0.00    +0.008 C 
ENDBRANCH  31  33
ENDBRANCH   5  29
TORSDOF 5
