REMARK  Name = ZINC09269344
REMARK  8 active torsions:
REMARK  status: ('A' for Active; 'I' for Inactive)
REMARK    1  A    between atoms: C_8  and  C_10
REMARK    2  A    between atoms: N_12  and  C_13
REMARK    3  A    between atoms: C_13  and  N_15
REMARK    4  A    between atoms: N_15  and  C_16
REMARK    5  A    between atoms: C_19  and  S_22
REMARK    6  A    between atoms: S_22  and  N_25
REMARK    7  A    between atoms: N_25  and  C_26
REMARK    8  A    between atoms: C_26  and  C_27
REMARK                            x       y       z     vdW  Elec       q    Type
REMARK                         _______ _______ _______ _____ _____    ______ ____
ROOT
ATOM      1  N   UNL     1       5.865   3.150  -0.037  0.00  0.00    -0.297 N 
ATOM      2  H   UNL     1       5.195   2.779   0.558  0.00  0.00    +0.154 HD
ENDROOT
BRANCH   1   3
ATOM      3  C   UNL     1       7.138   2.573  -0.103  0.00  0.00    +0.033 A 
ATOM      4  C   UNL     1       7.272   1.193  -0.182  0.00  0.00    +0.025 A 
ATOM      5  C   UNL     1       8.530   0.626  -0.254  0.00  0.00    +0.030 A 
ATOM      6  C   UNL     1       9.655   1.431  -0.234  0.00  0.00    +0.105 A 
ATOM      7  C   UNL     1       9.524   2.805  -0.149  0.00  0.00    +0.030 A 
ATOM      8  C   UNL     1       8.269   3.378  -0.084  0.00  0.00    +0.025 A 
BRANCH   6   9
ATOM      9  S   UNL     1      11.257   0.704  -0.319  0.00  0.00    +0.058 S 
ATOM     10  O   UNL     1      11.096  -0.563  -0.942  0.00  0.00    -0.153 OA
ATOM     11  O   UNL     1      12.129   1.701  -0.834  0.00  0.00    -0.153 OA
BRANCH   9  12
ATOM     12  N   UNL     1      11.743   0.408   1.236  0.00  0.00    -0.187 NA
ATOM     13  H   UNL     1      12.507   0.880   1.604  0.00  0.00    +0.148 HD
BRANCH  12  14
ATOM     14  C   UNL     1      11.020  -0.566   2.057  0.00  0.00    +0.137 C 
BRANCH  14  15
ATOM     15  C   UNL     1      11.863  -0.928   3.281  0.00  0.00    +0.134 C 
ATOM     16  C   UNL     1      11.176  -2.047   4.096  0.00  0.00    +0.035 C 
ATOM     17  C   UNL     1      11.470  -1.675   5.566  0.00  0.00    +0.031 C 
ATOM     18  C   UNL     1      12.300  -0.375   5.466  0.00  0.00    +0.160 C 
ATOM     19  O   UNL     1      11.942   0.193   4.187  0.00  0.00    -0.375 OA
ENDBRANCH  14  15
ENDBRANCH  12  14
ENDBRANCH   9  12
ENDBRANCH   6   9
ENDBRANCH   1   3
BRANCH   1  20
ATOM     20  C   UNL     1       5.571   4.221  -0.800  0.00  0.00    +0.141 C 
ATOM     21  S   UNL     1       6.785   4.942  -1.769  0.00  0.00    -0.018 S 
BRANCH  20  24
ATOM     22  C   UNL     1       4.026   5.796  -1.564  0.00  0.00    +0.258 C 
ATOM     23  O   UNL     1       4.889   6.308  -2.252  0.00  0.00    -0.269 OA
ATOM     24  N   UNL     1       4.321   4.725  -0.801  0.00  0.00    -0.263 N 
ATOM     25  H   UNL     1       3.633   4.317  -0.252  0.00  0.00    +0.157 HD
BRANCH  22  33
ATOM     26  C   UNL     1      -1.169   9.082  -2.495  0.00  0.00    +0.001 A 
ATOM     27  C   UNL     1      -1.893   8.280  -1.621  0.00  0.00    +0.001 A 
ATOM     28  C   UNL     1      -1.268   7.220  -0.996  0.00  0.00    +0.016 A 
ATOM     29  C   UNL     1       0.069   6.981  -1.236  0.00  0.00    +0.021 A 
ATOM     30  C   UNL     1       0.831   7.784  -2.117  0.00  0.00    +0.008 A 
ATOM     31  C   UNL     1       0.146   8.856  -2.746  0.00  0.00    +0.010 A 
ATOM     32  C   UNL     1       2.180   7.410  -2.260  0.00  0.00    +0.068 A 
ATOM     33  C   UNL     1       2.666   6.345  -1.564  0.00  0.00    +0.094 A 
ATOM     34  S   UNL     1       1.239   5.781  -0.652  0.00  0.00    -0.082 S 
ATOM     35 CL   UNL     1       3.225   8.307  -3.317  0.00  0.00    -0.082 Cl
ENDBRANCH  22  33
ENDBRANCH  20  24
ENDBRANCH   1  20
TORSDOF 8
