REMARK  Name = ZINC03840970
REMARK  14 active torsions:
REMARK  status: ('A' for Active; 'I' for Inactive)
REMARK    1  A    between atoms: C_1  and  C_2
REMARK    2  A    between atoms: C_10  and  C_12
REMARK    3  A    between atoms: C_12  and  N_70
REMARK    4  A    between atoms: C_13  and  N_70
REMARK    5  A    between atoms: C_14  and  N_70
REMARK    6  A    between atoms: C_16  and  C_37
REMARK    7  A    between atoms: C_19  and  O_36
REMARK    8  A    between atoms: C_21  and  C_25
REMARK    9  A    between atoms: C_25  and  C_27
REMARK   10  A    between atoms: C_25  and  C_28
REMARK   11  A    between atoms: N_30  and  C_31
REMARK   12  A    between atoms: N_30  and  C_32
REMARK   13  A    between atoms: C_32  and  C_33
REMARK   14  A    between atoms: C_33  and  C_34
REMARK                            x       y       z     vdW  Elec       q    Type
REMARK                         _______ _______ _______ _____ _____    ______ ____
ROOT
ATOM      1  C   UNL     1      -0.642  -1.247  -2.589  0.00  0.00    +0.014 C 
ATOM      2  C   UNL     1       0.852  -1.004  -2.364  0.00  0.00    +0.042 C 
ATOM      3  C   UNL     1       1.643  -2.119  -3.014  0.00  0.00    +0.057 A 
ATOM      4  C   UNL     1       2.717  -2.653  -2.376  0.00  0.00    +0.015 A 
ATOM      5  S   UNL     1       3.279  -3.883  -3.522  0.00  0.00    -0.057 S 
ATOM      6  C   UNL     1       2.070  -3.606  -4.740  0.00  0.00    +0.165 A 
ATOM      7  N   UNL     1       1.357  -2.637  -4.206  0.00  0.00    -0.229 NA
ATOM      8  N   UNL     1       1.899  -4.245  -5.963  0.00  0.00    -0.266 N 
ATOM      9  C   UNL     1       2.746  -5.226  -6.335  0.00  0.00    +0.202 C 
ATOM     10  O   UNL     1       3.655  -5.551  -5.602  0.00  0.00    -0.277 OA
ATOM     11  C   UNL     1       3.262  -2.278  -1.043  0.00  0.00    +0.051 C 
ATOM     12  C   UNL     1       2.652  -0.930  -0.612  0.00  0.00    -0.022 C 
ATOM     13  C   UNL     1       1.142  -0.965  -0.858  0.00  0.00    +0.033 C 
ATOM     14  C   UNL     1       0.485   0.296  -0.287  0.00  0.00    +0.123 C 
ATOM     15  C   UNL     1       0.777   0.440   1.192  0.00  0.00    +0.029 C 
ATOM     16  C   UNL     1       2.293   0.541   1.392  0.00  0.00    +0.007 C 
ATOM     17  C   UNL     1       2.941  -0.744   0.881  0.00  0.00    +0.008 C 
ATOM     18  C   UNL     1       3.285   0.210  -1.413  0.00  0.00    +0.012 C 
ATOM     19  H   UNL     1       1.172  -3.984  -6.549  0.00  0.00    +0.157 HD
ENDROOT
BRANCH  15  20
ATOM     20  C   UNL     1       0.242  -0.784   1.936  0.00  0.00    +0.078 C 
ATOM     21  C   UNL     1      -1.286  -0.800   1.858  0.00  0.00    +0.017 C 
BRANCH  20  22
ATOM     22  C   UNL     1       0.671  -0.723   3.379  0.00  0.00    +0.219 C 
ATOM     23  O   UNL     1       0.923   0.347   3.891  0.00  0.00    -0.275 OA
ATOM     24  N   UNL     1       0.773  -1.856   4.101  0.00  0.00    -0.303 N 
ATOM     25  C   UNL     1       0.386  -3.139   3.508  0.00  0.00    +0.132 C 
BRANCH  24  26
ATOM     26  C   UNL     1       1.272  -1.806   5.477  0.00  0.00    +0.122 C 
BRANCH  26  27
ATOM     27  C   UNL     1       0.099  -1.604   6.438  0.00  0.00    +0.137 C 
BRANCH  27  28
ATOM     28  C   UNL     1       0.601  -1.553   7.821  0.00  0.00    +0.064 C 
ATOM     29  N   UNL     1       0.987  -1.514   8.888  0.00  0.00    -0.197 NA
ENDBRANCH  27  28
ENDBRANCH  26  27
ENDBRANCH  24  26
ENDBRANCH  20  22
ENDBRANCH  15  20
BRANCH  14  30
ATOM     30  O   UNL     1      -0.928   0.222  -0.483  0.00  0.00    -0.391 OA
ATOM     31  H   UNL     1      -1.413   0.988  -0.145  0.00  0.00    +0.210 HD
ENDBRANCH  14  30
BRANCH   9  32
ATOM     32  C   UNL     1       2.561  -5.917  -7.661  0.00  0.00    +0.018 C 
BRANCH  32  35
ATOM     33  C   UNL     1       3.445  -8.019  -6.846  0.00  0.00    -0.096 C 
ATOM     34  C   UNL     1       3.604  -7.470  -9.199  0.00  0.00    -0.096 C 
ATOM     35  N   UNL     1       3.628  -6.927  -7.825  0.00  0.00    +0.382 N 
ATOM     36  H   UNL     1       4.538  -6.480  -7.659  0.00  0.00    -0.082 HD
ENDBRANCH  32  35
ENDBRANCH   9  32
TORSDOF 8
