REMARK  Name = ZINC21741710
REMARK  9 active torsions:
REMARK  status: ('A' for Active; 'I' for Inactive)
REMARK    1  A    between atoms: C_1  and  C_2
REMARK    2  A    between atoms: C_2  and  N_3
REMARK    3  A    between atoms: C_12  and  S_13
REMARK    4  A    between atoms: S_13  and  C_14
REMARK    5  A    between atoms: C_14  and  C_16
REMARK    6  A    between atoms: C_14  and  C_17
REMARK    7  A    between atoms: N_19  and  C_20
REMARK    8  A    between atoms: C_25  and  N_26
REMARK    9  A    between atoms: C_30  and  C_34
REMARK                            x       y       z     vdW  Elec       q    Type
REMARK                         _______ _______ _______ _____ _____    ______ ____
ROOT
ATOM      1  N   UNL     1       0.698  -0.468  -1.224  0.00  0.00    -0.288 N 
ATOM      2  C   UNL     1      -0.007  -0.676  -2.351  0.00  0.00    +0.263 A 
ATOM      3  O   UNL     1      -1.211  -0.486  -2.370  0.00  0.00    -0.267 OA
ATOM      4  C   UNL     1       0.676  -1.122  -3.527  0.00  0.00    +0.076 A 
ATOM      5  C   UNL     1       0.115  -1.408  -4.848  0.00  0.00    -0.023 A 
ATOM      6  C   UNL     1       0.974  -1.820  -5.802  0.00  0.00    -0.004 A 
ATOM      7  S   UNL     1       2.560  -1.852  -5.010  0.00  0.00    -0.073 S 
ATOM      8  C   UNL     1       2.062  -1.309  -3.395  0.00  0.00    +0.117 A 
ATOM      9  N   UNL     1       2.700  -1.085  -2.252  0.00  0.00    -0.216 NA
ATOM     10  C   UNL     1       2.048  -0.669  -1.186  0.00  0.00    +0.173 A 
ATOM     11  C   UNL     1       0.654  -2.172  -7.223  0.00  0.00    +0.046 C 
ATOM     12  C   UNL     1      -0.749  -1.640  -7.549  0.00  0.00    -0.009 C 
ATOM     13  C   UNL     1      -1.702  -2.045  -6.420  0.00  0.00    +0.008 C 
ATOM     14  C   UNL     1      -1.373  -1.252  -5.154  0.00  0.00    +0.037 C 
ATOM     15  C   UNL     1      -1.231  -2.240  -8.871  0.00  0.00    +0.008 C 
ENDROOT
BRANCH   1  17
ATOM     16  C   UNL     1      -0.020   1.519   0.008  0.00  0.00    +0.027 C 
ATOM     17  C   UNL     1       0.005  -0.011  -0.017  0.00  0.00    +0.124 C 
ENDBRANCH   1  17
BRANCH  10  18
ATOM     18  S   UNL     1       2.928  -0.375   0.312  0.00  0.00    -0.075 S 
BRANCH  18  19
ATOM     19  C   UNL     1       4.649  -0.767  -0.107  0.00  0.00    +0.137 C 
ATOM     20  C   UNL     1       5.159   0.228  -1.152  0.00  0.00    +0.029 C 
BRANCH  19  21
ATOM     21  C   UNL     1       5.501  -0.674   1.133  0.00  0.00    +0.230 C 
ATOM     22  O   UNL     1       5.111  -0.042   2.091  0.00  0.00    -0.274 OA
ATOM     23  N   UNL     1       6.698  -1.293   1.176  0.00  0.00    -0.283 N 
ATOM     24  H   UNL     1       6.975  -1.864   0.443  0.00  0.00    +0.155 HD
BRANCH  23  25
ATOM     25  C   UNL     1       7.539  -1.112   2.279  0.00  0.00    +0.064 A 
ATOM     26  C   UNL     1       7.438   0.038   3.051  0.00  0.00    +0.025 A 
ATOM     27  C   UNL     1       8.270   0.214   4.139  0.00  0.00    +0.002 A 
ATOM     28  C   UNL     1       9.204  -0.755   4.460  0.00  0.00    +0.002 A 
ATOM     29  C   UNL     1       9.308  -1.901   3.694  0.00  0.00    +0.034 A 
ATOM     30  C   UNL     1       8.474  -2.085   2.608  0.00  0.00    +0.147 A 
BRANCH  30  31
ATOM     31  N   UNL     1       8.581  -3.316   1.792  0.00  0.00    +0.058 N 
ATOM     32  O   UNL     1       9.331  -4.201   2.130  0.00  0.00    -0.126 OA
ATOM     33  O   UNL     1       7.918  -3.435   0.788  0.00  0.00    -0.126 OA
ENDBRANCH  30  31
ENDBRANCH  23  25
ENDBRANCH  19  21
ENDBRANCH  18  19
ENDBRANCH  10  18
TORSDOF 6
