REMARK  Name = ZINC01583240
REMARK  7 active torsions:
REMARK  status: ('A' for Active; 'I' for Inactive)
REMARK    1  A    between atoms: C_1  and  C_2
REMARK    2  A    between atoms: C_4  and  N_20
REMARK    3  A    between atoms: C_5  and  N_10
REMARK    4  A    between atoms: N_10  and  S_11
REMARK    5  A    between atoms: S_11  and  C_14
REMARK    6  A    between atoms: N_20  and  S_21
REMARK    7  A    between atoms: S_21  and  C_24
REMARK                            x       y       z     vdW  Elec       q    Type
REMARK                         _______ _______ _______ _____ _____    ______ ____
ROOT
ATOM      1  C   UNL     1       5.532   3.297  -4.636  0.00  0.00    +0.047 C 
ATOM      2  C   UNL     1       5.354   2.042  -3.822  0.00  0.00    -0.010 A 
ATOM      3  C   UNL     1       5.174   0.826  -4.458  0.00  0.00    +0.069 A 
ATOM      4  C   UNL     1       5.009  -0.331  -3.711  0.00  0.00    +0.090 A 
ATOM      5  C   UNL     1       5.027  -0.266  -2.318  0.00  0.00    +0.091 A 
ATOM      6  C   UNL     1       5.203   0.957  -1.687  0.00  0.00    +0.084 A 
ATOM      7  C   UNL     1       5.372   2.107  -2.440  0.00  0.00    +0.065 A 
ATOM      8 CL   UNL     1       5.600   3.635  -1.649  0.00  0.00    -0.082 Cl
ATOM      9 CL   UNL     1       5.218   1.045   0.047  0.00  0.00    -0.080 Cl
ATOM     10 CL   UNL     1       5.152   0.749  -6.192  0.00  0.00    -0.081 Cl
ENDROOT
BRANCH   5  11
ATOM     11  N   UNL     1       4.861  -1.431  -1.558  0.00  0.00    -0.213 N 
ATOM     12  H   UNL     1       5.556  -2.108  -1.551  0.00  0.00    +0.174 HD
BRANCH  11  13
ATOM     13  S   UNL     1       3.480  -1.652  -0.672  0.00  0.00    +0.072 S 
ATOM     14  O   UNL     1       3.254  -0.442   0.037  0.00  0.00    -0.150 OA
ATOM     15  O   UNL     1       3.614  -2.906  -0.017  0.00  0.00    -0.150 OA
BRANCH  13  16
ATOM     16  C   UNL     1       2.149  -1.821  -1.815  0.00  0.00    +0.108 A 
ATOM     17  C   UNL     1       1.867  -3.056  -2.369  0.00  0.00    +0.029 A 
ATOM     18  C   UNL     1       0.823  -3.188  -3.266  0.00  0.00    +0.002 A 
ATOM     19  C   UNL     1       0.062  -2.087  -3.609  0.00  0.00    +0.000 A 
ATOM     20  C   UNL     1       0.345  -0.852  -3.054  0.00  0.00    +0.002 A 
ATOM     21  C   UNL     1       1.388  -0.719  -2.158  0.00  0.00    +0.029 A 
ENDBRANCH  13  16
ENDBRANCH  11  13
ENDBRANCH   5  11
BRANCH   4  22
ATOM     22  N   UNL     1       4.826  -1.563  -4.354  0.00  0.00    -0.213 N 
ATOM     23  H   UNL     1       3.969  -2.014  -4.302  0.00  0.00    +0.174 HD
BRANCH  22  24
ATOM     24  S   UNL     1       6.072  -2.247  -5.203  0.00  0.00    +0.072 S 
ATOM     25  O   UNL     1       5.578  -3.468  -5.737  0.00  0.00    -0.150 OA
ATOM     26  O   UNL     1       6.617  -1.222  -6.023  0.00  0.00    -0.150 OA
BRANCH  24  27
ATOM     27  C   UNL     1       7.322  -2.676  -4.037  0.00  0.00    +0.108 A 
ATOM     28  C   UNL     1       8.255  -1.735  -3.646  0.00  0.00    +0.029 A 
ATOM     29  C   UNL     1       9.232  -2.070  -2.727  0.00  0.00    +0.002 A 
ATOM     30  C   UNL     1       9.284  -3.350  -2.209  0.00  0.00    +0.000 A 
ATOM     31  C   UNL     1       8.354  -4.294  -2.605  0.00  0.00    +0.002 A 
ATOM     32  C   UNL     1       7.373  -3.957  -3.519  0.00  0.00    +0.029 A 
ENDBRANCH  24  27
ENDBRANCH  22  24
ENDBRANCH   4  22
TORSDOF 6
