REMARK  Name = ZINC06193336
REMARK  14 active torsions:
REMARK  status: ('A' for Active; 'I' for Inactive)
REMARK    1  A    between atoms: C_1  and  C_2
REMARK    2  A    between atoms: C_2  and  N_63
REMARK    3  A    between atoms: C_3  and  C_4
REMARK    4  A    between atoms: C_3  and  N_63
REMARK    5  A    between atoms: C_5  and  C_6
REMARK    6  A    between atoms: C_5  and  N_63
REMARK    7  A    between atoms: C_6  and  N_7
REMARK    8  A    between atoms: N_7  and  C_8
REMARK    9  A    between atoms: N_7  and  C_23
REMARK   10  A    between atoms: C_8  and  C_9
REMARK   11  A    between atoms: C_13  and  C_22
REMARK   12  A    between atoms: C_15  and  C_21
REMARK   13  A    between atoms: C_23  and  N_25
REMARK   14  A    between atoms: N_25  and  C_26
REMARK                            x       y       z     vdW  Elec       q    Type
REMARK                         _______ _______ _______ _____ _____    ______ ____
ROOT
ATOM      1  N   UNL     1      -1.562   8.161  -1.236  0.00  0.00    -0.310 N 
ENDROOT
BRANCH   1   2
ATOM      2  C   UNL     1      -0.485   8.456  -1.990  0.00  0.00    +0.137 C 
ATOM      3  S   UNL     1       1.076   8.464  -1.286  0.00  0.00    -0.018 S 
BRANCH   2   4
ATOM      4  N   UNL     1      -0.636   8.745  -3.298  0.00  0.00    -0.297 N 
ATOM      5  H   UNL     1      -1.525   8.802  -3.682  0.00  0.00    +0.154 HD
BRANCH   4   6
ATOM      6  C   UNL     1       0.489   8.963  -4.100  0.00  0.00    +0.034 A 
ATOM      7  C   UNL     1       1.520   9.775  -3.647  0.00  0.00    +0.023 A 
ATOM      8  C   UNL     1       2.632   9.985  -4.440  0.00  0.00    +0.003 A 
ATOM      9  C   UNL     1       2.715   9.395  -5.688  0.00  0.00    +0.020 A 
ATOM     10  C   UNL     1       1.687   8.589  -6.145  0.00  0.00    +0.043 A 
ATOM     11  C   UNL     1       0.574   8.372  -5.354  0.00  0.00    +0.043 A 
ATOM     12 CL   UNL     1       1.794   7.851  -7.712  0.00  0.00    -0.083 Cl
ENDBRANCH   4   6
ENDBRANCH   2   4
ENDBRANCH   1   2
BRANCH   1  13
ATOM     13  C   UNL     1      -2.898   8.155  -1.838  0.00  0.00    +0.088 C 
BRANCH  13  14
ATOM     14  C   UNL     1      -3.517   9.549  -1.721  0.00  0.00    -0.060 C 
BRANCH  14  15
ATOM     15  N   UNL     1      -4.798   9.561  -2.458  0.00  0.00    +0.380 N 
ATOM     16  H   UNL     1      -4.679   9.053  -3.342  0.00  0.00    -0.082 HD
BRANCH  15  18
ATOM     17  C   UNL     1      -7.095   8.722  -2.526  0.00  0.00    -0.017 C 
ATOM     18  C   UNL     1      -5.847   8.894  -1.658  0.00  0.00    -0.082 C 
ENDBRANCH  15  18
BRANCH  15  19
ATOM     19  C   UNL     1      -5.197  10.953  -2.754  0.00  0.00    -0.082 C 
ATOM     20  C   UNL     1      -4.365  11.462  -3.933  0.00  0.00    -0.017 C 
ENDBRANCH  15  19
ENDBRANCH  14  15
ENDBRANCH  13  14
ENDBRANCH   1  13
BRANCH   1  21
ATOM     21  C   UNL     1      -1.398   7.847   0.185  0.00  0.00    +0.147 C 
BRANCH  21  22
ATOM     22  C   UNL     1      -1.190   6.364   0.352  0.00  0.00    +0.035 A 
ATOM     23  C   UNL     1       0.068   5.862   0.427  0.00  0.00    +0.020 A 
ATOM     24  C   UNL     1       0.236   4.417   0.588  0.00  0.00    -0.001 A 
ATOM     25  C   UNL     1       1.508   3.841   0.673  0.00  0.00    +0.013 A 
ATOM     26  C   UNL     1       1.631   2.489   0.824  0.00  0.00    -0.050 A 
ATOM     27  C   UNL     1       0.504   1.681   0.894  0.00  0.00    +0.008 A 
ATOM     28  C   UNL     1      -0.759   2.226   0.807  0.00  0.00    -0.026 A 
ATOM     29  C   UNL     1      -0.909   3.601   0.659  0.00  0.00    +0.052 A 
ATOM     30  N   UNL     1      -2.160   4.173   0.576  0.00  0.00    -0.322 N 
ATOM     31  H   UNL     1      -2.972   3.592   0.626  0.00  0.00    +0.169 HD
ATOM     32  C   UNL     1      -2.305   5.502   0.428  0.00  0.00    +0.254 A 
ATOM     33  O   UNL     1      -3.426   5.973   0.357  0.00  0.00    -0.268 OA
ATOM     34  C   UNL     1      -1.973   1.336   0.879  0.00  0.00    +0.046 C 
ATOM     35  C   UNL     1       3.001   1.869   0.915  0.00  0.00    +0.044 C 
ENDBRANCH  21  22
ENDBRANCH   1  21
TORSDOF 10
