REMARK  Name = ZINC40158258
REMARK  9 active torsions:
REMARK  status: ('A' for Active; 'I' for Inactive)
REMARK    1  A    between atoms: C_1  and  C_2
REMARK    2  A    between atoms: C_2  and  C_3
REMARK    3  A    between atoms: C_2  and  C_4
REMARK    4  A    between atoms: C_2  and  O_5
REMARK    5  A    between atoms: O_5  and  C_6
REMARK    6  A    between atoms: C_13  and  C_15
REMARK    7  A    between atoms: N_16  and  O_17
REMARK    8  A    between atoms: O_17  and  C_18
REMARK    9  A    between atoms: C_18  and  C_19
REMARK                            x       y       z     vdW  Elec       q    Type
REMARK                         _______ _______ _______ _____ _____    ______ ____
ROOT
ATOM      1  C   UNL     1       4.468   0.820  -1.490  0.00  0.00    +0.153 C 
ATOM      2  N   UNL     1       4.699   2.084  -1.625  0.00  0.00    -0.072 NA
ATOM      3  N   UNL     1       4.647   0.214  -0.266  0.00  0.00    -0.342 N 
ATOM      4  H   UNL     1       4.473  -0.735  -0.165  0.00  0.00    +0.144 HD
ATOM      5  H   UNL     1       4.947   0.737   0.494  0.00  0.00    +0.144 HD
ENDROOT
BRANCH   1  13
ATOM      6  C   UNL     1       1.952  -0.085  -1.337  0.00  0.00    +0.404 C 
ATOM      7  O   UNL     1       2.482   0.634  -0.513  0.00  0.00    -0.226 OA
ATOM      8  N   UNL     1       2.641  -0.485  -2.424  0.00  0.00    -0.257 N 
ATOM      9  C   UNL     1       2.042  -1.419  -3.388  0.00  0.00    +0.112 C 
ATOM     10  C   UNL     1       2.991  -2.606  -3.579  0.00  0.00    +0.019 C 
ATOM     11  C   UNL     1       4.374  -2.088  -3.982  0.00  0.00    +0.004 C 
ATOM     12  C   UNL     1       4.932  -1.198  -2.869  0.00  0.00    +0.030 C 
ATOM     13  C   UNL     1       4.002   0.009  -2.672  0.00  0.00    +0.146 C 
BRANCH   6  14
ATOM     14  O   UNL     1       0.677  -0.481  -1.164  0.00  0.00    -0.445 OA
BRANCH  14  16
ATOM     15  C   UNL     1      -0.034   1.510   0.006  0.00  0.00    +0.055 C 
ATOM     16  C   UNL     1       0.008  -0.020   0.011  0.00  0.00    +0.107 C 
ATOM     17  C   UNL     1       0.761  -0.505   1.252  0.00  0.00    +0.055 C 
ATOM     18  C   UNL     1      -1.420  -0.569   0.035  0.00  0.00    +0.055 C 
ENDBRANCH  14  16
ENDBRANCH   6  14
ENDBRANCH   1  13
BRANCH   2  19
ATOM     19  O   UNL     1       5.137   2.846  -0.515  0.00  0.00    -0.383 OA
BRANCH  19  20
ATOM     20  C   UNL     1       5.353   4.228  -0.808  0.00  0.00    +0.358 C 
BRANCH  20  21
ATOM     21  C   UNL     1       5.814   4.939   0.438  0.00  0.00    +0.260 C 
ATOM     22  O   UNL     1       5.945   4.324   1.475  0.00  0.00    -0.271 OA
ATOM     23  N   UNL     1       6.082   6.260   0.401  0.00  0.00    -0.268 N 
ATOM     24  C   UNL     1       6.541   7.057   1.541  0.00  0.00    +0.118 C 
ATOM     25  C   UNL     1       6.701   8.485   0.997  0.00  0.00    +0.056 C 
ATOM     26  C   UNL     1       6.308   8.384  -0.460  0.00  0.00    -0.024 A 
ATOM     27  C   UNL     1       5.968   7.069  -0.734  0.00  0.00    +0.040 A 
ATOM     28  C   UNL     1       5.573   6.727  -2.029  0.00  0.00    +0.024 A 
ATOM     29  C   UNL     1       5.527   7.686  -3.018  0.00  0.00    +0.002 A 
ATOM     30  C   UNL     1       5.872   8.995  -2.735  0.00  0.00    +0.000 A 
ATOM     31  C   UNL     1       6.256   9.343  -1.453  0.00  0.00    +0.005 A 
ENDBRANCH  20  21
ENDBRANCH  19  20
ENDBRANCH   2  19
TORSDOF 6
