REMARK  Name = ZINC19800139
REMARK  8 active torsions:
REMARK  status: ('A' for Active; 'I' for Inactive)
REMARK    1  A    between atoms: C_1  and  C_2
REMARK    2  A    between atoms: C_5  and  C_8
REMARK    3  A    between atoms: C_11  and  S_19
REMARK    4  A    between atoms: N_12  and  C_13
REMARK    5  A    between atoms: S_19  and  C_20
REMARK    6  A    between atoms: C_20  and  C_21
REMARK    7  A    between atoms: N_23  and  N_24
REMARK    8  A    between atoms: N_24  and  C_25
REMARK                            x       y       z     vdW  Elec       q    Type
REMARK                         _______ _______ _______ _____ _____    ______ ____
ROOT
ATOM      1  C   UNL     1       0.060  -4.251  -0.021  0.00  0.00    +0.169 A 
ATOM      2  N   UNL     1      -0.203  -5.029  -1.045  0.00  0.00    -0.128 NA
ATOM      3  N   UNL     1      -0.092  -6.262  -0.701  0.00  0.00    -0.122 NA
ATOM      4  C   UNL     1       0.249  -6.349   0.566  0.00  0.00    +0.197 A 
ATOM      5  N   UNL     1       0.363  -5.072   1.043  0.00  0.00    -0.270 N 
ENDROOT
BRANCH   1  10
ATOM      6  C   UNL     1      -0.018   1.503   0.010  0.00  0.00    +0.044 C 
ATOM      7  C   UNL     1       0.002  -0.004   0.002  0.00  0.00    -0.050 A 
ATOM      8  C   UNL     1       0.006  -0.686  -1.202  0.00  0.00    +0.004 A 
ATOM      9  C   UNL     1       0.024  -2.066  -1.216  0.00  0.00    +0.012 A 
ATOM     10  C   UNL     1       0.040  -2.773  -0.013  0.00  0.00    +0.020 A 
ATOM     11  C   UNL     1       0.037  -2.079   1.198  0.00  0.00    +0.012 A 
ATOM     12  C   UNL     1       0.023  -0.699   1.198  0.00  0.00    +0.004 A 
ENDBRANCH   1  10
BRANCH   5  13
ATOM     13  C   UNL     1       0.712  -4.681   2.343  0.00  0.00    +0.051 A 
ATOM     14  C   UNL     1       1.889  -3.978   2.565  0.00  0.00    +0.026 A 
ATOM     15  C   UNL     1       2.230  -3.594   3.847  0.00  0.00    +0.002 A 
ATOM     16  C   UNL     1       1.401  -3.908   4.909  0.00  0.00    +0.000 A 
ATOM     17  C   UNL     1       0.229  -4.609   4.690  0.00  0.00    +0.002 A 
ATOM     18  C   UNL     1      -0.121  -4.990   3.410  0.00  0.00    +0.026 A 
ENDBRANCH   5  13
BRANCH   4  19
ATOM     19  S   UNL     1       0.515  -7.833   1.477  0.00  0.00    -0.076 S 
BRANCH  19  20
ATOM     20  C   UNL     1       0.211  -9.151   0.269  0.00  0.00    +0.174 C 
BRANCH  20  21
ATOM     21  C   UNL     1       0.408 -10.492   0.927  0.00  0.00    +0.239 C 
ATOM     22  O   UNL     1       0.722 -10.553   2.097  0.00  0.00    -0.273 OA
ATOM     23  N   UNL     1       0.234 -11.624   0.217  0.00  0.00    -0.236 N 
ATOM     24  H   UNL     1      -0.017 -11.576  -0.719  0.00  0.00    +0.173 HD
BRANCH  23  25
ATOM     25  N   UNL     1       0.417 -12.871   0.829  0.00  0.00    -0.271 N 
ATOM     26  H   UNL     1       0.668 -12.919   1.765  0.00  0.00    +0.169 HD
BRANCH  25  27
ATOM     27  C   UNL     1       0.244 -13.997   0.122  0.00  0.00    +0.095 C 
ATOM     28  C   UNL     1       0.426 -15.243   0.734  0.00  0.00    -0.010 C 
ATOM     29  C   UNL     1       0.787 -15.315   2.098  0.00  0.00    +0.013 C 
ATOM     30  C   UNL     1       0.963 -16.523   2.689  0.00  0.00    +0.051 C 
ATOM     31  C   UNL     1       0.787 -17.705   1.944  0.00  0.00    +0.179 C 
ATOM     32  O   UNL     1       0.946 -18.794   2.479  0.00  0.00    -0.288 OA
ATOM     33  C   UNL     1       0.427 -17.636   0.585  0.00  0.00    +0.051 C 
ATOM     34  C   UNL     1       0.245 -16.430  -0.009  0.00  0.00    +0.013 C 
ENDBRANCH  25  27
ENDBRANCH  23  25
ENDBRANCH  20  21
ENDBRANCH  19  20
ENDBRANCH   4  19
TORSDOF 7
