REMARK  Name = ZINC65802549
REMARK  8 active torsions:
REMARK  status: ('A' for Active; 'I' for Inactive)
REMARK    1  A    between atoms: C_1  and  C_2
REMARK    2  A    between atoms: C_6  and  O_9
REMARK    3  A    between atoms: C_7  and  C_8
REMARK    4  A    between atoms: O_9  and  C_10
REMARK    5  A    between atoms: C_11  and  N_16
REMARK    6  A    between atoms: C_17  and  C_19
REMARK    7  A    between atoms: C_22  and  S_24
REMARK    8  A    between atoms: S_24  and  N_27
REMARK                            x       y       z     vdW  Elec       q    Type
REMARK                         _______ _______ _______ _____ _____    ______ ____
ROOT
ATOM      1  C   UNL     1      -0.015  -4.140   2.305  0.00  0.00    +0.242 A 
ATOM      2  C   UNL     1      -0.122  -4.870   3.490  0.00  0.00    +0.096 A 
ATOM      3  C   UNL     1      -0.206  -6.255   3.422  0.00  0.00    +0.030 A 
ATOM      4  C   UNL     1      -0.180  -6.858   2.172  0.00  0.00    +0.022 A 
ATOM      5  C   UNL     1      -0.073  -6.070   1.043  0.00  0.00    +0.115 A 
ATOM      6  N   UNL     1       0.000  -4.755   1.136  0.00  0.00    -0.219 NA
ENDROOT
BRANCH   2   7
ATOM      7  N   UNL     1      -0.143  -4.216   4.728  0.00  0.00    -0.275 N 
ATOM      8  C   UNL     1      -0.722  -4.807   5.792  0.00  0.00    +0.284 C 
ATOM      9  O   UNL     1      -1.315  -5.861   5.655  0.00  0.00    -0.266 OA
ATOM     10  H   UNL     1       0.258  -3.338   4.820  0.00  0.00    +0.155 HD
BRANCH   8  11
ATOM     11  C   UNL     1      -0.638  -4.180   7.114  0.00  0.00    +0.192 A 
ATOM     12  C   UNL     1      -1.171  -4.672   8.271  0.00  0.00    +0.057 A 
ATOM     13  C   UNL     1      -0.852  -3.756   9.285  0.00  0.00    +0.072 A 
ATOM     14  C   UNL     1      -0.146  -2.757   8.710  0.00  0.00    +0.258 A 
ATOM     15  O   UNL     1      -0.014  -3.019   7.403  0.00  0.00    -0.432 OA
BRANCH  14  16
ATOM     16  S   UNL     1       0.502  -1.346   9.544  0.00  0.00    +0.089 S 
ATOM     17  O   UNL     1       0.656  -0.330   8.563  0.00  0.00    -0.150 OA
ATOM     18  O   UNL     1      -0.289  -1.165  10.710  0.00  0.00    -0.150 OA
BRANCH  16  19
ATOM     19  N   UNL     1       2.025  -1.739  10.061  0.00  0.00    -0.201 NA
ATOM     20  H   UNL     1       2.703  -1.050  10.141  0.00  0.00    +0.144 HD
ATOM     21  H   UNL     1       2.239  -2.659  10.285  0.00  0.00    +0.144 HD
ENDBRANCH  16  19
ENDBRANCH  14  16
ENDBRANCH   8  11
ENDBRANCH   2   7
BRANCH   1  22
ATOM     22  O   UNL     1       0.068  -2.786   2.353  0.00  0.00    -0.436 OA
BRANCH  22  28
ATOM     23  C   UNL     1      -2.442  -0.904  -1.385  0.00  0.00    +0.044 C 
ATOM     24  C   UNL     1      -1.141  -1.168  -0.672  0.00  0.00    -0.044 A 
ATOM     25  C   UNL     1       0.048  -0.715  -1.214  0.00  0.00    +0.004 A 
ATOM     26  C   UNL     1       1.243  -0.955  -0.562  0.00  0.00    +0.004 A 
ATOM     27  C   UNL     1       1.253  -1.648   0.632  0.00  0.00    +0.046 A 
ATOM     28  C   UNL     1       0.061  -2.103   1.178  0.00  0.00    +0.134 A 
ATOM     29  C   UNL     1      -1.138  -1.857   0.525  0.00  0.00    -0.005 A 
ATOM     30  C   UNL     1      -2.434  -2.345   1.117  0.00  0.00    +0.048 C 
ENDBRANCH  22  28
ENDBRANCH   1  22
TORSDOF 6
