REMARK  Name = ZINC12570792
REMARK  9 active torsions:
REMARK  status: ('A' for Active; 'I' for Inactive)
REMARK    1  A    between atoms: C_1  and  C_2
REMARK    2  A    between atoms: C_9  and  C_20
REMARK    3  A    between atoms: C_17  and  C_19
REMARK    4  A    between atoms: C_20  and  N_21
REMARK    5  A    between atoms: N_21  and  C_22
REMARK    6  A    between atoms: C_22  and  C_23
REMARK    7  A    between atoms: C_23  and  C_24
REMARK    8  A    between atoms: C_30  and  C_32
REMARK    9  A    between atoms: C_35  and  C_37
REMARK                            x       y       z     vdW  Elec       q    Type
REMARK                         _______ _______ _______ _____ _____    ______ ____
ROOT
ATOM      1  C   UNL     1       1.797   4.871  -8.645  0.00  0.00    +0.044 C 
ATOM      2  C   UNL     1       0.672   4.625  -7.673  0.00  0.00    -0.050 A 
ATOM      3  C   UNL     1      -0.468   3.947  -8.099  0.00  0.00    +0.005 A 
ATOM      4  C   UNL     1      -1.502   3.708  -7.246  0.00  0.00    +0.026 A 
ATOM      5  C   UNL     1      -1.424   4.150  -5.914  0.00  0.00    +0.048 A 
ATOM      6  C   UNL     1      -0.264   4.839  -5.484  0.00  0.00    -0.001 A 
ATOM      7  C   UNL     1       0.783   5.068  -6.390  0.00  0.00    +0.013 A 
ATOM      8  C   UNL     1      -0.184   5.282  -4.148  0.00  0.00    +0.018 A 
ATOM      9  C   UNL     1      -1.237   5.030  -3.320  0.00  0.00    +0.008 A 
ATOM     10  C   UNL     1      -2.356   4.338  -3.804  0.00  0.00    +0.104 A 
ATOM     11  N   UNL     1      -3.417   4.084  -2.949  0.00  0.00    -0.313 N 
ATOM     12  C   UNL     1      -3.857   2.687  -3.056  0.00  0.00    +0.125 C 
ATOM     13  C   UNL     1      -4.903   2.400  -1.973  0.00  0.00    +0.126 C 
ATOM     14  N   UNL     1      -5.977   3.399  -2.079  0.00  0.00    -0.299 N 
ATOM     15  C   UNL     1      -5.601   4.821  -2.122  0.00  0.00    +0.126 C 
ATOM     16  C   UNL     1      -4.528   5.013  -3.199  0.00  0.00    +0.125 C 
ATOM     17  C   UNL     1      -7.270   3.022  -2.140  0.00  0.00    +0.213 C 
ATOM     18  O   UNL     1      -7.560   1.845  -2.107  0.00  0.00    -0.276 OA
ATOM     19  C   UNL     1      -8.354   4.063  -2.248  0.00  0.00    +0.109 C 
ATOM     20  N   UNL     1      -2.487   3.889  -5.078  0.00  0.00    -0.343 N 
ATOM     21  H   UNL     1      -3.325   3.389  -5.398  0.00  0.00    +0.167 HD
ENDROOT
BRANCH   9  22
ATOM     22  C   UNL     1      -1.196   5.490  -1.886  0.00  0.00    +0.146 C 
BRANCH  22  23
ATOM     23  N   UNL     1       0.056   6.210  -1.639  0.00  0.00    -0.292 N 
ATOM     24  C   UNL     1       0.120   7.540  -1.845  0.00  0.00    +0.254 C 
ATOM     25  O   UNL     1      -0.830   8.128  -2.328  0.00  0.00    -0.269 OA
BRANCH  24  26
ATOM     26  C   UNL     1       1.335   8.279  -1.488  0.00  0.00    +0.074 A 
ATOM     27  C   UNL     1       1.653   9.606  -1.732  0.00  0.00    +0.021 A 
ATOM     28  C   UNL     1       2.873  10.049  -1.284  0.00  0.00    +0.011 A 
ATOM     29  C   UNL     1       3.695   9.183  -0.635  0.00  0.00    -0.013 A 
ATOM     30  S   UNL     1       2.785   7.708  -0.620  0.00  0.00    -0.089 S 
ATOM     31  C   UNL     1       5.065   9.443  -0.062  0.00  0.00    +0.051 C 
ENDBRANCH  24  26
BRANCH  23  32
ATOM     32  C   UNL     1       1.238   5.484  -1.168  0.00  0.00    +0.113 C 
BRANCH  32  33
ATOM     33  C   UNL     1       1.253   5.472   0.362  0.00  0.00    +0.049 C 
BRANCH  33  34
ATOM     34  C   UNL     1       2.391   4.611   0.847  0.00  0.00    -0.072 C 
ATOM     35  C   UNL     1       3.503   5.194   1.160  0.00  0.00    -0.028 C 
ATOM     36  C   UNL     1       4.724   4.471   1.647  0.00  0.00    +0.027 C 
ATOM     37  C   UNL     1       4.350   3.064   2.117  0.00  0.00    +0.004 C 
ATOM     38  C   UNL     1       3.504   2.396   1.026  0.00  0.00    +0.005 C 
ATOM     39  C   UNL     1       2.162   3.131   0.942  0.00  0.00    +0.030 C 
ENDBRANCH  33  34
ENDBRANCH  32  33
ENDBRANCH  23  32
ENDBRANCH  22  23
ENDBRANCH   9  22
TORSDOF 6
