REMARK  Name = ZINC04384527
REMARK  3 active torsions:
REMARK  status: ('A' for Active; 'I' for Inactive)
REMARK    1  A    between atoms: C_6  and  N_7
REMARK    2  A    between atoms: C_8  and  C_10
REMARK    3  A    between atoms: C_10  and  N_11
REMARK                            x       y       z     vdW  Elec       q    Type
REMARK                         _______ _______ _______ _____ _____    ______ ____
ROOT
ATOM      1  N   UNL     1       2.677   6.690   2.380  0.00  0.00    -0.284 N 
ATOM      2  C   UNL     1       2.779   5.468   1.819  0.00  0.00    +0.235 C 
ATOM      3  O   UNL     1       3.047   4.506   2.506  0.00  0.00    -0.274 OA
ATOM      4  H   UNL     1       2.538   7.470   1.821  0.00  0.00    +0.155 HD
ENDROOT
BRANCH   1  10
ATOM      5  C   UNL     1       3.344   7.976   4.313  0.00  0.00    +0.025 A 
ATOM      6  C   UNL     1       3.439   8.122   5.683  0.00  0.00    +0.029 A 
ATOM      7  C   UNL     1       2.962   7.125   6.520  0.00  0.00    +0.067 A 
ATOM      8  C   UNL     1       2.386   5.975   5.977  0.00  0.00    +0.069 A 
ATOM      9  C   UNL     1       2.286   5.833   4.603  0.00  0.00    +0.051 A 
ATOM     10  C   UNL     1       2.771   6.832   3.770  0.00  0.00    +0.036 A 
ATOM     11  N   UNL     1       2.008   5.170   7.050  0.00  0.00    -0.306 N 
ATOM     12  H   UNL     1       1.579   4.302   6.984  0.00  0.00    +0.170 HD
ATOM     13  C   UNL     1       2.339   5.800   8.192  0.00  0.00    +0.325 A 
ATOM     14  O   UNL     1       2.145   5.368   9.313  0.00  0.00    -0.247 OA
ATOM     15  N   UNL     1       2.917   6.982   7.907  0.00  0.00    -0.306 N 
ATOM     16  H   UNL     1       3.245   7.625   8.555  0.00  0.00    +0.170 HD
ENDBRANCH   1  10
BRANCH   2  17
ATOM     17  C   UNL     1       2.560   5.299   0.338  0.00  0.00    +0.209 C 
BRANCH  17  18
ATOM     18  N   UNL     1       2.726   3.888  -0.022  0.00  0.00    -0.256 N 
ATOM     19  C   UNL     1       1.629   3.015  -0.002  0.00  0.00    +0.080 A 
ATOM     20  C   UNL     1       0.335   3.505   0.043  0.00  0.00    +0.047 A 
ATOM     21  C   UNL     1      -0.734   2.626   0.064  0.00  0.00    +0.043 A 
ATOM     22  C   UNL     1      -0.511   1.260   0.035  0.00  0.00    +0.024 A 
ATOM     23  C   UNL     1       0.780   0.766  -0.004  0.00  0.00    +0.049 A 
ATOM     24  C   UNL     1       1.853   1.639  -0.025  0.00  0.00    +0.143 A 
ATOM     25  O   UNL     1       3.129   1.170  -0.071  0.00  0.00    -0.481 OA
ATOM     26  C   UNL     1       4.081   1.964  -0.783  0.00  0.00    +0.325 C 
ATOM     27  C   UNL     1       3.937   3.410  -0.380  0.00  0.00    +0.258 C 
ATOM     28  O   UNL     1       4.906   4.140  -0.376  0.00  0.00    -0.271 OA
ATOM     29 CL   UNL     1      -2.357   3.238   0.119  0.00  0.00    -0.083 Cl
ENDBRANCH  17  18
ENDBRANCH   2  17
TORSDOF 3
