REMARK  Name = ZINC58848061
REMARK  8 active torsions:
REMARK  status: ('A' for Active; 'I' for Inactive)
REMARK    1  A    between atoms: C_1  and  C_2
REMARK    2  A    between atoms: C_7  and  N_8
REMARK    3  A    between atoms: N_8  and  S_9
REMARK    4  A    between atoms: S_9  and  C_12
REMARK    5  A    between atoms: C_25  and  C_28
REMARK    6  A    between atoms: C_31  and  C_34
REMARK    7  A    between atoms: C_34  and  O_36
REMARK    8  A    between atoms: O_36  and  C_37
REMARK                            x       y       z     vdW  Elec       q    Type
REMARK                         _______ _______ _______ _____ _____    ______ ____
ROOT
ATOM      1  C   UNL     1       2.500  -0.639   3.444  0.00  0.00    +0.109 A 
ATOM      2  C   UNL     1       3.115  -1.708   2.817  0.00  0.00    +0.030 A 
ATOM      3  C   UNL     1       4.476  -1.678   2.591  0.00  0.00    +0.025 A 
ATOM      4  C   UNL     1       5.227  -0.578   2.990  0.00  0.00    +0.031 A 
ATOM      5  C   UNL     1       4.610   0.500   3.608  0.00  0.00    -0.018 A 
ATOM      6  C   UNL     1       3.241   0.458   3.832  0.00  0.00    +0.034 A 
ATOM      7  C   UNL     1       5.375   1.714   4.014  0.00  0.00    +0.049 C 
ATOM      8  C   UNL     1       5.619   1.760   5.501  0.00  0.00    -0.023 C 
ATOM      9  C   UNL     1       6.797   2.275   5.750  0.00  0.00    -0.030 C 
ATOM     10  C   UNL     1       7.510   2.641   4.467  0.00  0.00    +0.033 C 
ATOM     11  C   UNL     1       6.761   1.830   3.384  0.00  0.00    +0.029 C 
ATOM     12  C   UNL     1       7.468   0.501   3.215  0.00  0.00    +0.105 C 
ATOM     13  N   UNL     1       6.600  -0.571   2.773  0.00  0.00    -0.336 N 
ATOM     14  H   UNL     1       6.999  -1.332   2.324  0.00  0.00    +0.147 HD
ENDROOT
BRANCH  12  15
ATOM     15  C   UNL     1       8.106   0.128   4.529  0.00  0.00    -0.027 A 
ATOM     16  C   UNL     1       7.338  -0.438   5.531  0.00  0.00    +0.006 A 
ATOM     17  C   UNL     1       7.915  -0.782   6.736  0.00  0.00    +0.015 A 
ATOM     18  C   UNL     1       9.277  -0.558   6.942  0.00  0.00    +0.059 A 
ATOM     19  C   UNL     1      10.047   0.014   5.927  0.00  0.00    +0.015 A 
ATOM     20  C   UNL     1       9.458   0.348   4.725  0.00  0.00    +0.006 A 
BRANCH  18  21
ATOM     21  C   UNL     1       9.902  -0.923   8.230  0.00  0.00    +0.339 C 
ATOM     22  O   UNL     1       9.231  -1.419   9.112  0.00  0.00    -0.245 OA
BRANCH  21  23
ATOM     23  O   UNL     1      11.217  -0.705   8.426  0.00  0.00    -0.464 OA
ATOM     24  C   UNL     1      11.755  -1.083   9.695  0.00  0.00    +0.280 C 
ENDBRANCH  21  23
ENDBRANCH  18  21
ENDBRANCH  12  15
BRANCH   1  25
ATOM     25  S   UNL     1       0.764  -0.676   3.742  0.00  0.00    +0.072 S 
ATOM     26  O   UNL     1       0.519   0.208   4.827  0.00  0.00    -0.150 OA
ATOM     27  O   UNL     1       0.387  -2.046   3.776  0.00  0.00    -0.150 OA
BRANCH  25  28
ATOM     28  N   UNL     1       0.025  -0.015   2.416  0.00  0.00    -0.216 N 
ATOM     29  H   UNL     1      -0.522   0.780   2.511  0.00  0.00    +0.174 HD
BRANCH  28  36
ATOM     30  C   UNL     1       0.153   1.691   0.143  0.00  0.00    +0.046 C 
ATOM     31  C   UNL     1       0.258   0.193   0.022  0.00  0.00    -0.027 A 
ATOM     32  C   UNL     1       0.427  -0.390  -1.219  0.00  0.00    +0.025 A 
ATOM     33  C   UNL     1       0.523  -1.766  -1.331  0.00  0.00    +0.041 A 
ATOM     34  C   UNL     1       0.451  -2.562  -0.200  0.00  0.00    +0.022 A 
ATOM     35  C   UNL     1       0.282  -1.984   1.042  0.00  0.00    +0.026 A 
ATOM     36  C   UNL     1       0.190  -0.603   1.158  0.00  0.00    +0.051 A 
ATOM     37 CL   UNL     1       0.736  -2.495  -2.891  0.00  0.00    -0.084 Cl
ENDBRANCH  28  36
ENDBRANCH  25  28
ENDBRANCH   1  25
TORSDOF 6
