REMARK  Name = ZINC16688343
REMARK  16 active torsions:
REMARK  status: ('A' for Active; 'I' for Inactive)
REMARK    1  A    between atoms: C_1  and  C_2
REMARK    2  A    between atoms: C_2  and  O_3
REMARK    3  A    between atoms: O_3  and  C_4
REMARK    4  A    between atoms: C_6  and  C_20
REMARK    5  A    between atoms: C_9  and  O_10
REMARK    6  A    between atoms: O_10  and  C_11
REMARK    7  A    between atoms: C_11  and  C_12
REMARK    8  A    between atoms: N_14  and  C_15
REMARK    9  A    between atoms: C_15  and  C_16
REMARK   10  A    between atoms: C_15  and  C_17
REMARK   11  A    between atoms: C_15  and  C_18
REMARK   12  A    between atoms: C_20  and  N_21
REMARK   13  A    between atoms: N_21  and  C_22
REMARK   14  A    between atoms: C_22  and  C_23
REMARK   15  A    between atoms: C_23  and  C_24
REMARK   16  A    between atoms: C_24  and  N_25
REMARK                            x       y       z     vdW  Elec       q    Type
REMARK                         _______ _______ _______ _____ _____    ______ ____
ROOT
ATOM      1  C   UNL     1       0.807   1.987   2.993  0.00  0.00    +0.163 A 
ATOM      2  C   UNL     1       1.347   1.611   4.212  0.00  0.00    +0.051 A 
ATOM      3  C   UNL     1       0.937   0.438   4.818  0.00  0.00    -0.060 A 
ATOM      4  C   UNL     1      -0.012  -0.363   4.210  0.00  0.00    +0.021 A 
ATOM      5  C   UNL     1      -0.559   0.009   2.996  0.00  0.00    +0.063 A 
ATOM      6  C   UNL     1      -0.148   1.182   2.381  0.00  0.00    +0.176 A 
ATOM      7 BR   UNL     1      -1.863  -1.084   2.172  0.00  0.00    -0.046 Br
ENDROOT
BRANCH   1   8
ATOM      8  O   UNL     1       1.209   3.141   2.396  0.00  0.00    -0.489 OA
BRANCH   8  10
ATOM      9  C   UNL     1       2.516   5.169   2.264  0.00  0.00    +0.048 C 
ATOM     10  C   UNL     1       2.192   3.918   3.083  0.00  0.00    +0.226 C 
ENDBRANCH   8  10
ENDBRANCH   1   8
BRANCH   6  11
ATOM     11  O   UNL     1      -0.682   1.547   1.184  0.00  0.00    -0.478 OA
BRANCH  11  12
ATOM     12  C   UNL     1      -0.013   1.086   0.008  0.00  0.00    +0.324 C 
BRANCH  12  13
ATOM     13  C   UNL     1      -0.742   1.585  -1.213  0.00  0.00    +0.251 C 
ATOM     14  O   UNL     1      -1.736   2.268  -1.088  0.00  0.00    -0.272 OA
ATOM     15  N   UNL     1      -0.288   1.272  -2.443  0.00  0.00    -0.308 N 
ATOM     16  H   UNL     1       0.614   0.653  -2.556  0.00  0.00    +0.149 HD
BRANCH  15  17
ATOM     17  C   UNL     1      -0.997   1.758  -3.630  0.00  0.00    +0.026 C 
ATOM     18  C   UNL     1      -1.018   3.288  -3.622  0.00  0.00    +0.031 C 
ATOM     19  C   UNL     1      -0.281   1.264  -4.889  0.00  0.00    +0.031 C 
ATOM     20  C   UNL     1      -2.432   1.228  -3.619  0.00  0.00    +0.031 C 
ENDBRANCH  15  17
ENDBRANCH  12  13
ENDBRANCH  11  12
ENDBRANCH   6  11
BRANCH   3  21
ATOM     21  C   UNL     1       1.526   0.032   6.145  0.00  0.00    -0.047 C 
BRANCH  21  22
ATOM     22  N   UNL     1       0.713   0.590   7.233  0.00  0.00    +0.382 N 
ATOM     23  H   UNL     1       0.703   1.688   7.157  0.00  0.00    -0.085 HD
ATOM     24  H   UNL     1      -0.316   0.208   7.156  0.00  0.00    -0.085 HD
BRANCH  22  25
ATOM     25  C   UNL     1       1.258   0.214   8.544  0.00  0.00    -0.081 C 
BRANCH  25  26
ATOM     26  C   UNL     1       0.387   0.813   9.650  0.00  0.00    -0.004 C 
BRANCH  26  27
ATOM     27  C   UNL     1       0.954   0.420  11.016  0.00  0.00    +0.083 C 
BRANCH  27  28
ATOM     28  N   UNL     1       0.118   0.995  12.077  0.00  0.00    -0.298 NA
ATOM     29  C   UNL     1       0.203   2.463  12.079  0.00  0.00    +0.112 C 
ATOM     30  C   UNL     1      -0.727   3.022  13.159  0.00  0.00    +0.175 C 
ATOM     31  O   UNL     1      -0.373   2.458  14.424  0.00  0.00    -0.377 OA
ATOM     32  C   UNL     1      -0.446   1.030  14.459  0.00  0.00    +0.175 C 
ATOM     33  C   UNL     1       0.487   0.451  13.392  0.00  0.00    +0.112 C 
ENDBRANCH  27  28
ENDBRANCH  26  27
ENDBRANCH  25  26
ENDBRANCH  22  25
ENDBRANCH  21  22
ENDBRANCH   3  21
TORSDOF 12
