REMARK  Name = ZINC04889171
REMARK  4 active torsions:
REMARK  status: ('A' for Active; 'I' for Inactive)
REMARK    1  A    between atoms: C_1  and  C_2
REMARK    2  A    between atoms: C_7  and  C_8
REMARK    3  A    between atoms: N_14  and  N_15
REMARK    4  A    between atoms: C_16  and  C_17
REMARK                            x       y       z     vdW  Elec       q    Type
REMARK                         _______ _______ _______ _____ _____    ______ ____
ROOT
ATOM      1  C   UNL     1      -4.540  -1.166   1.284  0.00  0.00    +0.184 A 
ATOM      2  N   UNL     1      -5.684  -1.742   1.042  0.00  0.00    -0.152 NA
ATOM      3  N   UNL     1      -5.761  -1.994  -0.334  0.00  0.00    -0.253 N 
ATOM      4  H   UNL     1      -6.652  -2.483  -0.755  0.00  0.00    +0.191 HD
ATOM      5  C   UNL     1      -4.621  -1.540  -0.894  0.00  0.00    +0.197 A 
ATOM      6  S   UNL     1      -4.215  -1.609  -2.556  0.00  0.00    -0.010 S 
ATOM      7  N   UNL     1      -3.859  -1.024   0.090  0.00  0.00    -0.188 N 
ENDROOT
BRANCH   1  14
ATOM      8  C   UNL     1      -6.288   0.340   3.029  0.00  0.00    +0.044 C 
ATOM      9  C   UNL     1      -4.887  -0.008   3.463  0.00  0.00    -0.040 A 
ATOM     10  C   UNL     1      -4.429   0.386   4.704  0.00  0.00    +0.004 A 
ATOM     11  C   UNL     1      -3.142   0.073   5.100  0.00  0.00    +0.000 A 
ATOM     12  C   UNL     1      -2.307  -0.642   4.260  0.00  0.00    +0.001 A 
ATOM     13  C   UNL     1      -2.755  -1.047   3.020  0.00  0.00    +0.012 A 
ATOM     14  C   UNL     1      -4.053  -0.735   2.613  0.00  0.00    +0.024 A 
ENDBRANCH   1  14
BRANCH   7  15
ATOM     15  N   UNL     1      -2.592  -0.448  -0.069  0.00  0.00    -0.170 NA
ATOM     16  C   UNL     1      -2.482   0.825  -0.300  0.00  0.00    +0.142 C 
BRANCH  16  17
ATOM     17  C   UNL     1      -1.148   1.431  -0.468  0.00  0.00    +0.013 A 
ATOM     18  C   UNL     1      -1.026   2.801  -0.712  0.00  0.00    +0.011 A 
ATOM     19  C   UNL     1       0.225   3.361  -0.872  0.00  0.00    +0.001 A 
ATOM     20  C   UNL     1       1.357   2.570  -0.788  0.00  0.00    +0.001 A 
ATOM     21  C   UNL     1       1.245   1.213  -0.542  0.00  0.00    +0.020 A 
ATOM     22  C   UNL     1      -0.000   0.638  -0.379  0.00  0.00    +0.050 A 
ATOM     23 CL   UNL     1      -0.139  -1.064  -0.070  0.00  0.00    -0.083 Cl
ENDBRANCH  16  17
ENDBRANCH   7  15
TORSDOF 3
