REMARK  Name = ZINC63384317
REMARK  8 active torsions:
REMARK  status: ('A' for Active; 'I' for Inactive)
REMARK    1  A    between atoms: C_1  and  C_2
REMARK    2  A    between atoms: C_2  and  C_3
REMARK    3  A    between atoms: C_2  and  C_4
REMARK    4  A    between atoms: C_4  and  C_6
REMARK    5  A    between atoms: C_4  and  N_16
REMARK    6  A    between atoms: N_8  and  C_9
REMARK    7  A    between atoms: C_9  and  C_10
REMARK    8  A    between atoms: C_17  and  C_19
REMARK                            x       y       z     vdW  Elec       q    Type
REMARK                         _______ _______ _______ _____ _____    ______ ____
ROOT
ATOM      1  C   UNL     1      -1.974  -3.908   1.838  0.00  0.00    +0.167 C 
ATOM      2  C   UNL     1      -3.421  -4.218   1.408  0.00  0.00    +0.065 C 
ATOM      3  C   UNL     1      -4.333  -3.621   2.451  0.00  0.00    -0.034 C 
ATOM      4  C   UNL     1      -5.366  -2.793   2.331  0.00  0.00    -0.001 A 
ATOM      5  C   UNL     1      -6.046  -2.243   1.147  0.00  0.00    +0.010 A 
ATOM      6  C   UNL     1      -7.079  -1.394   1.391  0.00  0.00    +0.001 A 
ATOM      7  C   UNL     1      -7.499  -1.041   2.677  0.00  0.00    +0.002 A 
ATOM      8  C   UNL     1      -6.938  -1.506   3.821  0.00  0.00    +0.026 A 
ATOM      9  C   UNL     1      -5.846  -2.413   3.694  0.00  0.00    +0.043 A 
ATOM     10  N   UNL     1      -5.146  -3.018   4.607  0.00  0.00    -0.375 N 
ATOM     11  C   UNL     1      -4.177  -3.893   3.943  0.00  0.00    +0.131 C 
ATOM     12  C   UNL     1      -2.736  -3.516   4.305  0.00  0.00    +0.134 C 
ATOM     13  N   UNL     1      -1.854  -4.135   3.284  0.00  0.00    -0.276 N 
ATOM     14  C   UNL     1      -0.963  -4.931   3.902  0.00  0.00    +0.248 C 
ATOM     15  O   UNL     1      -0.056  -5.522   3.348  0.00  0.00    -0.270 OA
ATOM     16  C   UNL     1      -1.242  -4.983   5.338  0.00  0.00    +0.042 A 
ATOM     17  C   UNL     1      -2.342  -4.112   5.617  0.00  0.00    -0.013 A 
ATOM     18  C   UNL     1      -2.845  -3.944   6.888  0.00  0.00    +0.006 A 
ATOM     19  C   UNL     1      -2.231  -4.661   7.911  0.00  0.00    +0.000 A 
ATOM     20  C   UNL     1      -1.164  -5.503   7.669  0.00  0.00    +0.001 A 
ATOM     21  C   UNL     1      -0.624  -5.704   6.363  0.00  0.00    +0.013 A 
ATOM     22  H   UNL     1      -5.247  -2.908   5.566  0.00  0.00    +0.160 HD
ENDROOT
BRANCH   1  24
ATOM     23  N   UNL     1      -1.702  -2.030   0.251  0.00  0.00    -0.302 N 
ATOM     24  C   UNL     1      -1.649  -2.470   1.523  0.00  0.00    +0.235 C 
ATOM     25  O   UNL     1      -1.340  -1.709   2.416  0.00  0.00    -0.274 OA
ATOM     26  H   UNL     1      -1.950  -2.639  -0.463  0.00  0.00    +0.150 HD
BRANCH  23  27
ATOM     27  C   UNL     1      -1.386  -0.633  -0.056  0.00  0.00    +0.161 C 
BRANCH  27  28
ATOM     28  C   UNL     1      -2.074  -0.231  -1.335  0.00  0.00    +0.234 C 
ATOM     29  O   UNL     1      -2.511  -1.081  -2.081  0.00  0.00    -0.274 OA
ATOM     30  N   UNL     1      -2.204   1.073  -1.649  0.00  0.00    -0.310 N 
ATOM     31  H   UNL     1      -1.924   1.754  -1.018  0.00  0.00    +0.149 HD
BRANCH  30  32
ATOM     32  C   UNL     1      -2.768   1.462  -2.944  0.00  0.00    +0.139 C 
BRANCH  32  33
ATOM     33  C   UNL     1      -2.804   2.965  -3.045  0.00  0.00    -0.030 A 
ATOM     34  C   UNL     1      -3.914   3.662  -2.607  0.00  0.00    +0.005 A 
ATOM     35  C   UNL     1      -3.947   5.040  -2.700  0.00  0.00    +0.000 A 
ATOM     36  C   UNL     1      -2.869   5.723  -3.231  0.00  0.00    +0.000 A 
ATOM     37  C   UNL     1      -1.757   5.027  -3.669  0.00  0.00    +0.000 A 
ATOM     38  C   UNL     1      -1.723   3.648  -3.571  0.00  0.00    +0.005 A 
ENDBRANCH  32  33
ENDBRANCH  30  32
ENDBRANCH  27  28
BRANCH  27  40
ATOM     39  C   UNL     1       0.820  -0.801   1.106  0.00  0.00    +0.009 C 
ATOM     40  C   UNL     1       0.127  -0.476  -0.219  0.00  0.00    +0.012 C 
ATOM     41  C   UNL     1       0.625  -1.434  -1.303  0.00  0.00    +0.009 C 
ENDBRANCH  27  40
ENDBRANCH  23  27
ENDBRANCH   1  24
TORSDOF 6
