REMARK  Name = ZINC19743762
REMARK  8 active torsions:
REMARK  status: ('A' for Active; 'I' for Inactive)
REMARK    1  A    between atoms: C_1  and  O_2
REMARK    2  A    between atoms: O_2  and  C_3
REMARK    3  A    between atoms: C_6  and  C_9
REMARK    4  A    between atoms: C_16  and  C_19
REMARK    5  A    between atoms: C_19  and  N_20
REMARK    6  A    between atoms: C_21  and  C_23
REMARK    7  A    between atoms: C_23  and  C_24
REMARK    8  A    between atoms: C_24  and  C_25
REMARK                            x       y       z     vdW  Elec       q    Type
REMARK                         _______ _______ _______ _____ _____    ______ ____
ROOT
ATOM      1  C   UNL     1       1.465  -1.696   1.127  0.00  0.00    +0.047 A 
ATOM      2  C   UNL     1       2.725  -1.924   1.673  0.00  0.00    +0.052 A 
ATOM      3  C   UNL     1       3.669  -0.915   1.686  0.00  0.00    +0.125 A 
ATOM      4  C   UNL     1       3.358   0.328   1.157  0.00  0.00    +0.045 A 
ATOM      5  C   UNL     1       2.111   0.561   0.618  0.00  0.00    +0.001 A 
ATOM      6  C   UNL     1       1.151  -0.440   0.587  0.00  0.00    +0.134 A 
ATOM      7  O   UNL     1       0.002  -0.004   0.002  0.00  0.00    -0.486 OA
ATOM      8  C   UNL     1      -0.017   1.433   0.010  0.00  0.00    +0.195 C 
ATOM      9  C   UNL     1       1.487   1.796  -0.003  0.00  0.00    +0.085 C 
ATOM     10  F   UNL     1       4.893  -1.140   2.213  0.00  0.00    -0.205 F 
ENDROOT
BRANCH   1  14
ATOM     11  C   UNL     1      -1.442  -4.693   1.050  0.00  0.00    +0.234 A 
ATOM     12  C   UNL     1      -0.211  -5.016   1.618  0.00  0.00    +0.071 A 
ATOM     13  C   UNL     1       0.766  -4.036   1.652  0.00  0.00    +0.035 A 
ATOM     14  C   UNL     1       0.455  -2.782   1.115  0.00  0.00    +0.097 A 
ATOM     15  N   UNL     1      -0.748  -2.566   0.600  0.00  0.00    -0.146 NA
ATOM     16  N   UNL     1      -1.649  -3.480   0.564  0.00  0.00    -0.111 NA
BRANCH  11  18
ATOM     17  C   UNL     1      -3.664  -5.224   0.399  0.00  0.00    +0.279 C 
ATOM     18  O   UNL     1      -2.429  -5.623   0.995  0.00  0.00    -0.479 OA
ENDBRANCH  11  18
ENDBRANCH   1  14
BRANCH   8  19
ATOM     19  C   UNL     1      -0.715   1.973  -1.240  0.00  0.00    +0.149 C 
BRANCH  19  20
ATOM     20  N   UNL     1      -2.134   1.611  -1.202  0.00  0.00    -0.312 N 
ATOM     21  C   UNL     1      -2.952   1.983  -2.207  0.00  0.00    +0.213 C 
ATOM     22  O   UNL     1      -2.513   2.618  -3.142  0.00  0.00    -0.276 OA
ATOM     23  H   UNL     1      -2.532   1.035  -0.353  0.00  0.00    +0.149 HD
BRANCH  21  24
ATOM     24  C   UNL     1      -4.412   1.610  -2.167  0.00  0.00    +0.100 C 
BRANCH  24  25
ATOM     25  C   UNL     1      -5.110   2.150  -3.417  0.00  0.00    +0.046 C 
BRANCH  25  26
ATOM     26  C   UNL     1      -6.569   1.777  -3.378  0.00  0.00    -0.022 A 
ATOM     27  C   UNL     1      -7.137   0.710  -3.963  0.00  0.00    +0.087 A 
ATOM     28  N   UNL     1      -8.481   0.698  -3.708  0.00  0.00    -0.360 N 
ATOM     29  H   UNL     1      -9.109  -0.113  -4.105  0.00  0.00    +0.165 HD
ATOM     30  C   UNL     1      -8.822   1.790  -2.940  0.00  0.00    +0.047 A 
ATOM     31  C   UNL     1      -7.639   2.513  -2.700  0.00  0.00    +0.003 A 
ATOM     32  C   UNL     1      -7.680   3.683  -1.940  0.00  0.00    +0.010 A 
ATOM     33  C   UNL     1      -8.871   4.120  -1.432  0.00  0.00    +0.001 A 
ATOM     34  C   UNL     1     -10.040   3.410  -1.666  0.00  0.00    +0.002 A 
ATOM     35  C   UNL     1     -10.022   2.253  -2.413  0.00  0.00    +0.026 A 
ENDBRANCH  25  26
ENDBRANCH  24  25
ENDBRANCH  21  24
ENDBRANCH  19  20
ENDBRANCH   8  19
TORSDOF 7
