REMARK  Name = ZINC66589324
REMARK  5 active torsions:
REMARK  status: ('A' for Active; 'I' for Inactive)
REMARK    1  A    between atoms: C_9  and  S_12
REMARK    2  A    between atoms: S_12  and  N_15
REMARK    3  A    between atoms: N_15  and  N_16
REMARK    4  A    between atoms: C_17  and  C_19
REMARK    5  A    between atoms: C_19  and  C_20
REMARK                            x       y       z     vdW  Elec       q    Type
REMARK                         _______ _______ _______ _____ _____    ______ ____
ROOT
ATOM      1  S   UNL     1      -2.627  -3.051   0.013  0.00  0.00    +0.074 S 
ATOM      2  O   UNL     1      -2.305  -4.325   0.554  0.00  0.00    -0.152 OA
ATOM      3  O   UNL     1      -3.626  -2.213   0.578  0.00  0.00    -0.152 OA
ENDROOT
BRANCH   1  12
ATOM      4  C   UNL     1      -0.018   1.462   0.010  0.00  0.00    +0.018 A 
ATOM      5  C   UNL     1       1.170   2.119   0.002  0.00  0.00    +0.092 A 
ATOM      6  C   UNL     1       2.377   1.387  -0.013  0.00  0.00    +0.337 A 
ATOM      7  O   UNL     1       3.435   1.988  -0.020  0.00  0.00    -0.245 OA
ATOM      8  O   UNL     1       2.387   0.045  -0.020  0.00  0.00    -0.422 OA
ATOM      9  C   UNL     1       1.241  -0.669  -0.013  0.00  0.00    +0.139 A 
ATOM     10  C   UNL     1       0.002  -0.004   0.002  0.00  0.00    +0.019 A 
ATOM     11  C   UNL     1      -1.186  -0.741   0.010  0.00  0.00    +0.040 A 
ATOM     12  C   UNL     1      -1.133  -2.117   0.002  0.00  0.00    +0.108 A 
ATOM     13  C   UNL     1       0.090  -2.771  -0.013  0.00  0.00    +0.032 A 
ATOM     14  C   UNL     1       1.270  -2.057  -0.021  0.00  0.00    +0.049 A 
ENDBRANCH   1  12
BRANCH   1  15
ATOM     15  N   UNL     1      -3.058  -3.303  -1.566  0.00  0.00    -0.108 NA
ATOM     16  H   UNL     1      -3.909  -2.973  -1.895  0.00  0.00    +0.172 HD
BRANCH  15  17
ATOM     17  N   UNL     1      -2.194  -3.992  -2.427  0.00  0.00    -0.232 N 
ATOM     18  C   UNL     1      -2.632  -5.077  -3.096  0.00  0.00    +0.228 C 
ATOM     19  O   UNL     1      -3.775  -5.456  -2.953  0.00  0.00    -0.274 OA
ATOM     20  H   UNL     1      -1.280  -3.688  -2.542  0.00  0.00    +0.171 HD
BRANCH  18  21
ATOM     21  C   UNL     1      -1.703  -5.818  -4.022  0.00  0.00    +0.100 C 
BRANCH  21  22
ATOM     22  C   UNL     1      -2.444  -7.000  -4.650  0.00  0.00    -0.002 C 
ATOM     23  C   UNL     1      -2.816  -8.006  -3.559  0.00  0.00    +0.004 C 
ATOM     24  C   UNL     1      -3.557  -9.188  -4.188  0.00  0.00    +0.000 C 
ATOM     25  C   UNL     1      -2.654  -9.866  -5.220  0.00  0.00    +0.000 C 
ATOM     26  C   UNL     1      -2.282  -8.859  -6.311  0.00  0.00    +0.000 C 
ATOM     27  C   UNL     1      -1.541  -7.678  -5.683  0.00  0.00    +0.004 C 
ENDBRANCH  21  22
ENDBRANCH  18  21
ENDBRANCH  15  17
ENDBRANCH   1  15
TORSDOF 5
