REMARK  Name = ZINC32732928
REMARK  16 active torsions:
REMARK  status: ('A' for Active; 'I' for Inactive)
REMARK    1  A    between atoms: C_1  and  C_2
REMARK    2  A    between atoms: C_2  and  C_3
REMARK    3  A    between atoms: C_6  and  C_9
REMARK    4  A    between atoms: C_9  and  C_11
REMARK    5  A    between atoms: C_9  and  N_33
REMARK    6  A    between atoms: C_11  and  N_12
REMARK    7  A    between atoms: C_13  and  C_15
REMARK    8  A    between atoms: C_15  and  C_17
REMARK    9  A    between atoms: C_15  and  N_21
REMARK   10  A    between atoms: C_17  and  C_18
REMARK   11  A    between atoms: C_18  and  S_19
REMARK   12  A    between atoms: S_19  and  C_20
REMARK   13  A    between atoms: C_22  and  C_24
REMARK   14  A    between atoms: C_28  and  N_30
REMARK   15  A    between atoms: N_33  and  C_34
REMARK   16  A    between atoms: N_33  and  C_35
REMARK                            x       y       z     vdW  Elec       q    Type
REMARK                         _______ _______ _______ _____ _____    ______ ____
ROOT
ATOM      1  N   UNL     1       3.455  -1.987   6.881  0.00  0.00    -0.315 N 
ATOM      2  C   UNL     1       3.740  -1.353   8.036  0.00  0.00    +0.233 C 
ATOM      3  O   UNL     1       3.680  -0.143   8.095  0.00  0.00    -0.274 OA
ATOM      4  H   UNL     1       3.503  -2.954   6.834  0.00  0.00    +0.149 HD
ENDROOT
BRANCH   1   5
ATOM      5  C   UNL     1       3.073  -1.214   5.697  0.00  0.00    +0.093 C 
BRANCH   5   6
ATOM      6  C   UNL     1       2.712  -2.171   4.559  0.00  0.00    -0.021 C 
BRANCH   6  10
ATOM      7  C   UNL     1       6.172  -4.405   3.425  0.00  0.00    -0.048 A 
ATOM      8  C   UNL     1       5.221  -4.975   4.252  0.00  0.00    +0.004 A 
ATOM      9  C   UNL     1       4.102  -4.251   4.619  0.00  0.00    +0.002 A 
ATOM     10  C   UNL     1       3.933  -2.959   4.159  0.00  0.00    -0.059 A 
ATOM     11  C   UNL     1       4.884  -2.389   3.333  0.00  0.00    +0.002 A 
ATOM     12  C   UNL     1       6.005  -3.111   2.970  0.00  0.00    +0.004 A 
BRANCH   7  14
ATOM     13  C   UNL     1       8.506  -4.963   4.048  0.00  0.00    +0.009 C 
ATOM     14  C   UNL     1       7.392  -5.194   3.025  0.00  0.00    +0.032 C 
ENDBRANCH   7  14
ENDBRANCH   6  10
BRANCH   6  15
ATOM     15  N   UNL     1       2.229  -1.399   3.405  0.00  0.00    +0.382 N 
ATOM     16  C   UNL     1       1.925  -2.314   2.297  0.00  0.00    -0.096 C 
ATOM     17  C   UNL     1       1.012  -0.666   3.782  0.00  0.00    -0.096 C 
ATOM     18  H   UNL     1       2.940  -0.745   3.116  0.00  0.00    -0.082 HD
ENDBRANCH   6  15
ENDBRANCH   5   6
ENDBRANCH   1   5
BRANCH   2  19
ATOM     19  C   UNL     1       4.134  -2.148   9.255  0.00  0.00    +0.160 C 
BRANCH  19  20
ATOM     20  N   UNL     1       4.390  -1.235  10.371  0.00  0.00    -0.300 N 
ATOM     21  C   UNL     1       4.262  -1.670  11.640  0.00  0.00    +0.245 C 
ATOM     22  O   UNL     1       3.933  -2.820  11.858  0.00  0.00    -0.270 OA
ATOM     23  H   UNL     1       4.652  -0.317  10.197  0.00  0.00    +0.150 HD
BRANCH  21  24
ATOM     24  C   UNL     1       4.521  -0.749  12.768  0.00  0.00    +0.039 A 
ATOM     25  C   UNL     1       4.892   0.574  12.520  0.00  0.00    +0.013 A 
ATOM     26  C   UNL     1       5.132   1.429  13.576  0.00  0.00    +0.003 A 
ATOM     27  C   UNL     1       5.005   0.977  14.878  0.00  0.00    +0.033 A 
ATOM     28  C   UNL     1       4.637  -0.333  15.130  0.00  0.00    +0.127 A 
ATOM     29  C   UNL     1       4.388  -1.196  14.083  0.00  0.00    +0.045 A 
BRANCH  28  30
ATOM     30  N   UNL     1       4.504  -0.807  16.526  0.00  0.00    +0.056 N 
ATOM     31  O   UNL     1       4.716  -0.050  17.444  0.00  0.00    -0.126 OA
ATOM     32  O   UNL     1       4.182  -1.951  16.747  0.00  0.00    -0.126 OA
ENDBRANCH  28  30
ENDBRANCH  21  24
ENDBRANCH  19  20
BRANCH  19  33
ATOM     33  C   UNL     1       5.400  -2.952   8.952  0.00  0.00    +0.042 C 
BRANCH  33  34
ATOM     34  C   UNL     1       5.729  -3.853  10.144  0.00  0.00    +0.071 C 
BRANCH  34  35
ATOM     35  S   UNL     1       7.230  -4.806   9.785  0.00  0.00    -0.164 S 
ATOM     36  C   UNL     1       7.480  -5.809  11.276  0.00  0.00    +0.084 C 
ENDBRANCH  34  35
ENDBRANCH  33  34
ENDBRANCH  19  33
ENDBRANCH   2  19
TORSDOF 12
