REMARK  Name = ZINC12211359
REMARK  7 active torsions:
REMARK  status: ('A' for Active; 'I' for Inactive)
REMARK    1  A    between atoms: C_1  and  S_2
REMARK    2  A    between atoms: S_2  and  C_3
REMARK    3  A    between atoms: N_16  and  C_17
REMARK    4  A    between atoms: C_17  and  C_18
REMARK    5  A    between atoms: C_18  and  C_19
REMARK    6  A    between atoms: C_22  and  S_25
REMARK    7  A    between atoms: S_25  and  N_28
REMARK                            x       y       z     vdW  Elec       q    Type
REMARK                         _______ _______ _______ _____ _____    ______ ____
ROOT
ATOM      1  C   UNL     1      -1.724  -0.449  -0.203  0.00  0.00    +0.191 A 
ATOM      2  N   UNL     1      -2.058  -1.734  -0.194  0.00  0.00    -0.206 NA
ATOM      3  C   UNL     1      -3.297  -2.136   0.028  0.00  0.00    +0.132 A 
ATOM      4  C   UNL     1      -4.311  -1.167   0.265  0.00  0.00    +0.051 A 
ATOM      5  C   UNL     1      -5.737  -1.378   0.529  0.00  0.00    -0.025 A 
ATOM      6  C   UNL     1      -6.493  -0.279   0.722  0.00  0.00    -0.004 A 
ATOM      7  S   UNL     1      -5.373   1.086   0.568  0.00  0.00    -0.073 S 
ATOM      8  C   UNL     1      -3.885   0.176   0.241  0.00  0.00    +0.115 A 
ATOM      9  N   UNL     1      -2.626   0.498   0.017  0.00  0.00    -0.215 NA
ATOM     10  C   UNL     1      -7.963  -0.228   1.005  0.00  0.00    +0.043 C 
ATOM     11  C   UNL     1      -8.569  -1.600   0.676  0.00  0.00    +0.005 C 
ATOM     12  C   UNL     1      -7.698  -2.686   1.315  0.00  0.00    +0.005 C 
ATOM     13  C   UNL     1      -6.357  -2.772   0.586  0.00  0.00    +0.037 C 
ATOM     14  N   UNL     1      -3.605  -3.485   0.029  0.00  0.00    -0.328 N 
ATOM     15  H   UNL     1      -4.528  -3.771   0.109  0.00  0.00    +0.147 HD
ENDROOT
BRANCH   1  17
ATOM     16  C   UNL     1      -0.064   1.819  -0.418  0.00  0.00    +0.093 C 
ATOM     17  S   UNL     1      -0.049   0.007  -0.507  0.00  0.00    -0.089 S 
ENDBRANCH   1  17
BRANCH  14  18
ATOM     18  C   UNL     1      -2.537  -4.480  -0.091  0.00  0.00    +0.107 C 
BRANCH  18  19
ATOM     19  C   UNL     1      -3.143  -5.885  -0.063  0.00  0.00    +0.054 C 
BRANCH  19  20
ATOM     20  C   UNL     1      -2.044  -6.909  -0.186  0.00  0.00    -0.046 A 
ATOM     21  C   UNL     1      -1.648  -7.350  -1.435  0.00  0.00    +0.005 A 
ATOM     22  C   UNL     1      -0.640  -8.289  -1.548  0.00  0.00    +0.029 A 
ATOM     23  C   UNL     1      -0.028  -8.787  -0.413  0.00  0.00    +0.105 A 
ATOM     24  C   UNL     1      -0.424  -8.345   0.836  0.00  0.00    +0.029 A 
ATOM     25  C   UNL     1      -1.429  -7.402   0.949  0.00  0.00    +0.005 A 
BRANCH  23  26
ATOM     26  S   UNL     1       1.256  -9.985  -0.557  0.00  0.00    +0.056 S 
ATOM     27  O   UNL     1       1.290 -10.694   0.674  0.00  0.00    -0.153 OA
ATOM     28  O   UNL     1       1.065 -10.636  -1.806  0.00  0.00    -0.153 OA
BRANCH  26  29
ATOM     29  N   UNL     1       2.687  -9.158  -0.667  0.00  0.00    -0.204 NA
ATOM     30  H   UNL     1       3.504  -9.556  -0.329  0.00  0.00    +0.144 HD
ATOM     31  H   UNL     1       2.707  -8.276  -1.070  0.00  0.00    +0.144 HD
ENDBRANCH  26  29
ENDBRANCH  23  26
ENDBRANCH  19  20
ENDBRANCH  18  19
ENDBRANCH  14  18
TORSDOF 6
