REMARK  Name = ZINC04873888
REMARK  9 active torsions:
REMARK  status: ('A' for Active; 'I' for Inactive)
REMARK    1  A    between atoms: C_1  and  C_2
REMARK    2  A    between atoms: C_3  and  N_22
REMARK    3  A    between atoms: C_4  and  C_21
REMARK    4  A    between atoms: N_5  and  C_7
REMARK    5  A    between atoms: C_7  and  C_8
REMARK    6  A    between atoms: C_8  and  C_9
REMARK    7  A    between atoms: C_9  and  C_10
REMARK    8  A    between atoms: N_12  and  C_13
REMARK    9  A    between atoms: C_18  and  O_19
REMARK                            x       y       z     vdW  Elec       q    Type
REMARK                         _______ _______ _______ _____ _____    ______ ____
ROOT
ATOM      1  C   UNL     1       3.626   6.011  -0.215  0.00  0.00    +0.098 C 
ENDROOT
BRANCH   1   2
ATOM      2  C   UNL     1       2.335   5.243  -0.093  0.00  0.00    +0.217 C 
ATOM      3  O   UNL     1       1.276   5.835  -0.081  0.00  0.00    -0.275 OA
ATOM      4  N   UNL     1       2.357   3.899   0.001  0.00  0.00    -0.283 N 
ATOM      5  H   UNL     1       3.204   3.430   0.056  0.00  0.00    +0.155 HD
BRANCH   4   6
ATOM      6  C   UNL     1       1.155   3.178   0.020  0.00  0.00    +0.076 A 
ATOM      7  C   UNL     1       0.034   3.712   0.637  0.00  0.00    +0.042 A 
ATOM      8  C   UNL     1      -1.151   2.998   0.654  0.00  0.00    +0.020 A 
ATOM      9  C   UNL     1      -1.222   1.755   0.052  0.00  0.00    +0.019 A 
ATOM     10  C   UNL     1      -0.106   1.215  -0.560  0.00  0.00    +0.048 A 
ATOM     11  C   UNL     1       1.084   1.923  -0.582  0.00  0.00    +0.138 A 
ATOM     12 BR   UNL     1      -2.679   3.728   1.496  0.00  0.00    -0.050 Br
BRANCH  11  13
ATOM     13  O   UNL     1       2.181   1.396  -1.188  0.00  0.00    -0.505 OA
ATOM     14  H   UNL     1       2.259   1.622  -2.126  0.00  0.00    +0.292 HD
ENDBRANCH  11  13
ENDBRANCH   4   6
ENDBRANCH   1   2
BRANCH   1  15
ATOM     15  C   UNL     1       3.322   7.508  -0.305  0.00  0.00    +0.032 C 
BRANCH  15  16
ATOM     16  C   UNL     1       4.633   8.288  -0.428  0.00  0.00    +0.144 C 
BRANCH  16  21
ATOM     17  C   UNL     1       3.608  12.820  -2.327  0.00  0.00    +0.070 C 
ATOM     18  C   UNL     1       3.894  11.694  -1.367  0.00  0.00    +0.090 A 
ATOM     19  C   UNL     1       3.964  11.802   0.026  0.00  0.00    +0.169 A 
ATOM     20  C   UNL     1       4.240  10.575   0.525  0.00  0.00    +0.067 A 
ATOM     21  N   UNL     1       4.342   9.721  -0.515  0.00  0.00    -0.266 N 
ATOM     22  N   UNL     1       4.126  10.448  -1.693  0.00  0.00    -0.174 NA
ATOM     23  C   UNL     1       4.405  10.225   1.982  0.00  0.00    +0.067 C 
BRANCH  19  24
ATOM     24  N   UNL     1       3.770  13.040   0.815  0.00  0.00    +0.060 N 
ATOM     25  O   UNL     1       4.723  13.754   1.071  0.00  0.00    -0.126 OA
ATOM     26  O   UNL     1       2.658  13.344   1.207  0.00  0.00    -0.126 OA
ENDBRANCH  19  24
ENDBRANCH  16  21
ENDBRANCH  15  16
ENDBRANCH   1  15
TORSDOF 7
