REMARK  Name = ZINC39711042
REMARK  10 active torsions:
REMARK  status: ('A' for Active; 'I' for Inactive)
REMARK    1  A    between atoms: C_1  and  C_2
REMARK    2  A    between atoms: C_4  and  C_39
REMARK    3  A    between atoms: C_9  and  C_14
REMARK    4  A    between atoms: C_14  and  C_16
REMARK    5  A    between atoms: C_14  and  N_26
REMARK    6  A    between atoms: N_21  and  C_22
REMARK    7  A    between atoms: C_22  and  C_23
REMARK    8  A    between atoms: C_22  and  C_24
REMARK    9  A    between atoms: C_22  and  C_25
REMARK   10  A    between atoms: N_29  and  C_32
REMARK                            x       y       z     vdW  Elec       q    Type
REMARK                         _______ _______ _______ _____ _____    ______ ____
ROOT
ATOM      1  C   UNL     1       1.104  -4.800   2.746  0.00  0.00    -0.011 C 
ENDROOT
BRANCH   1  10
ATOM      2  C   UNL     1      -0.328  -5.726  -4.189  0.00  0.00    +0.044 C 
ATOM      3  C   UNL     1      -0.708  -5.671  -2.732  0.00  0.00    -0.050 A 
ATOM      4  C   UNL     1      -1.850  -6.345  -2.298  0.00  0.00    +0.008 A 
ATOM      5  C   UNL     1      -2.255  -6.341  -1.001  0.00  0.00    -0.028 A 
ATOM      6  C   UNL     1      -1.521  -5.641  -0.026  0.00  0.00    +0.043 A 
ATOM      7  N   UNL     1      -1.928  -5.645   1.244  0.00  0.00    -0.284 N 
ATOM      8  C   UNL     1      -1.286  -5.008   2.209  0.00  0.00    +0.223 C 
ATOM      9  O   UNL     1      -1.706  -5.048   3.350  0.00  0.00    -0.275 OA
ATOM     10  C   UNL     1      -0.029  -4.232   1.889  0.00  0.00    +0.088 C 
ATOM     11  C   UNL     1       0.438  -4.225   0.447  0.00  0.00    -0.006 C 
ATOM     12  C   UNL     1      -0.311  -4.920  -0.456  0.00  0.00    -0.007 A 
ATOM     13  C   UNL     1       0.071  -4.971  -1.867  0.00  0.00    +0.012 A 
ATOM     14  C   UNL     1      -3.500  -7.092  -0.604  0.00  0.00    +0.046 C 
ATOM     15  H   UNL     1      -2.733  -6.137   1.470  0.00  0.00    +0.155 HD
ENDBRANCH   1  10
BRANCH   1  16
ATOM     16  N   UNL     1       0.915  -6.247   2.912  0.00  0.00    +0.387 N 
ATOM     17  C   UNL     1       1.917  -6.766   3.852  0.00  0.00    -0.059 C 
ATOM     18  C   UNL     1       1.649  -8.252   4.113  0.00  0.00    +0.086 C 
ATOM     19  N   UNL     1       1.609  -8.953   2.820  0.00  0.00    -0.333 N 
ATOM     20  C   UNL     1       0.751  -8.403   1.760  0.00  0.00    +0.086 C 
ATOM     21  C   UNL     1       1.061  -6.910   1.609  0.00  0.00    -0.059 C 
ATOM     22  H   UNL     1      -0.009  -6.425   3.276  0.00  0.00    -0.081 HD
BRANCH  19  23
ATOM     23  C   UNL     1       2.366 -10.109   2.606  0.00  0.00    +0.030 A 
ATOM     24  C   UNL     1       3.068 -10.685   3.657  0.00  0.00    +0.026 A 
ATOM     25  C   UNL     1       3.814 -11.828   3.443  0.00  0.00    +0.040 A 
ATOM     26  C   UNL     1       3.862 -12.399   2.182  0.00  0.00    +0.124 A 
ATOM     27  C   UNL     1       3.162 -11.826   1.134  0.00  0.00    +0.040 A 
ATOM     28  C   UNL     1       2.411 -10.687   1.344  0.00  0.00    +0.026 A 
ATOM     29  F   UNL     1       4.593 -13.516   1.976  0.00  0.00    -0.205 F 
ENDBRANCH  19  23
ENDBRANCH   1  16
BRANCH   1  30
ATOM     30  C   UNL     1       1.093  -4.124   4.119  0.00  0.00    +0.183 C 
ATOM     31  N   UNL     1      -0.216  -4.297   4.776  0.00  0.00    -0.229 N 
ATOM     32  N   UNL     1      -0.729  -3.007   4.954  0.00  0.00    -0.064 NA
ATOM     33  N   UNL     1       0.025  -2.135   4.531  0.00  0.00    -0.061 NA
ATOM     34  N   UNL     1       1.206  -2.660   3.981  0.00  0.00    -0.211 N 
ATOM     35  H   UNL     1      -0.636  -5.134   5.031  0.00  0.00    +0.172 HD
BRANCH  34  36
ATOM     36  C   UNL     1       2.319  -1.911   3.392  0.00  0.00    +0.047 C 
ATOM     37  C   UNL     1       2.398  -2.212   1.893  0.00  0.00    +0.033 C 
ATOM     38  C   UNL     1       2.093  -0.413   3.600  0.00  0.00    +0.033 C 
ATOM     39  C   UNL     1       3.627  -2.329   4.066  0.00  0.00    +0.033 C 
ENDBRANCH  34  36
ENDBRANCH   1  30
TORSDOF 5
