REMARK  Name = ZINC03864114
REMARK  10 active torsions:
REMARK  status: ('A' for Active; 'I' for Inactive)
REMARK    1  A    between atoms: C_1  and  C_2
REMARK    2  A    between atoms: C_3  and  C_30
REMARK    3  A    between atoms: C_5  and  C_28
REMARK    4  A    between atoms: C_7  and  C_10
REMARK    5  A    between atoms: N_12  and  C_13
REMARK    6  A    between atoms: C_14  and  C_22
REMARK    7  A    between atoms: C_22  and  O_24
REMARK    8  A    between atoms: O_24  and  C_25
REMARK    9  A    between atoms: C_25  and  C_26
REMARK   10  A    between atoms: C_25  and  C_27
REMARK                            x       y       z     vdW  Elec       q    Type
REMARK                         _______ _______ _______ _____ _____    ______ ____
ROOT
ATOM      1  C   UNL     1      -6.551   0.569   2.937  0.00  0.00    +0.222 C 
ATOM      2  O   UNL     1      -6.645   0.531   1.728  0.00  0.00    -0.275 OA
ATOM      3  N   UNL     1      -5.366   0.852   3.512  0.00  0.00    -0.279 N 
ATOM      4  H   UNL     1      -5.290   0.882   4.479  0.00  0.00    +0.155 HD
ENDROOT
BRANCH   3   5
ATOM      5  C   UNL     1      -4.254   1.100   2.723  0.00  0.00    +0.086 A 
ATOM      6  C   UNL     1      -2.961   1.406   3.125  0.00  0.00    +0.091 A 
ATOM      7  C   UNL     1      -1.968   1.622   2.086  0.00  0.00    -0.021 A 
ATOM      8  C   UNL     1      -2.424   1.499   0.820  0.00  0.00    -0.004 A 
ATOM      9  S   UNL     1      -4.140   1.102   0.994  0.00  0.00    -0.077 S 
ATOM     10  C   UNL     1      -1.637   1.665  -0.443  0.00  0.00    +0.043 C 
ATOM     11  C   UNL     1      -0.314   2.366  -0.101  0.00  0.00    +0.005 C 
ATOM     12  C   UNL     1       0.314   1.669   1.110  0.00  0.00    +0.005 C 
ATOM     13  C   UNL     1      -0.511   1.964   2.364  0.00  0.00    +0.037 C 
BRANCH   6  14
ATOM     14  C   UNL     1      -2.610   1.507   4.543  0.00  0.00    +0.342 C 
ATOM     15  O   UNL     1      -2.702   2.575   5.118  0.00  0.00    -0.245 OA
BRANCH  14  16
ATOM     16  O   UNL     1      -2.184   0.416   5.212  0.00  0.00    -0.458 OA
BRANCH  16  17
ATOM     17  C   UNL     1      -1.855   0.590   6.615  0.00  0.00    +0.171 C 
ATOM     18  C   UNL     1      -3.101   0.340   7.467  0.00  0.00    +0.052 C 
ATOM     19  C   UNL     1      -0.760  -0.404   7.009  0.00  0.00    +0.052 C 
ENDBRANCH  16  17
ENDBRANCH  14  16
ENDBRANCH   6  14
ENDBRANCH   3   5
BRANCH   1  25
ATOM     20  C   UNL     1      -8.674  -2.281   6.530  0.00  0.00    +0.039 C 
ATOM     21  C   UNL     1      -8.775  -1.363   5.339  0.00  0.00    -0.073 C 
ATOM     22  C   UNL     1      -9.956  -1.003   4.949  0.00  0.00    -0.073 C 
ATOM     23  C   UNL     1     -10.216  -0.087   3.789  0.00  0.00    +0.046 C 
ATOM     24  C   UNL     1      -8.972   0.005   2.902  0.00  0.00    +0.118 C 
ATOM     25  C   UNL     1      -7.760   0.299   3.796  0.00  0.00    +0.093 C 
ATOM     26  C   UNL     1      -7.501  -0.924   4.678  0.00  0.00    +0.044 C 
ATOM     27  C   UNL     1     -11.144  -1.535   5.709  0.00  0.00    +0.039 C 
BRANCH  24  28
ATOM     28  C   UNL     1      -9.142   1.116   1.898  0.00  0.00    +0.360 C 
ATOM     29  O   UNL     1      -8.374   2.049   1.894  0.00  0.00    -0.246 OA
ATOM     30  O   UNL     1     -10.146   1.069   1.009  0.00  0.00    -0.246 OA
ENDBRANCH  24  28
ENDBRANCH   1  25
TORSDOF 6
