REMARK  Name = ZINC39609037
REMARK  7 active torsions:
REMARK  status: ('A' for Active; 'I' for Inactive)
REMARK    1  A    between atoms: C_1  and  C_2
REMARK    2  A    between atoms: C_6  and  C_9
REMARK    3  A    between atoms: C_13  and  C_22
REMARK    4  A    between atoms: N_24  and  C_25
REMARK    5  A    between atoms: C_30  and  O_32
REMARK    6  A    between atoms: O_32  and  C_33
REMARK    7  A    between atoms: C_33  and  C_34
REMARK                            x       y       z     vdW  Elec       q    Type
REMARK                         _______ _______ _______ _____ _____    ______ ____
ROOT
ATOM      1  C   UNL     1      -0.089  -2.610   2.279  0.00  0.00    +0.252 C 
ATOM      2  O   UNL     1       1.017  -2.826   2.737  0.00  0.00    -0.270 OA
ATOM      3  N   UNL     1      -1.185  -3.052   2.926  0.00  0.00    -0.296 N 
ATOM      4  C   UNL     1      -2.603  -2.893   2.525  0.00  0.00    +0.121 C 
ATOM      5  C   UNL     1      -3.264  -4.243   2.884  0.00  0.00    +0.100 C 
ATOM      6  C   UNL     1      -2.369  -4.837   3.984  0.00  0.00    -0.004 C 
ATOM      7  C   UNL     1      -1.245  -3.814   4.196  0.00  0.00    +0.115 C 
ATOM      8  C   UNL     1      -1.783  -6.169   3.527  0.00  0.00    -0.010 C 
ATOM      9  C   UNL     1      -0.943  -6.768   4.659  0.00  0.00    -0.082 C 
ATOM     10  N   UNL     1      -1.786  -6.963   5.845  0.00  0.00    +0.379 N 
ATOM     11  C   UNL     1      -2.272  -5.667   6.333  0.00  0.00    -0.082 C 
ATOM     12  C   UNL     1      -3.167  -5.022   5.272  0.00  0.00    -0.010 C 
ATOM     13  H   UNL     1      -2.574  -7.547   5.603  0.00  0.00    -0.086 HD
ATOM     14  H   UNL     1      -1.247  -7.414   6.569  0.00  0.00    -0.086 HD
ENDROOT
BRANCH   1  20
ATOM     15  C   UNL     1      -0.613   1.725  -0.143  0.00  0.00    +0.047 C 
ATOM     16  C   UNL     1      -0.483   0.224  -0.158  0.00  0.00    -0.014 A 
ATOM     17  C   UNL     1      -0.496  -0.458  -1.362  0.00  0.00    +0.009 A 
ATOM     18  C   UNL     1      -0.377  -1.835  -1.387  0.00  0.00    +0.039 A 
ATOM     19  C   UNL     1      -0.244  -2.543  -0.207  0.00  0.00    +0.138 A 
ATOM     20  C   UNL     1      -0.230  -1.862   1.014  0.00  0.00    +0.107 A 
ATOM     21  C   UNL     1      -0.345  -0.468   1.030  0.00  0.00    +0.141 A 
ATOM     22  F   UNL     1      -0.326   0.200   2.205  0.00  0.00    -0.204 F 
ATOM     23  F   UNL     1      -0.129  -3.889  -0.234  0.00  0.00    -0.205 F 
ENDBRANCH   1  20
BRANCH   5  24
ATOM     24  C   UNL     1      -3.292  -5.150   1.681  0.00  0.00    +0.218 C 
ATOM     25  O   UNL     1      -2.423  -5.068   0.839  0.00  0.00    -0.275 OA
ATOM     26  N   UNL     1      -4.283  -6.052   1.540  0.00  0.00    -0.310 N 
ATOM     27  H   UNL     1      -4.979  -6.118   2.213  0.00  0.00    +0.149 HD
BRANCH  26  28
ATOM     28  C   UNL     1      -4.311  -6.934   0.370  0.00  0.00    +0.102 C 
ATOM     29  C   UNL     1      -5.046  -6.244  -0.793  0.00  0.00    +0.025 C 
ATOM     30  C   UNL     1      -6.260  -7.132  -1.135  0.00  0.00    +0.004 C 
ATOM     31  C   UNL     1      -5.861  -8.537  -0.619  0.00  0.00    +0.033 C 
ATOM     32  C   UNL     1      -5.103  -8.217   0.694  0.00  0.00    +0.139 C 
BRANCH  32  33
ATOM     33  O   UNL     1      -4.213  -9.283   1.031  0.00  0.00    -0.370 OA
BRANCH  33  34
ATOM     34  C   UNL     1      -4.761 -10.230   1.950  0.00  0.00    +0.195 C 
BRANCH  34  35
ATOM     35  C   UNL     1      -3.742 -11.303   2.233  0.00  0.00    -0.022 A 
ATOM     36  C   UNL     1      -3.695 -12.437   1.444  0.00  0.00    +0.006 A 
ATOM     37  C   UNL     1      -2.760 -13.422   1.703  0.00  0.00    +0.000 A 
ATOM     38  C   UNL     1      -1.873 -13.273   2.752  0.00  0.00    +0.000 A 
ATOM     39  C   UNL     1      -1.919 -12.139   3.541  0.00  0.00    +0.000 A 
ATOM     40  C   UNL     1      -2.851 -11.152   3.279  0.00  0.00    +0.006 A 
ENDBRANCH  34  35
ENDBRANCH  33  34
ENDBRANCH  32  33
ENDBRANCH  26  28
ENDBRANCH   5  24
TORSDOF 6
