REMARK  Name = ZINC63686415
REMARK  10 active torsions:
REMARK  status: ('A' for Active; 'I' for Inactive)
REMARK    1  A    between atoms: C_1  and  C_2
REMARK    2  A    between atoms: C_7  and  O_8
REMARK    3  A    between atoms: O_8  and  C_9
REMARK    4  A    between atoms: C_9  and  C_10
REMARK    5  A    between atoms: C_13  and  S_17
REMARK    6  A    between atoms: N_15  and  C_16
REMARK    7  A    between atoms: S_17  and  C_18
REMARK    8  A    between atoms: C_18  and  C_19
REMARK    9  A    between atoms: C_23  and  C_31
REMARK   10  A    between atoms: C_25  and  C_30
REMARK                            x       y       z     vdW  Elec       q    Type
REMARK                         _______ _______ _______ _____ _____    ______ ____
ROOT
ATOM      1  C   UNL     1       0.740   0.577   6.043  0.00  0.00    +0.155 C 
ATOM      2  N   UNL     1       0.722   1.856   6.126  0.00  0.00    -0.170 NA
ATOM      3  N   UNL     1       0.521   2.285   7.443  0.00  0.00    -0.238 N 
ATOM      4  C   UNL     1       0.403   1.063   8.258  0.00  0.00    +0.237 C 
ATOM      5  N   UNL     1       0.550  -0.026   7.277  0.00  0.00    -0.290 N 
ATOM      6  C   UNL     1       0.507  -1.465   7.552  0.00  0.00    +0.133 C 
ATOM      7  H   UNL     1       0.469   3.202   7.757  0.00  0.00    +0.171 HD
ENDROOT
BRANCH   1   8
ATOM      8  C   UNL     1       0.939  -0.182   4.756  0.00  0.00    +0.302 C 
BRANCH   8   9
ATOM      9  O   UNL     1       1.104   0.743   3.679  0.00  0.00    -0.484 OA
BRANCH   9  16
ATOM     10  C   UNL     1       1.433   2.553   1.536  0.00  0.00    +0.047 C 
ATOM     11  C   UNL     1       1.463   1.058   1.349  0.00  0.00    -0.009 A 
ATOM     12  C   UNL     1       1.663   0.522   0.091  0.00  0.00    +0.007 A 
ATOM     13  C   UNL     1       1.689  -0.849  -0.082  0.00  0.00    +0.000 A 
ATOM     14  C   UNL     1       1.517  -1.688   1.004  0.00  0.00    +0.004 A 
ATOM     15  C   UNL     1       1.317  -1.158   2.264  0.00  0.00    +0.046 A 
ATOM     16  C   UNL     1       1.295   0.218   2.440  0.00  0.00    +0.124 A 
ENDBRANCH   9  16
ENDBRANCH   8   9
ENDBRANCH   1   8
BRANCH   4  17
ATOM     17  S   UNL     1      -1.224   0.983   9.056  0.00  0.00    -0.112 S 
BRANCH  17  18
ATOM     18  C   UNL     1      -2.395   1.024   7.671  0.00  0.00    +0.125 C 
BRANCH  18  19
ATOM     19  C   UNL     1      -3.804   0.963   8.203  0.00  0.00    +0.030 A 
ATOM     20  N   UNL     1      -4.274  -0.220   8.668  0.00  0.00    -0.357 N 
ATOM     21  C   UNL     1      -5.551  -0.343   9.166  0.00  0.00    +0.051 A 
ATOM     22  C   UNL     1      -6.024  -1.563   9.641  0.00  0.00    +0.029 A 
ATOM     23  C   UNL     1      -7.308  -1.653  10.133  0.00  0.00    -0.048 A 
ATOM     24  C   UNL     1      -8.136  -0.539  10.161  0.00  0.00    +0.007 A 
ATOM     25  C   UNL     1      -7.691   0.669   9.700  0.00  0.00    -0.037 A 
ATOM     26  C   UNL     1      -6.394   0.781   9.197  0.00  0.00    +0.048 A 
ATOM     27  C   UNL     1      -5.874   2.063   8.690  0.00  0.00    +0.190 A 
ATOM     28  O   UNL     1      -6.564   3.069   8.694  0.00  0.00    -0.287 OA
ATOM     29  C   UNL     1      -4.546   2.089   8.203  0.00  0.00    +0.073 A 
ATOM     30  C   UNL     1      -8.597   1.873   9.733  0.00  0.00    +0.044 C 
ATOM     31  C   UNL     1      -7.819  -2.974  10.647  0.00  0.00    +0.044 C 
ATOM     32  H   UNL     1      -3.696  -0.999   8.648  0.00  0.00    +0.166 HD
ENDBRANCH  18  19
ENDBRANCH  17  18
ENDBRANCH   4  17
TORSDOF 6
