REMARK  Name = ZINC59283206
REMARK  5 active torsions:
REMARK  status: ('A' for Active; 'I' for Inactive)
REMARK    1  A    between atoms: C_3  and  N_20
REMARK    2  A    between atoms: C_4  and  C_16
REMARK    3  A    between atoms: C_6  and  N_7
REMARK    4  A    between atoms: C_8  and  C_10
REMARK    5  A    between atoms: C_21  and  C_23
REMARK                            x       y       z     vdW  Elec       q    Type
REMARK                         _______ _______ _______ _____ _____    ______ ____
ROOT
ATOM      1  C   UNL     1       0.208   1.325  -0.611  0.00  0.00    +0.025 A 
ATOM      2  C   UNL     1       1.384   2.049  -0.597  0.00  0.00    +0.025 A 
ATOM      3  C   UNL     1       2.528   1.504  -0.030  0.00  0.00    +0.045 A 
ATOM      4  C   UNL     1       2.491   0.230   0.522  0.00  0.00    +0.078 A 
ATOM      5  C   UNL     1       1.316  -0.494   0.508  0.00  0.00    +0.037 A 
ATOM      6  C   UNL     1       0.171   0.051  -0.059  0.00  0.00    +0.034 A 
ENDROOT
BRANCH   6   7
ATOM      7  N   UNL     1      -1.022  -0.683  -0.073  0.00  0.00    -0.283 N 
ATOM      8  C   UNL     1      -1.869  -0.572  -1.115  0.00  0.00    +0.246 C 
ATOM      9  O   UNL     1      -1.556   0.088  -2.084  0.00  0.00    -0.273 OA
ATOM     10  H   UNL     1      -1.237  -1.272   0.667  0.00  0.00    +0.155 HD
BRANCH   8  11
ATOM     11  C   UNL     1      -3.207  -1.266  -1.076  0.00  0.00    +0.204 C 
ATOM     12  C   UNL     1      -3.002  -2.796  -1.062  0.00  0.00    +0.043 C 
ATOM     13  C   UNL     1      -4.147  -3.290  -1.988  0.00  0.00    +0.031 C 
ATOM     14  C   UNL     1      -4.217  -2.130  -3.013  0.00  0.00    +0.161 C 
ATOM     15  O   UNL     1      -3.958  -0.938  -2.250  0.00  0.00    -0.367 OA
ENDBRANCH   8  11
ENDBRANCH   6   7
BRANCH   4  16
ATOM     16  C   UNL     1       3.733  -0.362   1.136  0.00  0.00    +0.419 C 
ATOM     17  F   UNL     1       3.448  -1.643   1.622  0.00  0.00    -0.166 F 
ATOM     18  F   UNL     1       4.739  -0.443   0.168  0.00  0.00    -0.166 F 
ATOM     19  F   UNL     1       4.165   0.451   2.190  0.00  0.00    -0.166 F 
ENDBRANCH   4  16
BRANCH   3  20
ATOM     20  N   UNL     1       3.721   2.238  -0.017  0.00  0.00    -0.285 N 
ATOM     21  C   UNL     1       3.684   3.585  -0.056  0.00  0.00    +0.223 C 
ATOM     22  O   UNL     1       2.622   4.159  -0.177  0.00  0.00    -0.275 OA
ATOM     23  H   UNL     1       4.574   1.778   0.021  0.00  0.00    +0.155 HD
BRANCH  21  24
ATOM     24  C   UNL     1       4.961   4.378   0.052  0.00  0.00    +0.048 C 
ATOM     25  C   UNL     1       5.894   4.000  -1.101  0.00  0.00    +0.019 C 
ATOM     26  C   UNL     1       7.190   4.805  -0.991  0.00  0.00    -0.009 C 
ATOM     27  C   UNL     1       6.871   6.299  -1.063  0.00  0.00    +0.007 C 
ATOM     28  C   UNL     1       5.938   6.677   0.090  0.00  0.00    -0.009 C 
ATOM     29  C   UNL     1       4.641   5.872  -0.019  0.00  0.00    +0.019 C 
ATOM     30  C   UNL     1       6.621   6.364   1.423  0.00  0.00    +0.007 C 
ATOM     31  C   UNL     1       6.941   4.870   1.494  0.00  0.00    -0.009 C 
ATOM     32  C   UNL     1       7.874   4.492   0.341  0.00  0.00    +0.007 C 
ATOM     33  C   UNL     1       5.644   4.065   1.385  0.00  0.00    +0.019 C 
ENDBRANCH  21  24
ENDBRANCH   3  20
TORSDOF 5
