REMARK  Name = ZINC01330031
REMARK  7 active torsions:
REMARK  status: ('A' for Active; 'I' for Inactive)
REMARK    1  A    between atoms: C_7  and  C_11
REMARK    2  A    between atoms: C_11  and  C_12
REMARK    3  A    between atoms: N_14  and  C_15
REMARK    4  A    between atoms: N_14  and  C_22
REMARK    5  A    between atoms: C_22  and  C_24
REMARK    6  A    between atoms: C_22  and  C_29
REMARK    7  A    between atoms: N_31  and  C_32
REMARK                            x       y       z     vdW  Elec       q    Type
REMARK                         _______ _______ _______ _____ _____    ______ ____
ROOT
ATOM      1  C   UNL     1      -1.717  -0.917  -1.380  0.00  0.00    +0.225 C 
ATOM      2  O   UNL     1      -1.222  -0.317  -2.312  0.00  0.00    -0.275 OA
ATOM      3  N   UNL     1      -2.691  -1.821  -1.602  0.00  0.00    -0.252 N 
ENDROOT
BRANCH   3   4
ATOM      4  C   UNL     1      -3.262  -2.513  -0.526  0.00  0.00    +0.073 A 
ATOM      5  C   UNL     1      -4.412  -2.029   0.081  0.00  0.00    +0.026 A 
ATOM      6  C   UNL     1      -4.973  -2.714   1.141  0.00  0.00    +0.002 A 
ATOM      7  C   UNL     1      -4.391  -3.882   1.599  0.00  0.00    +0.003 A 
ATOM      8  C   UNL     1      -3.245  -4.368   0.998  0.00  0.00    +0.040 A 
ATOM      9  C   UNL     1      -2.680  -3.690  -0.068  0.00  0.00    +0.145 A 
ATOM     10  F   UNL     1      -1.564  -4.168  -0.659  0.00  0.00    -0.204 F 
ENDBRANCH   3   4
BRANCH   1  11
ATOM     11  C   UNL     1      -1.241  -0.651   0.025  0.00  0.00    +0.133 C 
BRANCH  11  18
ATOM     12  C   UNL     1      -1.299   4.036   0.003  0.00  0.00    +0.001 A 
ATOM     13  C   UNL     1      -0.027   4.593  -0.025  0.00  0.00    +0.002 A 
ATOM     14  C   UNL     1       1.091   3.789  -0.043  0.00  0.00    +0.026 A 
ATOM     15  C   UNL     1       0.948   2.405  -0.034  0.00  0.00    +0.047 A 
ATOM     16  C   UNL     1      -0.343   1.846  -0.006  0.00  0.00    +0.003 A 
ATOM     17  C   UNL     1      -1.462   2.680   0.017  0.00  0.00    +0.010 A 
ATOM     18  C   UNL     1      -0.155   0.394  -0.002  0.00  0.00    -0.014 A 
ATOM     19  C   UNL     1       1.169   0.169  -0.027  0.00  0.00    +0.087 A 
ATOM     20  N   UNL     1       1.843   1.359  -0.046  0.00  0.00    -0.360 N 
ATOM     21  H   UNL     1       2.809   1.452  -0.066  0.00  0.00    +0.165 HD
ENDBRANCH  11  18
ENDBRANCH   1  11
BRANCH   3  22
ATOM     22  C   UNL     1      -3.154  -2.080  -2.967  0.00  0.00    +0.204 C 
BRANCH  22  23
ATOM     23  C   UNL     1      -2.034  -2.688  -3.771  0.00  0.00    +0.019 A 
ATOM     24  C   UNL     1      -2.084  -3.687  -4.685  0.00  0.00    +0.013 A 
ATOM     25  C   UNL     1      -0.915  -4.087  -5.306  0.00  0.00    +0.008 A 
ATOM     26  C   UNL     1       0.246  -3.468  -4.982  0.00  0.00    +0.045 A 
ATOM     27  S   UNL     1      -0.297  -2.275  -3.770  0.00  0.00    -0.099 S 
ENDBRANCH  22  23
BRANCH  22  28
ATOM     28  C   UNL     1      -3.584  -0.784  -3.606  0.00  0.00    +0.239 C 
ATOM     29  O   UNL     1      -3.468   0.259  -2.998  0.00  0.00    -0.273 OA
ATOM     30  N   UNL     1      -4.096  -0.785  -4.853  0.00  0.00    -0.311 N 
ATOM     31  H   UNL     1      -4.188  -1.619  -5.339  0.00  0.00    +0.149 HD
BRANCH  30  32
ATOM     32  C   UNL     1      -4.514   0.475  -5.473  0.00  0.00    +0.073 C 
ATOM     33  C   UNL     1      -5.944   0.806  -5.044  0.00  0.00    +0.022 C 
ATOM     34  C   UNL     1      -6.380   2.121  -5.692  0.00  0.00    +0.002 C 
ATOM     35  C   UNL     1      -6.325   1.982  -7.215  0.00  0.00    +0.000 C 
ATOM     36  C   UNL     1      -4.894   1.651  -7.645  0.00  0.00    +0.002 C 
ATOM     37  C   UNL     1      -4.458   0.336  -6.996  0.00  0.00    +0.022 C 
ENDBRANCH  30  32
ENDBRANCH  22  28
ENDBRANCH   3  22
TORSDOF 7
