REMARK  Name = ZINC09277758
REMARK  9 active torsions:
REMARK  status: ('A' for Active; 'I' for Inactive)
REMARK    1  A    between atoms: C_1  and  C_2
REMARK    2  A    between atoms: C_2  and  O_3
REMARK    3  A    between atoms: O_3  and  C_4
REMARK    4  A    between atoms: C_7  and  N_10
REMARK    5  A    between atoms: C_23  and  S_24
REMARK    6  A    between atoms: S_24  and  C_25
REMARK    7  A    between atoms: C_25  and  C_26
REMARK    8  A    between atoms: N_28  and  C_29
REMARK    9  A    between atoms: C_29  and  C_30
REMARK                            x       y       z     vdW  Elec       q    Type
REMARK                         _______ _______ _______ _____ _____    ______ ____
ROOT
ATOM      1  N   UNL     1      -2.014  -6.005  -0.213  0.00  0.00    -0.233 N 
ATOM      2  C   UNL     1      -3.174  -6.656   0.081  0.00  0.00    +0.126 C 
ATOM      3  C   UNL     1      -4.453  -6.072   0.201  0.00  0.00    +0.040 C 
ATOM      4  C   UNL     1      -4.777  -4.707   0.146  0.00  0.00    +0.123 C 
ATOM      5  N   UNL     1      -6.073  -4.556   0.299  0.00  0.00    -0.254 NA
ATOM      6  C   UNL     1      -6.704  -5.731   0.461  0.00  0.00    +0.072 A 
ATOM      7  C   UNL     1      -5.735  -6.761   0.404  0.00  0.00    +0.012 A 
ATOM      8  C   UNL     1      -6.121  -8.092   0.538  0.00  0.00    +0.011 A 
ATOM      9  C   UNL     1      -7.440  -8.398   0.722  0.00  0.00    +0.001 A 
ATOM     10  C   UNL     1      -8.399  -7.393   0.775  0.00  0.00    +0.002 A 
ATOM     11  C   UNL     1      -8.048  -6.080   0.654  0.00  0.00    +0.028 A 
ATOM     12  N   UNL     1      -2.875  -7.962   0.235  0.00  0.00    -0.221 N 
ATOM     13  N   UNL     1      -1.496  -8.105   0.029  0.00  0.00    -0.158 NA
ATOM     14  C   UNL     1      -0.999  -6.931  -0.242  0.00  0.00    +0.184 C 
ATOM     15  H   UNL     1      -3.500  -8.672   0.450  0.00  0.00    +0.176 HD
ENDROOT
BRANCH   1  19
ATOM     16  C   UNL     1      -1.616  -1.913  -0.919  0.00  0.00    +0.121 A 
ATOM     17  C   UNL     1      -1.937  -2.769  -1.963  0.00  0.00    +0.047 A 
ATOM     18  C   UNL     1      -2.068  -4.123  -1.730  0.00  0.00    +0.027 A 
ATOM     19  C   UNL     1      -1.880  -4.629  -0.451  0.00  0.00    +0.042 A 
ATOM     20  C   UNL     1      -1.559  -3.772   0.594  0.00  0.00    +0.027 A 
ATOM     21  C   UNL     1      -1.422  -2.419   0.358  0.00  0.00    +0.047 A 
BRANCH  16  22
ATOM     22  O   UNL     1      -1.487  -0.580  -1.149  0.00  0.00    -0.492 OA
BRANCH  22  24
ATOM     23  C   UNL     1      -1.514   1.389  -2.551  0.00  0.00    +0.048 C 
ATOM     24  C   UNL     1      -1.701  -0.128  -2.488  0.00  0.00    +0.225 C 
ENDBRANCH  22  24
ENDBRANCH  16  22
ENDBRANCH   1  19
BRANCH  14  25
ATOM     25  S   UNL     1       0.695  -6.588  -0.585  0.00  0.00    -0.079 S 
BRANCH  25  26
ATOM     26  C   UNL     1       1.503  -8.209  -0.471  0.00  0.00    +0.172 C 
BRANCH  26  27
ATOM     27  C   UNL     1       2.976  -8.056  -0.746  0.00  0.00    +0.224 C 
ATOM     28  O   UNL     1       3.437  -6.962  -0.995  0.00  0.00    -0.275 OA
ATOM     29  N   UNL     1       3.783  -9.135  -0.716  0.00  0.00    -0.311 N 
ATOM     30  H   UNL     1       3.415 -10.010  -0.517  0.00  0.00    +0.149 HD
BRANCH  29  31
ATOM     31  C   UNL     1       5.216  -8.987  -0.984  0.00  0.00    +0.139 C 
BRANCH  31  32
ATOM     32  C   UNL     1       5.887 -10.333  -0.889  0.00  0.00    -0.030 A 
ATOM     33  C   UNL     1       6.388 -10.771   0.322  0.00  0.00    +0.008 A 
ATOM     34  C   UNL     1       7.003 -12.005   0.411  0.00  0.00    +0.038 A 
ATOM     35  C   UNL     1       7.117 -12.803  -0.715  0.00  0.00    +0.123 A 
ATOM     36  C   UNL     1       6.614 -12.364  -1.928  0.00  0.00    +0.038 A 
ATOM     37  C   UNL     1       5.995 -11.131  -2.013  0.00  0.00    +0.008 A 
ATOM     38  F   UNL     1       7.719 -14.010  -0.630  0.00  0.00    -0.205 F 
ENDBRANCH  31  32
ENDBRANCH  29  31
ENDBRANCH  26  27
ENDBRANCH  25  26
ENDBRANCH  14  25
TORSDOF 8
