REMARK  Name = ZINC22412281
REMARK  7 active torsions:
REMARK  status: ('A' for Active; 'I' for Inactive)
REMARK    1  A    between atoms: C_1  and  C_2
REMARK    2  A    between atoms: C_5  and  S_11
REMARK    3  A    between atoms: C_7  and  N_8
REMARK    4  A    between atoms: S_11  and  N_14
REMARK    5  A    between atoms: N_14  and  C_15
REMARK    6  A    between atoms: C_19  and  N_21
REMARK    7  A    between atoms: N_24  and  C_25
REMARK                            x       y       z     vdW  Elec       q    Type
REMARK                         _______ _______ _______ _____ _____    ______ ____
ROOT
ATOM      1  C   UNL     1      -1.869   1.931   0.418  0.00  0.00    +0.050 A 
ATOM      2  C   UNL     1      -0.556   1.556   0.675  0.00  0.00    +0.024 A 
ATOM      3  C   UNL     1       0.480   2.424   0.391  0.00  0.00    +0.004 A 
ATOM      4  C   UNL     1       0.215   3.670  -0.145  0.00  0.00    +0.023 A 
ATOM      5  C   UNL     1      -1.096   4.053  -0.400  0.00  0.00    +0.037 A 
ATOM      6  C   UNL     1      -2.139   3.184  -0.116  0.00  0.00    +0.047 A 
ENDROOT
BRANCH   5   7
ATOM      7  N   UNL     1      -1.364   5.315  -0.943  0.00  0.00    -0.269 N 
ATOM      8  C   UNL     1      -2.412   5.482  -1.773  0.00  0.00    +0.308 C 
ATOM      9  O   UNL     1      -3.066   4.521  -2.128  0.00  0.00    -0.252 OA
ATOM     10  N   UNL     1      -2.735   6.716  -2.210  0.00  0.00    -0.269 N 
ATOM     11  H   UNL     1      -0.719   6.170  -0.692  0.00  0.00    +0.156 HD
ATOM     12  H   UNL     1      -2.101   7.576  -1.947  0.00  0.00    +0.156 HD
BRANCH  10  13
ATOM     13  C   UNL     1      -3.876   6.903  -2.998  0.00  0.00    +0.035 A 
ATOM     14  C   UNL     1      -4.207   5.973  -3.975  0.00  0.00    +0.023 A 
ATOM     15  C   UNL     1      -5.337   6.157  -4.747  0.00  0.00    +0.002 A 
ATOM     16  C   UNL     1      -6.133   7.272  -4.556  0.00  0.00    +0.000 A 
ATOM     17  C   UNL     1      -5.803   8.203  -3.588  0.00  0.00    +0.002 A 
ATOM     18  C   UNL     1      -4.677   8.021  -2.809  0.00  0.00    +0.023 A 
ENDBRANCH  10  13
ENDBRANCH   5   7
BRANCH   1  19
ATOM     19  N   UNL     1      -2.917   1.051   0.700  0.00  0.00    -0.216 N 
ATOM     20  H   UNL     1      -3.724   0.903  -0.033  0.00  0.00    +0.174 HD
BRANCH  19  21
ATOM     21  S   UNL     1      -2.943   0.230   2.138  0.00  0.00    +0.072 S 
ATOM     22  O   UNL     1      -4.129  -0.552   2.137  0.00  0.00    -0.150 OA
ATOM     23  O   UNL     1      -1.653  -0.343   2.302  0.00  0.00    -0.150 OA
BRANCH  21  28
ATOM     24  C   UNL     1      -3.582   4.327   6.521  0.00  0.00    +0.046 C 
ATOM     25  C   UNL     1      -3.422   3.303   5.426  0.00  0.00    -0.020 A 
ATOM     26  C   UNL     1      -2.159   2.934   5.004  0.00  0.00    +0.007 A 
ATOM     27  C   UNL     1      -2.012   1.992   4.003  0.00  0.00    +0.029 A 
ATOM     28  C   UNL     1      -3.130   1.426   3.418  0.00  0.00    +0.111 A 
ATOM     29  C   UNL     1      -4.393   1.795   3.840  0.00  0.00    +0.061 A 
ATOM     30  C   UNL     1      -4.539   2.734   4.845  0.00  0.00    +0.131 A 
BRANCH  30  31
ATOM     31  N   UNL     1      -5.892   3.128   5.298  0.00  0.00    +0.057 N 
ATOM     32  O   UNL     1      -6.875   2.716   4.709  0.00  0.00    -0.126 OA
ATOM     33  O   UNL     1      -6.022   3.866   6.258  0.00  0.00    -0.126 OA
ENDBRANCH  30  31
ENDBRANCH  21  28
ENDBRANCH  19  21
ENDBRANCH   1  19
TORSDOF 6
