REMARK  Name = ZINC01806727
REMARK  7 active torsions:
REMARK  status: ('A' for Active; 'I' for Inactive)
REMARK    1  A    between atoms: C_4  and  C_7
REMARK    2  A    between atoms: C_8  and  C_38
REMARK    3  A    between atoms: C_11  and  S_13
REMARK    4  A    between atoms: S_13  and  C_14
REMARK    5  A    between atoms: C_26  and  N_28
REMARK    6  A    between atoms: N_28  and  S_29
REMARK    7  A    between atoms: S_29  and  C_32
REMARK                            x       y       z     vdW  Elec       q    Type
REMARK                         _______ _______ _______ _____ _____    ______ ____
ROOT
ATOM      1  C   UNL     1       2.907   3.947  -0.053  0.00  0.00    +0.108 C 
ATOM      2  C   UNL     1       3.541   3.347   1.178  0.00  0.00    -0.024 A 
ATOM      3  C   UNL     1       3.583   2.098   1.720  0.00  0.00    +0.005 A 
ATOM      4  C   UNL     1       4.281   1.868   2.908  0.00  0.00    +0.001 A 
ATOM      5  C   UNL     1       4.940   2.863   3.572  0.00  0.00    +0.008 A 
ATOM      6  C   UNL     1       4.916   4.162   3.041  0.00  0.00    -0.017 A 
ATOM      7  C   UNL     1       4.208   4.370   1.844  0.00  0.00    -0.009 A 
ATOM      8  C   UNL     1       4.119   5.615   1.230  0.00  0.00    -0.019 A 
ATOM      9  C   UNL     1       4.746   6.667   1.824  0.00  0.00    +0.006 A 
ATOM     10  C   UNL     1       5.455   6.485   3.014  0.00  0.00    +0.001 A 
ATOM     11  C   UNL     1       5.551   5.270   3.628  0.00  0.00    +0.008 A 
ATOM     12  C   UNL     1       3.288   5.444  -0.019  0.00  0.00    +0.125 C 
ENDROOT
BRANCH  12  13
ATOM     13  N   UNL     1       4.074   5.794  -1.204  0.00  0.00    -0.181 NA
ATOM     14  H   UNL     1       4.696   5.152  -1.581  0.00  0.00    +0.149 HD
BRANCH  13  15
ATOM     15  S   UNL     1       3.903   7.287  -1.900  0.00  0.00    +0.059 S 
ATOM     16  O   UNL     1       4.806   7.331  -2.996  0.00  0.00    -0.153 OA
ATOM     17  O   UNL     1       2.507   7.506  -2.053  0.00  0.00    -0.153 OA
BRANCH  15  18
ATOM     18  C   UNL     1       4.473   8.475  -0.730  0.00  0.00    +0.105 A 
ATOM     19  C   UNL     1       3.591   9.030   0.178  0.00  0.00    +0.028 A 
ATOM     20  C   UNL     1       4.039   9.959   1.098  0.00  0.00    +0.002 A 
ATOM     21  C   UNL     1       5.368  10.340   1.104  0.00  0.00    +0.000 A 
ATOM     22  C   UNL     1       6.249   9.790   0.193  0.00  0.00    +0.002 A 
ATOM     23  C   UNL     1       5.802   8.857  -0.725  0.00  0.00    +0.028 A 
ENDBRANCH  15  18
ENDBRANCH  13  15
ENDBRANCH  12  13
BRANCH   1  24
ATOM     24  S   UNL     1       1.108   3.756   0.012  0.00  0.00    -0.074 S 
BRANCH  24  29
ATOM     25  C   UNL     1      -0.905   4.744  -3.203  0.00  0.00    +0.102 A 
ATOM     26  C   UNL     1       0.138   5.023  -4.109  0.00  0.00    +0.119 A 
ATOM     27  N   UNL     1       1.396   4.898  -3.699  0.00  0.00    -0.145 NA
ATOM     28  N   UNL     1       1.656   4.527  -2.494  0.00  0.00    -0.122 NA
ATOM     29  C   UNL     1       0.689   4.259  -1.624  0.00  0.00    +0.211 A 
ATOM     30  N   UNL     1      -0.589   4.364  -1.967  0.00  0.00    -0.218 NA
BRANCH  25  34
ATOM     31  C   UNL     1      -4.970   5.109  -4.392  0.00  0.00    +0.000 A 
ATOM     32  C   UNL     1      -4.598   4.115  -3.503  0.00  0.00    +0.001 A 
ATOM     33  C   UNL     1      -3.280   3.992  -3.114  0.00  0.00    +0.010 A 
ATOM     34  C   UNL     1      -2.322   4.871  -3.618  0.00  0.00    +0.003 A 
ATOM     35  C   UNL     1      -2.703   5.874  -4.509  0.00  0.00    +0.010 A 
ATOM     36  C   UNL     1      -4.023   5.983  -4.895  0.00  0.00    +0.001 A 
ENDBRANCH  25  34
BRANCH  26  37
ATOM     37  C   UNL     1      -0.163   5.449  -5.495  0.00  0.00    +0.004 A 
ATOM     38  C   UNL     1      -1.268   4.925  -6.164  0.00  0.00    +0.010 A 
ATOM     39  C   UNL     1      -1.546   5.330  -7.454  0.00  0.00    +0.001 A 
ATOM     40  C   UNL     1      -0.725   6.245  -8.087  0.00  0.00    +0.000 A 
ATOM     41  C   UNL     1       0.377   6.764  -7.431  0.00  0.00    +0.001 A 
ATOM     42  C   UNL     1       0.662   6.371  -6.139  0.00  0.00    +0.010 A 
ENDBRANCH  26  37
ENDBRANCH  24  29
ENDBRANCH   1  24
TORSDOF 7
