REMARK  Name = ZINC01424259
REMARK  7 active torsions:
REMARK  status: ('A' for Active; 'I' for Inactive)
REMARK    1  A    between atoms: C_1  and  C_2
REMARK    2  A    between atoms: C_3  and  C_21
REMARK    3  A    between atoms: C_4  and  C_14
REMARK    4  A    between atoms: N_23  and  C_24
REMARK    5  A    between atoms: C_25  and  C_33
REMARK    6  A    between atoms: C_33  and  O_35
REMARK    7  A    between atoms: O_35  and  C_36
REMARK                            x       y       z     vdW  Elec       q    Type
REMARK                         _______ _______ _______ _____ _____    ______ ____
ROOT
ATOM      1  C   UNL     1      -0.018   1.503   0.010  0.00  0.00    +0.066 C 
ATOM      2  C   UNL     1       0.002  -0.004   0.002  0.00  0.00    +0.048 C 
ATOM      3  C   UNL     1      -1.185  -0.672   0.004  0.00  0.00    +0.047 C 
ATOM      4  C   UNL     1      -1.133  -2.189  -0.005  0.00  0.00    +0.094 C 
ATOM      5  C   UNL     1       0.255  -2.801  -0.017  0.00  0.00    +0.028 C 
ATOM      6  C   UNL     1       0.406  -4.137  -0.029  0.00  0.00    +0.162 C 
ATOM      7  C   UNL     1       1.772  -4.769  -0.040  0.00  0.00    +0.080 C 
ATOM      8  C   UNL     1       2.757  -3.832  -0.745  0.00  0.00    +0.014 C 
ATOM      9  C   UNL     1       2.756  -2.480  -0.026  0.00  0.00    +0.056 C 
ATOM     10  C   UNL     1       1.353  -1.924  -0.016  0.00  0.00    +0.049 C 
ATOM     11  N   UNL     1       1.175  -0.623  -0.013  0.00  0.00    -0.256 NA
ATOM     12  O   UNL     1      -0.687  -4.925  -0.032  0.00  0.00    -0.292 OA
ENDROOT
BRANCH   4  13
ATOM     13  C   UNL     1      -1.856  -2.693   1.217  0.00  0.00    -0.000 A 
ATOM     14  C   UNL     1      -1.419  -2.329   2.477  0.00  0.00    +0.007 A 
ATOM     15  C   UNL     1      -2.082  -2.792   3.599  0.00  0.00    +0.000 A 
ATOM     16  C   UNL     1      -3.182  -3.618   3.462  0.00  0.00    +0.003 A 
ATOM     17  C   UNL     1      -3.620  -3.983   2.203  0.00  0.00    +0.038 A 
ATOM     18  C   UNL     1      -2.960  -3.517   1.079  0.00  0.00    +0.127 A 
ATOM     19  F   UNL     1      -3.390  -3.869  -0.152  0.00  0.00    -0.205 F 
ENDBRANCH   4  13
BRANCH   3  20
ATOM     20  C   UNL     1      -2.414   0.019   0.015  0.00  0.00    +0.247 C 
ATOM     21  O   UNL     1      -2.428   1.237   0.023  0.00  0.00    -0.270 OA
ATOM     22  N   UNL     1      -3.574  -0.668   0.017  0.00  0.00    -0.275 N 
ATOM     23  H   UNL     1      -3.562  -1.638   0.011  0.00  0.00    +0.156 HD
BRANCH  22  24
ATOM     24  C   UNL     1      -4.780   0.010   0.028  0.00  0.00    +0.087 A 
ATOM     25  C   UNL     1      -6.060  -0.526   0.037  0.00  0.00    +0.091 A 
ATOM     26  C   UNL     1      -7.171   0.411   0.047  0.00  0.00    -0.021 A 
ATOM     27  C   UNL     1      -6.800   1.709   0.046  0.00  0.00    -0.004 A 
ATOM     28  S   UNL     1      -5.032   1.670   0.041  0.00  0.00    -0.077 S 
ATOM     29  C   UNL     1      -7.704   2.903   0.054  0.00  0.00    +0.043 C 
ATOM     30  C   UNL     1      -9.120   2.438  -0.317  0.00  0.00    +0.005 C 
ATOM     31  C   UNL     1      -9.472   1.206   0.520  0.00  0.00    +0.005 C 
ATOM     32  C   UNL     1      -8.639   0.008   0.059  0.00  0.00    +0.037 C 
BRANCH  25  33
ATOM     33  C   UNL     1      -6.282  -1.973   0.036  0.00  0.00    +0.342 C 
ATOM     34  O   UNL     1      -6.366  -2.576   1.089  0.00  0.00    -0.245 OA
BRANCH  33  35
ATOM     35  O   UNL     1      -6.393  -2.637  -1.133  0.00  0.00    -0.464 OA
ATOM     36  C   UNL     1      -6.608  -4.048  -1.060  0.00  0.00    +0.280 C 
ENDBRANCH  33  35
ENDBRANCH  25  33
ENDBRANCH  22  24
ENDBRANCH   3  20
TORSDOF 5
