REMARK  Name = ZINC15895307
REMARK  5 active torsions:
REMARK  status: ('A' for Active; 'I' for Inactive)
REMARK    1  A    between atoms: C_1  and  C_2
REMARK    2  A    between atoms: C_5  and  C_31
REMARK    3  A    between atoms: C_10  and  C_12
REMARK    4  A    between atoms: N_15  and  S_18
REMARK    5  A    between atoms: S_18  and  N_21
REMARK                            x       y       z     vdW  Elec       q    Type
REMARK                         _______ _______ _______ _____ _____    ______ ____
ROOT
ATOM      1  C   UNL     1       3.109  -2.098   1.356  0.00  0.00    +0.078 C 
ATOM      2  C   UNL     1       3.243  -1.263   0.081  0.00  0.00    +0.030 C 
ATOM      3  C   UNL     1       4.617  -0.585   0.062  0.00  0.00    +0.111 C 
ATOM      4  N   UNL     1       5.654  -1.613   0.221  0.00  0.00    -0.166 NA
ATOM      5  C   UNL     1       5.569  -2.531   1.366  0.00  0.00    +0.111 C 
ATOM      6  C   UNL     1       4.185  -3.187   1.371  0.00  0.00    +0.030 C 
ENDROOT
BRANCH   1  14
ATOM      7  C   UNL     1      -2.746  -2.994   3.122  0.00  0.00    +0.009 C 
ATOM      8  C   UNL     1      -1.292  -2.522   3.181  0.00  0.00    +0.004 C 
ATOM      9  C   UNL     1      -1.246  -1.069   3.661  0.00  0.00    +0.009 C 
ATOM     10  C   UNL     1       0.210  -0.606   3.751  0.00  0.00    +0.004 C 
ATOM     11  C   UNL     1       0.851  -0.676   2.362  0.00  0.00    +0.111 C 
ATOM     12  N   UNL     1       0.682  -2.036   1.831  0.00  0.00    -0.301 N 
ATOM     13  C   UNL     1      -0.668  -2.614   1.785  0.00  0.00    +0.111 C 
ATOM     14  C   UNL     1       1.746  -2.740   1.395  0.00  0.00    +0.219 C 
ATOM     15  O   UNL     1       1.605  -3.889   1.034  0.00  0.00    -0.275 OA
ATOM     16  C   UNL     1       0.256   0.835   4.264  0.00  0.00    +0.009 C 
ENDBRANCH   1  14
BRANCH   4  17
ATOM     17  S   UNL     1       6.894  -1.737  -0.869  0.00  0.00    +0.100 S 
ATOM     18  O   UNL     1       7.368  -3.075  -0.795  0.00  0.00    -0.141 OA
ATOM     19  O   UNL     1       6.429  -1.159  -2.081  0.00  0.00    -0.141 OA
BRANCH  17  20
ATOM     20  N   UNL     1       8.123  -0.770  -0.324  0.00  0.00    -0.166 NA
ATOM     21  C   UNL     1       8.199   0.642  -0.725  0.00  0.00    +0.116 C 
ATOM     22  C   UNL     1       9.584   0.911  -1.323  0.00  0.00    +0.082 C 
ATOM     23  C   UNL     1      10.659   0.478  -0.325  0.00  0.00    +0.173 C 
ATOM     24  C   UNL     1      10.534  -1.020  -0.040  0.00  0.00    +0.082 C 
ATOM     25  C   UNL     1       9.155  -1.305   0.575  0.00  0.00    +0.116 C 
ATOM     26  O   UNL     1      11.957   0.758  -0.866  0.00  0.00    -0.346 OA
ATOM     27  C   UNL     1      12.613   1.666   0.043  0.00  0.00    +0.191 C 
ATOM     28  C   UNL     1      11.848   1.446   1.371  0.00  0.00    +0.191 C 
ATOM     29  O   UNL     1      10.498   1.213   0.900  0.00  0.00    -0.346 OA
ENDBRANCH  17  20
ENDBRANCH   4  17
TORSDOF 3
