REMARK  Name = ZINC22609985
REMARK  4 active torsions:
REMARK  status: ('A' for Active; 'I' for Inactive)
REMARK    1  A    between atoms: C_1  and  C_2
REMARK    2  A    between atoms: C_5  and  C_31
REMARK    3  A    between atoms: C_6  and  N_8
REMARK    4  A    between atoms: C_9  and  C_11
REMARK                            x       y       z     vdW  Elec       q    Type
REMARK                         _______ _______ _______ _____ _____    ______ ____
ROOT
ATOM      1  C   UNL     1       7.248   3.749   1.496  0.00  0.00    +0.122 C 
ATOM      2  C   UNL     1       8.122   2.896   2.417  0.00  0.00    +0.114 C 
ATOM      3  C   UNL     1       7.952   1.440   2.073  0.00  0.00    +0.219 C 
ATOM      4  O   UNL     1       8.908   0.696   2.126  0.00  0.00    -0.275 OA
ATOM      5  N   UNL     1       6.753   0.956   1.707  0.00  0.00    -0.270 N 
ATOM      6  C   UNL     1       5.672   1.800   1.520  0.00  0.00    +0.138 A 
ATOM      7  C   UNL     1       5.861   3.167   1.435  0.00  0.00    +0.069 A 
ATOM      8  C   UNL     1       4.750   4.000   1.276  0.00  0.00    +0.258 A 
ATOM      9  O   UNL     1       4.884   5.212   1.206  0.00  0.00    -0.267 OA
ATOM     10  N   UNL     1       3.524   3.437   1.202  0.00  0.00    -0.295 N 
ATOM     11  H   UNL     1       2.634   4.072   1.083  0.00  0.00    +0.172 HD
ATOM     12  C   UNL     1       3.391   2.085   1.272  0.00  0.00    +0.200 A 
ATOM     13  N   UNL     1       4.434   1.298   1.431  0.00  0.00    -0.200 NA
ATOM     14  N   UNL     1       2.142   1.530   1.183  0.00  0.00    -0.301 N 
ATOM     15  C   UNL     1       1.422   2.042   0.010  0.00  0.00    +0.108 C 
ATOM     16  C   UNL     1      -0.015   1.515   0.022  0.00  0.00    +0.019 C 
ATOM     17  C   UNL     1       0.007  -0.016   0.002  0.00  0.00    +0.003 C 
ATOM     18  C   UNL     1       0.804  -0.522   1.208  0.00  0.00    +0.019 C 
ATOM     19  C   UNL     1       2.217   0.064   1.161  0.00  0.00    +0.108 C 
ATOM     20  H   UNL     1       6.620  -0.125   1.552  0.00  0.00    +0.156 HD
ENDROOT
BRANCH   1  22
ATOM     21  N   UNL     1       9.089   4.251  -0.078  0.00  0.00    -0.285 N 
ATOM     22  C   UNL     1       7.845   3.768   0.112  0.00  0.00    +0.225 C 
ATOM     23  O   UNL     1       7.206   3.350  -0.830  0.00  0.00    -0.275 OA
ATOM     24  H   UNL     1       9.633   4.713   0.758  0.00  0.00    +0.155 HD
BRANCH  21  30
ATOM     25  C   UNL     1       9.437   2.034  -4.452  0.00  0.00    +0.044 C 
ATOM     26  C   UNL     1       9.876   3.098  -3.480  0.00  0.00    -0.049 A 
ATOM     27  C   UNL     1      10.873   3.989  -3.834  0.00  0.00    +0.004 A 
ATOM     28  C   UNL     1      11.279   4.966  -2.944  0.00  0.00    +0.005 A 
ATOM     29  C   UNL     1      10.689   5.055  -1.698  0.00  0.00    -0.029 A 
ATOM     30  C   UNL     1       9.688   4.163  -1.339  0.00  0.00    +0.037 A 
ATOM     31  C   UNL     1       9.286   3.179  -2.234  0.00  0.00    +0.027 A 
ATOM     32  C   UNL     1      11.132   6.121  -0.729  0.00  0.00    +0.045 C 
ENDBRANCH  21  30
ENDBRANCH   1  22
TORSDOF 2
