REMARK  Name = ZINC09127518
REMARK  14 active torsions:
REMARK  status: ('A' for Active; 'I' for Inactive)
REMARK    1  A    between atoms: C_1  and  N_56
REMARK    2  A    between atoms: C_2  and  N_56
REMARK    3  A    between atoms: C_3  and  C_4
REMARK    4  A    between atoms: C_3  and  N_56
REMARK    5  A    between atoms: C_4  and  N_5
REMARK    6  A    between atoms: N_5  and  S_6
REMARK    7  A    between atoms: S_6  and  C_9
REMARK    8  A    between atoms: C_12  and  N_18
REMARK    9  A    between atoms: C_13  and  N_15
REMARK   10  A    between atoms: N_18  and  C_19
REMARK   11  A    between atoms: C_19  and  C_20
REMARK   12  A    between atoms: C_20  and  C_21
REMARK   13  A    between atoms: C_24  and  S_27
REMARK   14  A    between atoms: S_27  and  N_30
REMARK                            x       y       z     vdW  Elec       q    Type
REMARK                         _______ _______ _______ _____ _____    ______ ____
ROOT
ATOM      1  C   UNL     1      -1.155   3.263   0.001  0.00  0.00    +0.108 A 
ATOM      2  C   UNL     1      -1.289   1.887   0.002  0.00  0.00    +0.030 A 
ATOM      3  C   UNL     1      -0.167   1.082   0.023  0.00  0.00    +0.027 A 
ATOM      4  C   UNL     1       1.098   1.657   0.031  0.00  0.00    +0.058 A 
ATOM      5  C   UNL     1       1.229   3.040   0.024  0.00  0.00    +0.149 A 
ATOM      6  C   UNL     1       0.102   3.839   0.009  0.00  0.00    +0.063 A 
ENDROOT
BRANCH   1   7
ATOM      7  S   UNL     1      -2.589   4.286  -0.018  0.00  0.00    +0.058 S 
ATOM      8  O   UNL     1      -3.648   3.511   0.528  0.00  0.00    -0.153 OA
ATOM      9  O   UNL     1      -2.202   5.539   0.528  0.00  0.00    -0.153 OA
BRANCH   7  10
ATOM     10  N   UNL     1      -2.974   4.561  -1.606  0.00  0.00    -0.192 NA
ATOM     11  H   UNL     1      -2.921   5.459  -1.969  0.00  0.00    +0.148 HD
BRANCH  10  12
ATOM     12  C   UNL     1      -3.393   3.448  -2.461  0.00  0.00    +0.087 C 
BRANCH  12  13
ATOM     13  C   UNL     1      -4.038   3.998  -3.735  0.00  0.00    -0.063 C 
BRANCH  13  16
ATOM     14  C   UNL     1      -5.536   2.110  -3.960  0.00  0.00    -0.097 C 
ATOM     15  C   UNL     1      -4.863   3.362  -5.920  0.00  0.00    -0.097 C 
ATOM     16  N   UNL     1      -4.436   2.865  -4.596  0.00  0.00    +0.377 N 
ATOM     17  H   UNL     1      -3.630   2.240  -4.718  0.00  0.00    -0.083 HD
ENDBRANCH  13  16
ENDBRANCH  12  13
ENDBRANCH  10  12
ENDBRANCH   7  10
ENDBRANCH   1   7
BRANCH   5  18
ATOM     18  N   UNL     1       2.575   3.656   0.032  0.00  0.00    +0.058 N 
ATOM     19  O   UNL     1       2.690   4.864   0.139  0.00  0.00    -0.126 OA
ATOM     20  O   UNL     1       3.566   2.956  -0.067  0.00  0.00    -0.126 OA
ENDBRANCH   5  18
BRANCH   4  21
ATOM     21  N   UNL     1       2.235   0.846   0.045  0.00  0.00    -0.342 N 
ATOM     22  H   UNL     1       3.116   1.245  -0.034  0.00  0.00    +0.146 HD
BRANCH  21  23
ATOM     23  C   UNL     1       2.098  -0.606   0.180  0.00  0.00    +0.106 C 
BRANCH  23  24
ATOM     24  C   UNL     1       3.484  -1.253   0.168  0.00  0.00    +0.054 C 
BRANCH  24  25
ATOM     25  C   UNL     1       3.343  -2.747   0.307  0.00  0.00    -0.046 A 
ATOM     26  C   UNL     1       3.343  -3.328   1.561  0.00  0.00    +0.005 A 
ATOM     27  C   UNL     1       3.209  -4.698   1.688  0.00  0.00    +0.029 A 
ATOM     28  C   UNL     1       3.083  -5.488   0.561  0.00  0.00    +0.105 A 
ATOM     29  C   UNL     1       3.088  -4.907  -0.694  0.00  0.00    +0.029 A 
ATOM     30  C   UNL     1       3.218  -3.537  -0.821  0.00  0.00    +0.005 A 
BRANCH  28  31
ATOM     31  S   UNL     1       2.917  -7.234   0.723  0.00  0.00    +0.056 S 
ATOM     32  O   UNL     1       2.393  -7.473   2.022  0.00  0.00    -0.153 OA
ATOM     33  O   UNL     1       2.268  -7.691  -0.456  0.00  0.00    -0.153 OA
BRANCH  31  34
ATOM     34  N   UNL     1       4.443  -7.876   0.702  0.00  0.00    -0.204 NA
ATOM     35  H   UNL     1       5.213  -7.293   0.612  0.00  0.00    +0.144 HD
ATOM     36  H   UNL     1       4.567  -8.835   0.780  0.00  0.00    +0.144 HD
ENDBRANCH  31  34
ENDBRANCH  28  31
ENDBRANCH  24  25
ENDBRANCH  23  24
ENDBRANCH  21  23
ENDBRANCH   4  21
TORSDOF 12
