REMARK  Name = ZINC34974186
REMARK  12 active torsions:
REMARK  status: ('A' for Active; 'I' for Inactive)
REMARK    1  A    between atoms: C_1  and  C_2
REMARK    2  A    between atoms: C_6  and  C_33
REMARK    3  A    between atoms: C_7  and  N_8
REMARK    4  A    between atoms: N_11  and  C_12
REMARK    5  A    between atoms: N_11  and  C_25
REMARK    6  A    between atoms: C_12  and  C_13
REMARK    7  A    between atoms: C_13  and  C_14
REMARK    8  A    between atoms: C_14  and  C_15
REMARK    9  A    between atoms: C_15  and  C_16
REMARK   10  A    between atoms: C_16  and  C_17
REMARK   11  A    between atoms: C_17  and  N_18
REMARK   12  A    between atoms: C_25  and  C_26
REMARK                            x       y       z     vdW  Elec       q    Type
REMARK                         _______ _______ _______ _____ _____    ______ ____
ROOT
ATOM      1  N   UNL     1       0.230  -0.288   2.556  0.00  0.00    -0.269 N 
ATOM      2  C   UNL     1       0.017  -1.064   3.638  0.00  0.00    +0.307 C 
ATOM      3  O   UNL     1      -0.175  -2.257   3.502  0.00  0.00    -0.252 OA
ATOM      4  N   UNL     1       0.018  -0.518   4.870  0.00  0.00    -0.281 N 
ATOM      5  H   UNL     1       0.457   0.648   2.668  0.00  0.00    +0.156 HD
ENDROOT
BRANCH   1  12
ATOM      6  C   UNL     1       2.630  -0.842   1.130  0.00  0.00    +0.045 C 
ATOM      7  C   UNL     1       1.270  -1.119   0.541  0.00  0.00    -0.029 A 
ATOM      8  C   UNL     1       1.163  -1.663  -0.724  0.00  0.00    +0.005 A 
ATOM      9  C   UNL     1      -0.084  -1.918  -1.265  0.00  0.00    +0.001 A 
ATOM     10  C   UNL     1      -1.227  -1.629  -0.542  0.00  0.00    +0.005 A 
ATOM     11  C   UNL     1      -1.126  -1.084   0.723  0.00  0.00    -0.029 A 
ATOM     12  C   UNL     1       0.125  -0.834   1.272  0.00  0.00    +0.041 A 
ATOM     13  C   UNL     1      -2.372  -0.769   1.510  0.00  0.00    +0.045 C 
ENDBRANCH   1  12
BRANCH   4  14
ATOM     14  C   UNL     1      -0.214  -1.361   6.045  0.00  0.00    +0.110 C 
BRANCH  14  15
ATOM     15  C   UNL     1       1.123  -1.895   6.561  0.00  0.00    +0.019 C 
BRANCH  15  16
ATOM     16  C   UNL     1       0.881  -2.776   7.788  0.00  0.00    +0.002 C 
BRANCH  16  17
ATOM     17  C   UNL     1       2.219  -3.311   8.304  0.00  0.00    +0.002 C 
BRANCH  17  18
ATOM     18  C   UNL     1       1.977  -4.192   9.531  0.00  0.00    +0.019 C 
BRANCH  18  19
ATOM     19  C   UNL     1       3.314  -4.726  10.047  0.00  0.00    +0.103 C 
BRANCH  19  20
ATOM     20  N   UNL     1       3.082  -5.570  11.223  0.00  0.00    -0.331 N 
ATOM     21  C   UNL     1       4.156  -6.171  11.869  0.00  0.00    +0.096 A 
ATOM     22  C   UNL     1       5.449  -5.963  11.398  0.00  0.00    +0.041 A 
ATOM     23  C   UNL     1       6.508  -6.567  12.051  0.00  0.00    +0.005 A 
ATOM     24  C   UNL     1       6.237  -7.362  13.157  0.00  0.00    +0.018 A 
ATOM     25  C   UNL     1       4.930  -7.525  13.570  0.00  0.00    +0.084 A 
ATOM     26  N   UNL     1       3.940  -6.932  12.931  0.00  0.00    -0.350 N 
ATOM     27  H   UNL     1       2.180  -5.708  11.550  0.00  0.00    +0.147 HD
ATOM     28  H   UNL     1       3.031  -7.060  13.244  0.00  0.00    +0.166 HD
ENDBRANCH  19  20
ENDBRANCH  18  19
ENDBRANCH  17  18
ENDBRANCH  16  17
ENDBRANCH  15  16
ENDBRANCH  14  15
ENDBRANCH   4  14
BRANCH   4  29
ATOM     29  C   UNL     1       0.249   0.920   5.033  0.00  0.00    +0.147 C 
BRANCH  29  30
ATOM     30  C   UNL     1      -1.068   1.650   4.984  0.00  0.00    +0.005 A 
ATOM     31  C   UNL     1      -1.468   2.277   3.819  0.00  0.00    +0.008 A 
ATOM     32  C   UNL     1      -2.676   2.946   3.774  0.00  0.00    +0.000 A 
ATOM     33  C   UNL     1      -3.486   2.991   4.894  0.00  0.00    +0.003 A 
ATOM     34  C   UNL     1      -3.088   2.365   6.060  0.00  0.00    +0.038 A 
ATOM     35  C   UNL     1      -1.880   1.689   6.105  0.00  0.00    +0.128 A 
ATOM     36  F   UNL     1      -1.492   1.072   7.243  0.00  0.00    -0.205 F 
ENDBRANCH  29  30
ENDBRANCH   4  29
TORSDOF 10
