REMARK  Name = ZINC36270073
REMARK  9 active torsions:
REMARK  status: ('A' for Active; 'I' for Inactive)
REMARK    1  A    between atoms: C_1  and  C_2
REMARK    2  A    between atoms: C_4  and  C_31
REMARK    3  A    between atoms: C_6  and  S_8
REMARK    4  A    between atoms: S_8  and  C_9
REMARK    5  A    between atoms: C_9  and  C_10
REMARK    6  A    between atoms: C_13  and  C_16
REMARK    7  A    between atoms: N_18  and  N_19
REMARK    8  A    between atoms: C_20  and  C_21
REMARK    9  A    between atoms: C_25  and  N_27
REMARK                            x       y       z     vdW  Elec       q    Type
REMARK                         _______ _______ _______ _____ _____    ______ ____
ROOT
ATOM      1  C   UNL     1       0.056  -2.148   5.299  0.00  0.00    -0.037 A 
ATOM      2  C   UNL     1      -1.137  -2.447   5.933  0.00  0.00    +0.005 A 
ATOM      3  C   UNL     1      -1.131  -3.002   7.196  0.00  0.00    +0.013 A 
ATOM      4  C   UNL     1       0.083  -3.263   7.834  0.00  0.00    +0.038 A 
ATOM      5  C   UNL     1       1.283  -2.959   7.189  0.00  0.00    +0.013 A 
ATOM      6  C   UNL     1       1.262  -2.409   5.924  0.00  0.00    +0.005 A 
ENDROOT
BRANCH   4   7
ATOM      7  C   UNL     1       0.097  -3.857   9.187  0.00  0.00    +0.263 C 
ATOM      8  O   UNL     1      -0.950  -4.120   9.747  0.00  0.00    -0.268 OA
ATOM      9  N   UNL     1       1.270  -4.107   9.801  0.00  0.00    -0.203 N 
ATOM     10  H   UNL     1       2.106  -3.897   9.354  0.00  0.00    +0.178 HD
BRANCH   9  11
ATOM     11  N   UNL     1       1.284  -4.670  11.084  0.00  0.00    -0.187 NA
ATOM     12  C   UNL     1       2.414  -4.911  11.675  0.00  0.00    +0.138 C 
BRANCH  12  13
ATOM     13  C   UNL     1       2.429  -5.504  13.025  0.00  0.00    -0.003 A 
ATOM     14  C   UNL     1       1.227  -5.813  13.668  0.00  0.00    +0.011 A 
ATOM     15  C   UNL     1       1.248  -6.367  14.930  0.00  0.00    +0.023 A 
ATOM     16  C   UNL     1       2.455  -6.619  15.560  0.00  0.00    +0.071 A 
ATOM     17  C   UNL     1       3.649  -6.314  14.928  0.00  0.00    +0.145 A 
ATOM     18  C   UNL     1       3.643  -5.765  13.664  0.00  0.00    +0.043 A 
ATOM     19 CL   UNL     1       2.472  -7.317  17.150  0.00  0.00    -0.081 Cl
BRANCH  17  20
ATOM     20  N   UNL     1       4.935  -6.585  15.610  0.00  0.00    +0.058 N 
ATOM     21  O   UNL     1       5.979  -6.320  15.059  0.00  0.00    -0.126 OA
ATOM     22  O   UNL     1       4.942  -7.071  16.717  0.00  0.00    -0.126 OA
ENDBRANCH  17  20
ENDBRANCH  12  13
ENDBRANCH   9  11
ENDBRANCH   4   7
BRANCH   1  23
ATOM     23  C   UNL     1       0.041  -1.542   3.919  0.00  0.00    +0.112 C 
BRANCH  23  24
ATOM     24  S   UNL     1       0.053  -2.864   2.678  0.00  0.00    -0.081 S 
BRANCH  24  30
ATOM     25  C   UNL     1      -0.018   1.503   0.010  0.00  0.00    +0.066 C 
ATOM     26  C   UNL     1       0.002  -0.004   0.002  0.00  0.00    +0.043 A 
ATOM     27  C   UNL     1       0.006  -0.699  -1.198  0.00  0.00    +0.046 A 
ATOM     28  C   UNL     1       0.025  -2.084  -1.161  0.00  0.00    +0.043 A 
ATOM     29  N   UNL     1       0.039  -2.699   0.010  0.00  0.00    -0.227 NA
ATOM     30  C   UNL     1       0.035  -2.005   1.140  0.00  0.00    +0.189 A 
ATOM     31  N   UNL     1       0.022  -0.679   1.139  0.00  0.00    -0.227 NA
ATOM     32  C   UNL     1       0.029  -2.881  -2.440  0.00  0.00    +0.066 C 
ENDBRANCH  24  30
ENDBRANCH  23  24
ENDBRANCH   1  23
TORSDOF 7
