REMARK  Name = ZINC15184224
REMARK  6 active torsions:
REMARK  status: ('A' for Active; 'I' for Inactive)
REMARK    1  A    between atoms: C_5  and  C_7
REMARK    2  A    between atoms: C_7  and  N_8
REMARK    3  A    between atoms: N_8  and  C_9
REMARK    4  A    between atoms: C_9  and  C_10
REMARK    5  A    between atoms: C_10  and  C_11
REMARK    6  A    between atoms: C_11  and  N_12
REMARK                            x       y       z     vdW  Elec       q    Type
REMARK                         _______ _______ _______ _____ _____    ______ ____
ROOT
ATOM      1  C   UNL     1       1.780  -4.664   2.743  0.00  0.00    +0.000 C 
ENDROOT
BRANCH   1   2
ATOM      2  C   UNL     1       1.509  -4.149   1.328  0.00  0.00    -0.081 C 
BRANCH   2   3
ATOM      3  N   UNL     1       1.489  -2.680   1.337  0.00  0.00    +0.382 N 
ATOM      4  H   UNL     1       2.381  -2.334   1.655  0.00  0.00    -0.085 HD
ATOM      5  H   UNL     1       0.762  -2.357   1.957  0.00  0.00    -0.085 HD
BRANCH   3   6
ATOM      6  C   UNL     1       1.229  -2.186  -0.022  0.00  0.00    -0.046 C 
BRANCH   6  11
ATOM      7  C   UNL     1      -0.017   1.378   0.010  0.00  0.00    +0.000 A 
ATOM      8  C   UNL     1       1.171   2.086   0.002  0.00  0.00    +0.001 A 
ATOM      9  C   UNL     1       2.377   1.412  -0.013  0.00  0.00    +0.015 A 
ATOM     10  C   UNL     1       2.397   0.029  -0.021  0.00  0.00    +0.019 A 
ATOM     11  C   UNL     1       1.208  -0.679  -0.013  0.00  0.00    -0.050 A 
ATOM     12  C   UNL     1       0.002  -0.004   0.002  0.00  0.00    +0.003 A 
ATOM     13 BR   UNL     1       4.047  -0.894  -0.042  0.00  0.00    -0.050 Br
ENDBRANCH   6  11
ENDBRANCH   3   6
ENDBRANCH   2   3
ENDBRANCH   1   2
BRANCH   1  14
ATOM     14  C   UNL     1       1.801  -6.194   2.734  0.00  0.00    +0.116 C 
BRANCH  14  15
ATOM     15  N   UNL     1       2.060  -6.686   4.089  0.00  0.00    -0.224 N 
ATOM     16  C   UNL     1       3.293  -6.921   4.589  0.00  0.00    +0.246 C 
ATOM     17  O   UNL     1       4.356  -6.770   4.025  0.00  0.00    -0.273 OA
ATOM     18  C   UNL     1       3.065  -7.409   5.997  0.00  0.00    +0.113 C 
ATOM     19  C   UNL     1       3.743  -6.485   7.017  0.00  0.00    +0.035 C 
ATOM     20  C   UNL     1       4.218  -7.447   8.136  0.00  0.00    +0.003 C 
ATOM     21  C   UNL     1       4.667  -8.701   7.345  0.00  0.00    +0.003 C 
ATOM     22  C   UNL     1       3.639  -8.814   6.197  0.00  0.00    +0.035 C 
ATOM     23  N   UNL     1       1.610  -7.398   6.157  0.00  0.00    -0.285 N 
ATOM     24  C   UNL     1       1.105  -6.955   4.989  0.00  0.00    +0.309 C 
ATOM     25  O   UNL     1      -0.084  -6.818   4.774  0.00  0.00    -0.252 OA
ATOM     26  H   UNL     1       1.110  -7.656   6.948  0.00  0.00    +0.151 HD
ENDBRANCH  14  15
ENDBRANCH   1  14
TORSDOF 6
