REMARK  Name = ZINC36067080
REMARK  5 active torsions:
REMARK  status: ('A' for Active; 'I' for Inactive)
REMARK    1  A    between atoms: C_2  and  C_13
REMARK    2  A    between atoms: C_3  and  N_10
REMARK    3  A    between atoms: C_13  and  C_15
REMARK    4  A    between atoms: C_13  and  N_24
REMARK    5  A    between atoms: N_17  and  C_18
REMARK                            x       y       z     vdW  Elec       q    Type
REMARK                         _______ _______ _______ _____ _____    ______ ____
ROOT
ATOM      1  C   UNL     1       0.774   3.014  -1.699  0.00  0.00    +0.176 C 
ENDROOT
BRANCH   1   3
ATOM      2  C   UNL     1      -0.312   0.953  -0.786  0.00  0.00    +0.057 A 
ATOM      3  C   UNL     1       0.817   1.744  -0.890  0.00  0.00    +0.012 A 
ATOM      4  C   UNL     1       1.986   1.371  -0.253  0.00  0.00    +0.135 A 
ATOM      5  C   UNL     1       2.030   0.206   0.491  0.00  0.00    +0.082 A 
ATOM      6  C   UNL     1       0.903  -0.590   0.599  0.00  0.00    +0.168 A 
ATOM      7  C   UNL     1      -0.275  -0.215  -0.043  0.00  0.00    +0.167 A 
ATOM      8  O   UNL     1      -1.231  -1.155   0.214  0.00  0.00    -0.453 OA
ATOM      9  C   UNL     1      -0.514  -2.314   0.680  0.00  0.00    +0.466 C 
ATOM     10  O   UNL     1       0.685  -1.765   1.259  0.00  0.00    -0.453 OA
BRANCH   4  11
ATOM     11  N   UNL     1       3.192   2.221  -0.367  0.00  0.00    +0.057 N 
ATOM     12  O   UNL     1       4.236   1.741  -0.744  0.00  0.00    -0.126 OA
ATOM     13  O   UNL     1       3.134   3.395  -0.085  0.00  0.00    -0.126 OA
ENDBRANCH   4  11
ENDBRANCH   1   3
BRANCH   1  14
ATOM     14  N   UNL     1       0.082   2.762  -2.970  0.00  0.00    -0.288 NA
ATOM     15  C   UNL     1       0.718   1.661  -3.706  0.00  0.00    +0.085 C 
ATOM     16  C   UNL     1      -0.111   1.330  -4.949  0.00  0.00    +0.015 C 
ATOM     17  C   UNL     1      -0.208   2.573  -5.837  0.00  0.00    +0.002 C 
ATOM     18  C   UNL     1      -0.829   3.719  -5.033  0.00  0.00    +0.015 C 
ATOM     19  C   UNL     1       0.021   3.980  -3.788  0.00  0.00    +0.085 C 
ENDBRANCH   1  14
BRANCH   1  20
ATOM     20  C   UNL     1       0.035   4.077  -0.928  0.00  0.00    +0.235 C 
ATOM     21  O   UNL     1      -1.172   4.158  -1.012  0.00  0.00    -0.274 OA
ATOM     22  N   UNL     1       0.715   4.937  -0.144  0.00  0.00    -0.311 N 
ATOM     23  H   UNL     1       1.668   4.819  -0.008  0.00  0.00    +0.149 HD
BRANCH  22  24
ATOM     24  C   UNL     1       0.016   6.051   0.501  0.00  0.00    +0.073 C 
ATOM     25  C   UNL     1      -0.069   7.231  -0.470  0.00  0.00    +0.022 C 
ATOM     26  C   UNL     1      -0.800   8.394   0.204  0.00  0.00    +0.002 C 
ATOM     27  C   UNL     1      -0.034   8.819   1.459  0.00  0.00    +0.000 C 
ATOM     28  C   UNL     1       0.051   7.639   2.429  0.00  0.00    +0.002 C 
ATOM     29  C   UNL     1       0.781   6.476   1.755  0.00  0.00    +0.022 C 
ENDBRANCH  22  24
ENDBRANCH   1  20
TORSDOF 5
