REMARK  Name = ZINC22578776
REMARK  10 active torsions:
REMARK  status: ('A' for Active; 'I' for Inactive)
REMARK    1  A    between atoms: C_1  and  C_2
REMARK    2  A    between atoms: C_2  and  N_3
REMARK    3  A    between atoms: N_3  and  C_4
REMARK    4  A    between atoms: N_3  and  C_6
REMARK    5  A    between atoms: C_4  and  C_5
REMARK    6  A    between atoms: C_6  and  C_7
REMARK    7  A    between atoms: C_10  and  N_13
REMARK    8  A    between atoms: N_13  and  C_14
REMARK    9  A    between atoms: C_14  and  N_16
REMARK   10  A    between atoms: C_17  and  C_19
REMARK                            x       y       z     vdW  Elec       q    Type
REMARK                         _______ _______ _______ _____ _____    ______ ____
ROOT
ATOM      1  N   UNL     1      -6.668  -3.129   0.250  0.00  0.00    -0.297 N 
ATOM      2  H   UNL     1      -6.831  -4.035  -0.054  0.00  0.00    +0.154 HD
ENDROOT
BRANCH   1   6
ATOM      3  C   UNL     1      -2.789  -1.611   0.281  0.00  0.00    -0.064 A 
ATOM      4  C   UNL     1      -3.646  -1.336   1.332  0.00  0.00    +0.003 A 
ATOM      5  C   UNL     1      -4.932  -1.838   1.324  0.00  0.00    +0.023 A 
ATOM      6  C   UNL     1      -5.365  -2.619   0.261  0.00  0.00    +0.033 A 
ATOM      7  C   UNL     1      -4.502  -2.893  -0.792  0.00  0.00    +0.023 A 
ATOM      8  C   UNL     1      -3.219  -2.384  -0.781  0.00  0.00    +0.003 A 
BRANCH   3   9
ATOM      9  C   UNL     1      -1.385  -1.061   0.293  0.00  0.00    -0.043 C 
BRANCH   9  10
ATOM     10  N   UNL     1      -1.342   0.185  -0.483  0.00  0.00    +0.382 N 
ATOM     11  H   UNL     1      -1.653   0.006  -1.426  0.00  0.00    -0.081 HD
BRANCH  10  13
ATOM     12  C   UNL     1      -2.273   2.436  -0.733  0.00  0.00    -0.017 C 
ATOM     13  C   UNL     1      -2.222   1.182   0.141  0.00  0.00    -0.082 C 
ENDBRANCH  10  13
BRANCH  10  14
ATOM     14  C   UNL     1       0.035   0.697  -0.511  0.00  0.00    -0.082 C 
ATOM     15  C   UNL     1       0.914  -0.250  -1.330  0.00  0.00    -0.017 C 
ENDBRANCH  10  14
ENDBRANCH   9  10
ENDBRANCH   3   9
ENDBRANCH   1   6
BRANCH   1  16
ATOM     16  C   UNL     1      -7.696  -2.361   0.663  0.00  0.00    +0.141 C 
ATOM     17  S   UNL     1      -7.428  -0.720   1.071  0.00  0.00    -0.018 S 
BRANCH  16  18
ATOM     18  N   UNL     1      -8.934  -2.884   0.753  0.00  0.00    -0.264 N 
ATOM     19  C   UNL     1      -9.962  -2.116   1.166  0.00  0.00    +0.251 C 
ATOM     20  O   UNL     1      -9.772  -0.952   1.456  0.00  0.00    -0.270 OA
ATOM     21  H   UNL     1      -9.086  -3.814   0.521  0.00  0.00    +0.157 HD
BRANCH  19  22
ATOM     22  C   UNL     1     -11.320  -2.690   1.265  0.00  0.00    +0.050 A 
ATOM     23  C   UNL     1     -11.541  -4.030   0.938  0.00  0.00    +0.014 A 
ATOM     24  C   UNL     1     -12.810  -4.559   1.033  0.00  0.00    +0.001 A 
ATOM     25  C   UNL     1     -13.865  -3.767   1.452  0.00  0.00    +0.001 A 
ATOM     26  C   UNL     1     -13.654  -2.439   1.777  0.00  0.00    +0.015 A 
ATOM     27  C   UNL     1     -12.387  -1.897   1.692  0.00  0.00    +0.025 A 
ATOM     28  I   UNL     1     -12.068   0.112   2.193  0.00  0.00    -0.043 I 
ENDBRANCH  19  22
ENDBRANCH  16  18
ENDBRANCH   1  16
TORSDOF 8
