REMARK  Name = ZINC06758892
REMARK  7 active torsions:
REMARK  status: ('A' for Active; 'I' for Inactive)
REMARK    1  A    between atoms: C_4  and  C_7
REMARK    2  A    between atoms: C_7  and  C_8
REMARK    3  A    between atoms: C_8  and  N_9
REMARK    4  A    between atoms: C_13  and  N_49
REMARK    5  A    between atoms: C_17  and  C_18
REMARK    6  A    between atoms: C_17  and  N_49
REMARK    7  A    between atoms: C_18  and  C_19
REMARK                            x       y       z     vdW  Elec       q    Type
REMARK                         _______ _______ _______ _____ _____    ______ ____
ROOT
ATOM      1  N   UNL     1       0.327   2.836  -5.295  0.00  0.00    -0.243 N 
ATOM      2  C   UNL     1       0.271   1.609  -5.825  0.00  0.00    +0.221 C 
ATOM      3  O   UNL     1       0.703   1.294  -6.914  0.00  0.00    -0.275 OA
ATOM      4  C   UNL     1      -0.415   0.676  -4.851  0.00  0.00    +0.090 C 
ATOM      5  C   UNL     1      -0.749   1.587  -3.653  0.00  0.00    +0.025 C 
ATOM      6  C   UNL     1      -0.220   2.941  -4.074  0.00  0.00    +0.208 C 
ATOM      7  O   UNL     1      -0.281   3.955  -3.412  0.00  0.00    -0.277 OA
ENDROOT
BRANCH   5   8
ATOM      8  N   UNL     1      -0.056   1.113  -2.440  0.00  0.00    +0.387 N 
ATOM      9  H   UNL     1       0.907   1.468  -2.439  0.00  0.00    -0.085 HD
ATOM     10  H   UNL     1      -0.042   0.086  -2.438  0.00  0.00    -0.085 HD
BRANCH   8  11
ATOM     11  C   UNL     1      -0.753   1.593  -1.232  0.00  0.00    -0.077 C 
BRANCH  11  12
ATOM     12  C   UNL     1      -0.013   1.086   0.008  0.00  0.00    +0.018 C 
BRANCH  12  13
ATOM     13  C   UNL     1      -0.718   1.572   1.248  0.00  0.00    -0.024 A 
ATOM     14  C   UNL     1      -0.420   2.672   1.957  0.00  0.00    +0.087 A 
ATOM     15  N   UNL     1      -1.277   2.791   3.017  0.00  0.00    -0.360 N 
ATOM     16  H   UNL     1      -1.258   3.506   3.671  0.00  0.00    +0.165 HD
ATOM     17  C   UNL     1      -2.171   1.743   3.016  0.00  0.00    +0.047 A 
ATOM     18  C   UNL     1      -1.863   0.937   1.904  0.00  0.00    +0.003 A 
ATOM     19  C   UNL     1      -2.618  -0.208   1.645  0.00  0.00    +0.010 A 
ATOM     20  C   UNL     1      -3.655  -0.539   2.471  0.00  0.00    +0.001 A 
ATOM     21  C   UNL     1      -3.964   0.255   3.567  0.00  0.00    +0.002 A 
ATOM     22  C   UNL     1      -3.228   1.385   3.846  0.00  0.00    +0.026 A 
ENDBRANCH  12  13
ENDBRANCH  11  12
ENDBRANCH   8  11
ENDBRANCH   5   8
BRANCH   1  23
ATOM     23  C   UNL     1       0.934   3.974  -5.991  0.00  0.00    +0.121 C 
BRANCH  23  24
ATOM     24  C   UNL     1      -0.130   4.686  -6.828  0.00  0.00    +0.054 C 
BRANCH  24  28
ATOM     25  C   UNL     1       1.638   8.003  -8.857  0.00  0.00    +0.000 A 
ATOM     26  C   UNL     1       1.611   6.759  -9.459  0.00  0.00    +0.000 A 
ATOM     27  C   UNL     1       1.039   5.685  -8.803  0.00  0.00    +0.004 A 
ATOM     28  C   UNL     1       0.494   5.856  -7.544  0.00  0.00    -0.046 A 
ATOM     29  C   UNL     1       0.515   7.101  -6.944  0.00  0.00    +0.004 A 
ATOM     30  C   UNL     1       1.091   8.174  -7.599  0.00  0.00    +0.000 A 
ENDBRANCH  24  28
ENDBRANCH  23  24
ENDBRANCH   1  23
TORSDOF 7
