REMARK  Name = ZINC08683858
REMARK  9 active torsions:
REMARK  status: ('A' for Active; 'I' for Inactive)
REMARK    1  A    between atoms: C_5  and  N_7
REMARK    2  A    between atoms: N_10  and  C_13
REMARK    3  A    between atoms: C_13  and  C_15
REMARK    4  A    between atoms: C_13  and  C_30
REMARK    5  A    between atoms: C_15  and  N_16
REMARK    6  A    between atoms: C_17  and  C_19
REMARK    7  A    between atoms: N_21  and  C_22
REMARK    8  A    between atoms: C_22  and  C_23
REMARK    9  A    between atoms: C_23  and  C_24
REMARK                            x       y       z     vdW  Elec       q    Type
REMARK                         _______ _______ _______ _____ _____    ______ ____
ROOT
ATOM      1  C   UNL     1       3.248  -5.722  -0.069  0.00  0.00    +0.017 C 
ENDROOT
BRANCH   1   5
ATOM      2  N   UNL     1       1.501  -1.931  -0.361  0.00  0.00    -0.331 N 
ATOM      3  C   UNL     1       1.460  -2.586   0.956  0.00  0.00    +0.086 C 
ATOM      4  C   UNL     1       2.518  -3.694   0.981  0.00  0.00    -0.059 C 
ATOM      5  N   UNL     1       2.303  -4.600  -0.154  0.00  0.00    +0.389 N 
ATOM      6  C   UNL     1       2.514  -3.880  -1.417  0.00  0.00    -0.059 C 
ATOM      7  C   UNL     1       1.450  -2.781  -1.560  0.00  0.00    +0.086 C 
ATOM      8  H   UNL     1       1.359  -4.956  -0.125  0.00  0.00    -0.081 HD
BRANCH   2  13
ATOM      9  C   UNL     1       0.502   1.597  -0.629  0.00  0.00    +0.002 A 
ATOM     10  C   UNL     1       1.737   2.216  -0.685  0.00  0.00    +0.003 A 
ATOM     11  C   UNL     1       2.895   1.463  -0.633  0.00  0.00    +0.040 A 
ATOM     12  C   UNL     1       2.822   0.086  -0.525  0.00  0.00    +0.144 A 
ATOM     13  C   UNL     1       1.581  -0.539  -0.469  0.00  0.00    +0.065 A 
ATOM     14  C   UNL     1       0.421   0.222  -0.521  0.00  0.00    +0.026 A 
ATOM     15  F   UNL     1       3.953  -0.650  -0.476  0.00  0.00    -0.204 F 
ENDBRANCH   2  13
ENDBRANCH   1   5
BRANCH   1  16
ATOM     16  C   UNL     1       3.037  -6.459   1.229  0.00  0.00    +0.093 A 
ATOM     17  C   UNL     1       4.006  -6.953   2.019  0.00  0.00    +0.043 A 
ATOM     18  C   UNL     1       3.364  -7.561   3.123  0.00  0.00    +0.041 A 
ATOM     19  C   UNL     1       2.041  -7.402   2.940  0.00  0.00    +0.195 A 
ATOM     20  O   UNL     1       1.849  -6.728   1.794  0.00  0.00    -0.469 OA
ENDBRANCH   1  16
BRANCH   1  21
ATOM     21  C   UNL     1       3.014  -6.676  -1.241  0.00  0.00    +0.097 C 
BRANCH  21  22
ATOM     22  N   UNL     1       1.612  -7.099  -1.255  0.00  0.00    -0.309 N 
ATOM     23  C   UNL     1       1.190  -8.007  -2.157  0.00  0.00    +0.299 C 
ATOM     24  O   UNL     1       1.972  -8.474  -2.959  0.00  0.00    -0.265 OA
ATOM     25  H   UNL     1       0.987  -6.726  -0.614  0.00  0.00    +0.149 HD
BRANCH  23  26
ATOM     26  C   UNL     1      -0.241  -8.438  -2.171  0.00  0.00    +0.299 C 
ATOM     27  O   UNL     1      -1.023  -7.971  -1.369  0.00  0.00    -0.265 OA
ATOM     28  N   UNL     1      -0.663  -9.346  -3.074  0.00  0.00    -0.307 N 
ATOM     29  H   UNL     1      -0.038  -9.719  -3.715  0.00  0.00    +0.149 HD
BRANCH  28  30
ATOM     30  C   UNL     1      -2.065  -9.768  -3.087  0.00  0.00    +0.109 C 
BRANCH  30  31
ATOM     31  C   UNL     1      -2.278 -10.797  -4.199  0.00  0.00    +0.049 C 
BRANCH  31  32
ATOM     32  C   UNL     1      -3.720 -11.232  -4.213  0.00  0.00    -0.072 C 
ATOM     33  C   UNL     1      -4.528 -10.632  -5.028  0.00  0.00    -0.028 C 
ATOM     34  C   UNL     1      -5.990 -10.947  -5.147  0.00  0.00    +0.027 C 
ATOM     35  C   UNL     1      -6.289 -12.309  -4.517  0.00  0.00    +0.004 C 
ATOM     36  C   UNL     1      -5.654 -12.348  -3.122  0.00  0.00    +0.005 C 
ATOM     37  C   UNL     1      -4.131 -12.338  -3.285  0.00  0.00    +0.030 C 
ENDBRANCH  31  32
ENDBRANCH  30  31
ENDBRANCH  28  30
ENDBRANCH  23  26
ENDBRANCH  21  22
ENDBRANCH   1  21
TORSDOF 9
