REMARK  Name = ZINC39711034
REMARK  10 active torsions:
REMARK  status: ('A' for Active; 'I' for Inactive)
REMARK    1  A    between atoms: C_1  and  C_2
REMARK    2  A    between atoms: C_4  and  C_38
REMARK    3  A    between atoms: C_9  and  C_14
REMARK    4  A    between atoms: C_14  and  C_16
REMARK    5  A    between atoms: C_14  and  N_26
REMARK    6  A    between atoms: N_21  and  C_22
REMARK    7  A    between atoms: C_22  and  C_23
REMARK    8  A    between atoms: C_22  and  C_24
REMARK    9  A    between atoms: C_22  and  C_25
REMARK   10  A    between atoms: N_29  and  C_32
REMARK                            x       y       z     vdW  Elec       q    Type
REMARK                         _______ _______ _______ _____ _____    ______ ____
ROOT
ATOM      1  C   UNL     1       1.104  -4.798   2.745  0.00  0.00    -0.011 C 
ENDROOT
BRANCH   1  10
ATOM      2  C   UNL     1      -0.333  -5.719  -4.190  0.00  0.00    +0.044 C 
ATOM      3  C   UNL     1      -0.712  -5.665  -2.732  0.00  0.00    -0.050 A 
ATOM      4  C   UNL     1      -1.853  -6.340  -2.298  0.00  0.00    +0.008 A 
ATOM      5  C   UNL     1      -2.257  -6.337  -1.001  0.00  0.00    -0.028 A 
ATOM      6  C   UNL     1      -1.523  -5.638  -0.026  0.00  0.00    +0.043 A 
ATOM      7  N   UNL     1      -1.929  -5.643   1.244  0.00  0.00    -0.284 N 
ATOM      8  C   UNL     1      -1.287  -5.006   2.209  0.00  0.00    +0.223 C 
ATOM      9  O   UNL     1      -1.706  -5.047   3.351  0.00  0.00    -0.275 OA
ATOM     10  C   UNL     1      -0.030  -4.229   1.889  0.00  0.00    +0.088 C 
ATOM     11  C   UNL     1       0.436  -4.221   0.447  0.00  0.00    -0.006 C 
ATOM     12  C   UNL     1      -0.313  -4.916  -0.456  0.00  0.00    -0.007 A 
ATOM     13  C   UNL     1       0.068  -4.965  -1.868  0.00  0.00    +0.012 A 
ATOM     14  C   UNL     1      -3.502  -7.088  -0.604  0.00  0.00    +0.046 C 
ATOM     15  H   UNL     1      -2.733  -6.135   1.470  0.00  0.00    +0.155 HD
ENDBRANCH   1  10
BRANCH   1  16
ATOM     16  N   UNL     1       0.916  -6.245   2.909  0.00  0.00    +0.387 N 
ATOM     17  C   UNL     1       1.918  -6.764   3.848  0.00  0.00    -0.059 C 
ATOM     18  C   UNL     1       1.651  -8.250   4.109  0.00  0.00    +0.086 C 
ATOM     19  N   UNL     1       1.611  -8.950   2.815  0.00  0.00    -0.333 N 
ATOM     20  C   UNL     1       0.752  -8.400   1.756  0.00  0.00    +0.086 C 
ATOM     21  C   UNL     1       1.061  -6.907   1.606  0.00  0.00    -0.059 C 
ATOM     22  H   UNL     1      -0.008  -6.423   3.274  0.00  0.00    -0.081 HD
BRANCH  19  23
ATOM     23  C   UNL     1       2.367 -10.105   2.600  0.00  0.00    +0.030 A 
ATOM     24  C   UNL     1       3.071 -10.682   3.649  0.00  0.00    +0.023 A 
ATOM     25  C   UNL     1       3.817 -11.824   3.433  0.00  0.00    +0.002 A 
ATOM     26  C   UNL     1       3.863 -12.393   2.173  0.00  0.00    +0.000 A 
ATOM     27  C   UNL     1       3.164 -11.821   1.127  0.00  0.00    +0.002 A 
ATOM     28  C   UNL     1       2.412 -10.682   1.337  0.00  0.00    +0.023 A 
ENDBRANCH  19  23
ENDBRANCH   1  16
BRANCH   1  29
ATOM     29  C   UNL     1       1.094  -4.123   4.118  0.00  0.00    +0.183 C 
ATOM     30  N   UNL     1      -0.215  -4.297   4.776  0.00  0.00    -0.229 N 
ATOM     31  N   UNL     1      -0.728  -3.007   4.956  0.00  0.00    -0.064 NA
ATOM     32  N   UNL     1       0.026  -2.135   4.533  0.00  0.00    -0.061 NA
ATOM     33  N   UNL     1       1.206  -2.658   3.981  0.00  0.00    -0.211 N 
ATOM     34  H   UNL     1      -0.634  -5.134   5.031  0.00  0.00    +0.172 HD
BRANCH  33  35
ATOM     35  C   UNL     1       2.318  -1.909   3.392  0.00  0.00    +0.047 C 
ATOM     36  C   UNL     1       2.397  -2.208   1.893  0.00  0.00    +0.033 C 
ATOM     37  C   UNL     1       2.092  -0.411   3.601  0.00  0.00    +0.033 C 
ATOM     38  C   UNL     1       3.628  -2.326   4.064  0.00  0.00    +0.033 C 
ENDBRANCH  33  35
ENDBRANCH   1  29
TORSDOF 5
