REMARK  Name = ZINC66315147
REMARK  7 active torsions:
REMARK  status: ('A' for Active; 'I' for Inactive)
REMARK    1  A    between atoms: C_1  and  C_2
REMARK    2  A    between atoms: C_2  and  C_4
REMARK    3  A    between atoms: C_2  and  N_21
REMARK    4  A    between atoms: C_4  and  C_5
REMARK    5  A    between atoms: C_13  and  C_15
REMARK    6  A    between atoms: N_17  and  C_18
REMARK    7  A    between atoms: C_22  and  C_24
REMARK                            x       y       z     vdW  Elec       q    Type
REMARK                         _______ _______ _______ _____ _____    ______ ____
ROOT
ATOM      1  C   UNL     1       0.725  -2.037   1.267  0.00  0.00    +0.217 C 
ATOM      2  O   UNL     1       0.136  -2.645   0.399  0.00  0.00    -0.276 OA
ATOM      3  N   UNL     1       1.293  -2.705   2.291  0.00  0.00    -0.298 N 
ATOM      4  C   UNL     1       2.004  -1.981   3.354  0.00  0.00    +0.127 C 
ATOM      5  C   UNL     1       1.393  -2.370   4.706  0.00  0.00    +0.127 C 
ATOM      6  N   UNL     1       1.312  -3.835   4.780  0.00  0.00    -0.291 N 
ATOM      7  C   UNL     1       0.600  -4.560   3.717  0.00  0.00    +0.127 C 
ATOM      8  C   UNL     1       1.206  -4.170   2.368  0.00  0.00    +0.127 C 
ATOM      9  C   UNL     1       1.880  -4.503   5.803  0.00  0.00    +0.302 C 
ATOM     10  O   UNL     1       1.724  -5.702   5.906  0.00  0.00    -0.265 OA
ENDROOT
BRANCH   9  11
ATOM     11  C   UNL     1       2.701  -3.767   6.812  0.00  0.00    +0.299 C 
ATOM     12  O   UNL     1       2.768  -2.556   6.773  0.00  0.00    -0.265 OA
ATOM     13  N   UNL     1       3.367  -4.448   7.766  0.00  0.00    -0.305 N 
ATOM     14  H   UNL     1       3.313  -5.416   7.797  0.00  0.00    +0.149 HD
BRANCH  13  15
ATOM     15  C   UNL     1       4.172  -3.726   8.754  0.00  0.00    +0.073 C 
ATOM     16  C   UNL     1       5.554  -4.290   9.087  0.00  0.00    +0.024 C 
ATOM     17  C   UNL     1       4.415  -4.409  10.101  0.00  0.00    +0.024 C 
ENDBRANCH  13  15
ENDBRANCH   9  11
BRANCH   1  18
ATOM     18  C   UNL     1       0.822  -0.535   1.202  0.00  0.00    +0.118 C 
BRANCH  18  20
ATOM     19  C   UNL     1       0.090   1.499  -0.052  0.00  0.00    +0.028 C 
ATOM     20  C   UNL     1       0.100  -0.031  -0.050  0.00  0.00    +0.079 C 
BRANCH  20  21
ATOM     21  N   UNL     1       0.795  -0.517  -1.244  0.00  0.00    -0.312 N 
ATOM     22  C   UNL     1       0.126  -0.652  -2.406  0.00  0.00    +0.216 C 
ATOM     23  O   UNL     1      -1.053  -0.371  -2.462  0.00  0.00    -0.276 OA
ATOM     24  H   UNL     1       1.738  -0.742  -1.198  0.00  0.00    +0.149 HD
BRANCH  22  25
ATOM     25  C   UNL     1       0.841  -1.151  -3.634  0.00  0.00    +0.075 C 
ATOM     26  C   UNL     1       1.990  -0.201  -3.978  0.00  0.00    +0.013 C 
ATOM     27  C   UNL     1       2.716  -0.708  -5.225  0.00  0.00    +0.001 C 
ATOM     28  C   UNL     1       1.735  -0.767  -6.398  0.00  0.00    +0.000 C 
ATOM     29  C   UNL     1       0.587  -1.718  -6.054  0.00  0.00    +0.001 C 
ATOM     30  C   UNL     1      -0.140  -1.211  -4.807  0.00  0.00    +0.013 C 
ENDBRANCH  22  25
ENDBRANCH  20  21
ENDBRANCH  18  20
ENDBRANCH   1  18
TORSDOF 6
