REMARK  Name = ZINC00890237
REMARK  10 active torsions:
REMARK  status: ('A' for Active; 'I' for Inactive)
REMARK    1  A    between atoms: C_1  and  C_2
REMARK    2  A    between atoms: C_2  and  C_3
REMARK    3  A    between atoms: C_6  and  N_9
REMARK    4  A    between atoms: C_10  and  C_12
REMARK    5  A    between atoms: C_12  and  S_13
REMARK    6  A    between atoms: S_13  and  C_14
REMARK    7  A    between atoms: C_17  and  C_25
REMARK    8  A    between atoms: N_18  and  C_19
REMARK    9  A    between atoms: C_28  and  S_31
REMARK   10  A    between atoms: S_31  and  N_34
REMARK                            x       y       z     vdW  Elec       q    Type
REMARK                         _______ _______ _______ _____ _____    ______ ____
ROOT
ATOM      1  C   UNL     1      -3.024   6.269   8.644  0.00  0.00    +0.197 A 
ATOM      2  N   UNL     1      -3.970   5.495   9.129  0.00  0.00    -0.122 NA
ATOM      3  N   UNL     1      -4.414   5.978  10.234  0.00  0.00    -0.128 NA
ATOM      4  C   UNL     1      -3.780   7.090  10.526  0.00  0.00    +0.169 A 
ATOM      5  N   UNL     1      -2.865   7.309   9.519  0.00  0.00    -0.270 N 
ENDROOT
BRANCH   5   6
ATOM      6  C   UNL     1      -1.962   8.376   9.412  0.00  0.00    +0.051 A 
ATOM      7  C   UNL     1      -0.947   8.524  10.347  0.00  0.00    +0.026 A 
ATOM      8  C   UNL     1      -0.055   9.573  10.236  0.00  0.00    +0.002 A 
ATOM      9  C   UNL     1      -0.179  10.481   9.201  0.00  0.00    +0.000 A 
ATOM     10  C   UNL     1      -1.193  10.339   8.271  0.00  0.00    +0.002 A 
ATOM     11  C   UNL     1      -2.084   9.289   8.374  0.00  0.00    +0.026 A 
ENDBRANCH   5   6
BRANCH   4  12
ATOM     12  C   UNL     1      -4.002   7.942  11.713  0.00  0.00    +0.020 A 
ATOM     13  C   UNL     1      -3.487   9.239  11.750  0.00  0.00    +0.013 A 
ATOM     14  C   UNL     1      -3.701  10.031  12.860  0.00  0.00    +0.029 A 
ATOM     15  C   UNL     1      -4.416   9.539  13.937  0.00  0.00    +0.106 A 
ATOM     16  C   UNL     1      -4.925   8.252  13.908  0.00  0.00    +0.029 A 
ATOM     17  C   UNL     1      -4.722   7.452  12.803  0.00  0.00    +0.013 A 
BRANCH  15  18
ATOM     18  S   UNL     1      -4.679  10.555  15.352  0.00  0.00    +0.061 S 
ATOM     19  O   UNL     1      -4.572  11.901  14.911  0.00  0.00    -0.153 OA
ATOM     20  O   UNL     1      -5.842  10.056  16.000  0.00  0.00    -0.153 OA
BRANCH  18  21
ATOM     21  N   UNL     1      -3.413  10.292  16.386  0.00  0.00    -0.172 NA
ATOM     22  C   UNL     1      -3.479   9.242  17.414  0.00  0.00    +0.137 C 
ATOM     23  C   UNL     1      -2.206   8.386  17.307  0.00  0.00    +0.177 C 
ATOM     24  O   UNL     1      -1.061   9.241  17.346  0.00  0.00    -0.377 OA
ATOM     25  C   UNL     1      -0.982  10.164  16.258  0.00  0.00    +0.177 C 
ATOM     26  C   UNL     1      -2.190  11.107  16.307  0.00  0.00    +0.137 C 
ENDBRANCH  18  21
ENDBRANCH  15  18
ENDBRANCH   4  12
BRANCH   1  27
ATOM     27  S   UNL     1      -2.124   6.011   7.152  0.00  0.00    -0.076 S 
BRANCH  27  28
ATOM     28  C   UNL     1      -2.887   4.469   6.588  0.00  0.00    +0.173 C 
BRANCH  28  30
ATOM     29  N   UNL     1      -2.668   2.915   4.676  0.00  0.00    -0.285 N 
ATOM     30  C   UNL     1      -2.256   4.043   5.287  0.00  0.00    +0.227 C 
ATOM     31  O   UNL     1      -1.377   4.716   4.790  0.00  0.00    -0.275 OA
ATOM     32  H   UNL     1      -3.421   2.419   5.031  0.00  0.00    +0.155 HD
BRANCH  29  36
ATOM     33  C   UNL     1      -0.706   1.561   1.259  0.00  0.00    -0.048 A 
ATOM     34  C   UNL     1      -2.068   1.362   1.397  0.00  0.00    +0.005 A 
ATOM     35  C   UNL     1      -2.720   1.806   2.531  0.00  0.00    +0.023 A 
ATOM     36  C   UNL     1      -2.009   2.461   3.528  0.00  0.00    +0.033 A 
ATOM     37  C   UNL     1      -0.643   2.663   3.384  0.00  0.00    +0.023 A 
ATOM     38  C   UNL     1       0.004   2.213   2.250  0.00  0.00    +0.005 A 
BRANCH  33  40
ATOM     39  C   UNL     1       0.500  -0.358   0.253  0.00  0.00    +0.009 C 
ATOM     40  C   UNL     1       0.004   1.071   0.023  0.00  0.00    +0.032 C 
ENDBRANCH  33  40
ENDBRANCH  29  36
ENDBRANCH  28  30
ENDBRANCH  27  28
ENDBRANCH   1  27
TORSDOF 9
