REMARK  Name = ZINC09432878
REMARK  12 active torsions:
REMARK  status: ('A' for Active; 'I' for Inactive)
REMARK    1  A    between atoms: C_1  and  O_2
REMARK    2  A    between atoms: O_2  and  C_3
REMARK    3  A    between atoms: C_3  and  C_4
REMARK    4  A    between atoms: C_4  and  N_5
REMARK    5  A    between atoms: C_6  and  C_34
REMARK    6  A    between atoms: C_8  and  C_18
REMARK    7  A    between atoms: N_20  and  C_21
REMARK    8  A    between atoms: C_21  and  C_22
REMARK    9  A    between atoms: C_22  and  N_72
REMARK   10  A    between atoms: C_23  and  C_24
REMARK   11  A    between atoms: C_23  and  N_72
REMARK   12  A    between atoms: C_29  and  N_72
REMARK                            x       y       z     vdW  Elec       q    Type
REMARK                         _______ _______ _______ _____ _____    ______ ____
ROOT
ATOM      1  N   UNL     1       0.381   2.968  -0.870  0.00  0.00    -0.287 N 
ATOM      2  C   UNL     1       0.528   4.354  -1.308  0.00  0.00    +0.129 C 
ATOM      3  C   UNL     1      -0.791   4.899  -1.850  0.00  0.00    +0.131 C 
ATOM      4  C   UNL     1      -1.366   3.948  -2.867  0.00  0.00    -0.021 A 
ATOM      5  C   UNL     1      -2.085   4.421  -3.944  0.00  0.00    +0.005 A 
ATOM      6  C   UNL     1      -2.618   3.533  -4.862  0.00  0.00    +0.000 A 
ATOM      7  C   UNL     1      -2.435   2.170  -4.707  0.00  0.00    +0.001 A 
ATOM      8  C   UNL     1      -1.712   1.685  -3.636  0.00  0.00    +0.013 A 
ATOM      9  C   UNL     1      -1.167   2.575  -2.713  0.00  0.00    +0.041 A 
ATOM     10  C   UNL     1      -0.352   2.088  -1.579  0.00  0.00    +0.247 C 
ATOM     11  O   UNL     1      -0.347   0.908  -1.288  0.00  0.00    -0.270 OA
ENDROOT
BRANCH   2  12
ATOM     12  C   UNL     1       1.573   4.422  -2.392  0.00  0.00    +0.011 A 
ATOM     13  C   UNL     1       2.532   5.359  -2.595  0.00  0.00    +0.013 A 
ATOM     14  C   UNL     1       3.395   5.214  -3.665  0.00  0.00    +0.008 A 
ATOM     15  C   UNL     1       3.250   4.145  -4.486  0.00  0.00    +0.045 A 
ATOM     16  S   UNL     1       1.865   3.295  -3.745  0.00  0.00    -0.100 S 
ENDBRANCH   2  12
BRANCH   3  17
ATOM     17  C   UNL     1      -1.768   5.064  -0.713  0.00  0.00    +0.223 C 
ATOM     18  O   UNL     1      -1.437   4.773   0.417  0.00  0.00    -0.275 OA
ATOM     19  N   UNL     1      -3.008   5.534  -0.953  0.00  0.00    -0.317 N 
ATOM     20  H   UNL     1      -3.272   5.766  -1.857  0.00  0.00    +0.149 HD
BRANCH  19  21
ATOM     21  C   UNL     1      -3.957   5.694   0.152  0.00  0.00    +0.086 C 
BRANCH  21  22
ATOM     22  C   UNL     1      -5.280   6.240  -0.388  0.00  0.00    -0.059 C 
BRANCH  22  23
ATOM     23  N   UNL     1      -6.168   6.556   0.751  0.00  0.00    +0.387 N 
ATOM     24  H   UNL     1      -5.693   7.225   1.368  0.00  0.00    -0.081 HD
BRANCH  23  25
ATOM     25  C   UNL     1      -6.466   5.326   1.515  0.00  0.00    -0.068 C 
ATOM     26  C   UNL     1      -5.264   4.986   2.420  0.00  0.00    -0.015 C 
ATOM     27  C   UNL     1      -5.202   3.438   2.404  0.00  0.00    -0.002 C 
ATOM     28  C   UNL     1      -5.571   3.097   0.938  0.00  0.00    -0.002 C 
ATOM     29  C   UNL     1      -6.661   4.125   0.573  0.00  0.00    -0.015 C 
ENDBRANCH  23  25
BRANCH  23  30
ATOM     30  C   UNL     1      -7.423   7.162   0.260  0.00  0.00    -0.003 C 
BRANCH  30  31
ATOM     31  C   UNL     1      -8.127   7.822   1.418  0.00  0.00    +0.089 A 
ATOM     32  C   UNL     1      -7.891   9.064   1.877  0.00  0.00    +0.042 A 
ATOM     33  C   UNL     1      -8.772   9.272   2.964  0.00  0.00    +0.041 A 
ATOM     34  C   UNL     1      -9.486   8.141   3.109  0.00  0.00    +0.195 A 
ATOM     35  O   UNL     1      -9.092   7.267   2.169  0.00  0.00    -0.470 OA
ENDBRANCH  30  31
ENDBRANCH  23  30
ENDBRANCH  22  23
ENDBRANCH  21  22
ENDBRANCH  19  21
ENDBRANCH   3  17
BRANCH   1  36
ATOM     36  C   UNL     1       1.047   2.526   0.358  0.00  0.00    +0.137 C 
BRANCH  36  37
ATOM     37  C   UNL     1       0.112   2.737   1.550  0.00  0.00    +0.178 C 
BRANCH  37  39
ATOM     38  C   UNL     1      -1.974   2.012   2.482  0.00  0.00    +0.194 C 
ATOM     39  O   UNL     1      -1.031   1.891   1.415  0.00  0.00    -0.381 OA
ENDBRANCH  37  39
ENDBRANCH  36  37
ENDBRANCH   1  36
TORSDOF 11
