REMARK  Name = ZINC65169537
REMARK  12 active torsions:
REMARK  status: ('A' for Active; 'I' for Inactive)
REMARK    1  A    between atoms: C_1  and  C_2
REMARK    2  A    between atoms: C_3  and  C_7
REMARK    3  A    between atoms: C_10  and  S_15
REMARK    4  A    between atoms: N_11  and  C_12
REMARK    5  A    between atoms: C_12  and  C_13
REMARK    6  A    between atoms: S_15  and  C_16
REMARK    7  A    between atoms: C_16  and  C_17
REMARK    8  A    between atoms: C_17  and  C_18
REMARK    9  A    between atoms: C_17  and  O_27
REMARK   10  A    between atoms: C_18  and  N_19
REMARK   11  A    between atoms: C_21  and  C_26
REMARK   12  A    between atoms: C_23  and  C_25
REMARK                            x       y       z     vdW  Elec       q    Type
REMARK                         _______ _______ _______ _____ _____    ______ ____
ROOT
ATOM      1  C   UNL     1      -2.542  -0.314  -1.276  0.00  0.00    +0.168 A 
ATOM      2  N   UNL     1      -3.006   0.894  -1.058  0.00  0.00    -0.128 NA
ATOM      3  N   UNL     1      -4.291   0.882  -1.078  0.00  0.00    -0.122 NA
ATOM      4  C   UNL     1      -4.727  -0.335  -1.310  0.00  0.00    +0.192 A 
ATOM      5  N   UNL     1      -3.630  -1.138  -1.450  0.00  0.00    -0.298 N 
ENDROOT
BRANCH   1   8
ATOM      6  C   UNL     1      -0.312   0.471   0.782  0.00  0.00    +0.087 C 
ATOM      7  C   UNL     1      -0.139  -0.382  -0.448  0.00  0.00    +0.112 A 
ATOM      8  C   UNL     1      -1.119  -0.713  -1.332  0.00  0.00    +0.060 A 
ATOM      9  C   UNL     1      -0.471  -1.548  -2.351  0.00  0.00    +0.053 A 
ATOM     10  C   UNL     1       0.819  -1.639  -1.990  0.00  0.00    +0.196 A 
ATOM     11  O   UNL     1       1.009  -0.940  -0.861  0.00  0.00    -0.467 OA
ENDBRANCH   1   8
BRANCH   5  12
ATOM     12  C   UNL     1      -3.615  -2.577  -1.725  0.00  0.00    +0.152 C 
BRANCH  12  13
ATOM     13  C   UNL     1      -3.502  -3.335  -0.428  0.00  0.00    -0.013 C 
ATOM     14  C   UNL     1      -4.390  -4.249  -0.124  0.00  0.00    +0.005 C 
ENDBRANCH  12  13
ENDBRANCH   5  12
BRANCH   4  15
ATOM     15  S   UNL     1      -6.412  -0.837  -1.424  0.00  0.00    -0.083 S 
BRANCH  15  16
ATOM     16  C   UNL     1      -7.346   0.694  -1.152  0.00  0.00    +0.110 C 
BRANCH  16  17
ATOM     17  C   UNL     1      -8.845   0.397  -1.227  0.00  0.00    +0.139 C 
BRANCH  17  18
ATOM     18  O   UNL     1      -9.162  -0.133  -2.516  0.00  0.00    -0.390 OA
ATOM     19  H   UNL     1      -8.953   0.463  -3.248  0.00  0.00    +0.210 HD
ENDBRANCH  17  18
BRANCH  17  20
ATOM     20  C   UNL     1      -9.633   1.688  -0.998  0.00  0.00    +0.116 C 
BRANCH  20  21
ATOM     21  N   UNL     1     -11.072   1.401  -1.062  0.00  0.00    -0.295 NA
ATOM     22  C   UNL     1     -11.844   2.629  -1.304  0.00  0.00    +0.115 C 
ATOM     23  C   UNL     1     -13.329   2.277  -1.423  0.00  0.00    +0.130 C 
ATOM     24  O   UNL     1     -13.749   1.599  -0.236  0.00  0.00    -0.371 OA
ATOM     25  C   UNL     1     -13.020   0.398   0.029  0.00  0.00    +0.130 C 
ATOM     26  C   UNL     1     -11.531   0.731   0.163  0.00  0.00    +0.115 C 
ATOM     27  C   UNL     1     -13.221  -0.588  -1.123  0.00  0.00    +0.039 C 
ATOM     28  C   UNL     1     -14.146   3.560  -1.594  0.00  0.00    +0.039 C 
ENDBRANCH  20  21
ENDBRANCH  17  20
ENDBRANCH  16  17
ENDBRANCH  15  16
ENDBRANCH   4  15
TORSDOF 9
