REMARK  Name = ZINC63314246
REMARK  9 active torsions:
REMARK  status: ('A' for Active; 'I' for Inactive)
REMARK    1  A    between atoms: C_1  and  C_2
REMARK    2  A    between atoms: C_2  and  O_3
REMARK    3  A    between atoms: O_3  and  C_4
REMARK    4  A    between atoms: C_4  and  C_6
REMARK    5  A    between atoms: C_7  and  C_23
REMARK    6  A    between atoms: C_12  and  C_14
REMARK    7  A    between atoms: C_18  and  N_20
REMARK    8  A    between atoms: C_23  and  S_24
REMARK    9  A    between atoms: S_24  and  C_25
REMARK                            x       y       z     vdW  Elec       q    Type
REMARK                         _______ _______ _______ _____ _____    ______ ____
ROOT
ATOM      1  C   UNL     1      -2.795  -2.410   0.126  0.00  0.00    +0.079 C 
ATOM      2  C   UNL     1      -2.985  -3.731  -0.085  0.00  0.00    +0.034 C 
ATOM      3  N   UNL     1      -4.241  -4.255  -0.186  0.00  0.00    -0.272 N 
ATOM      4  C   UNL     1      -5.360  -3.526  -0.089  0.00  0.00    +0.304 C 
ATOM      5  O   UNL     1      -6.436  -4.083  -0.193  0.00  0.00    -0.252 OA
ATOM      6  N   UNL     1      -5.333  -2.195   0.121  0.00  0.00    -0.288 N 
ATOM      7  C   UNL     1      -4.024  -1.533   0.251  0.00  0.00    +0.144 C 
ATOM      8  H   UNL     1      -4.328  -5.210  -0.337  0.00  0.00    +0.156 HD
ATOM      9  H   UNL     1      -6.156  -1.686   0.188  0.00  0.00    +0.151 HD
ENDROOT
BRANCH   7  10
ATOM     10  C   UNL     1      -3.942  -0.464  -0.809  0.00  0.00    -0.020 A 
ATOM     11  C   UNL     1      -4.306  -0.753  -2.111  0.00  0.00    +0.006 A 
ATOM     12  C   UNL     1      -4.231   0.227  -3.083  0.00  0.00    +0.003 A 
ATOM     13  C   UNL     1      -3.792   1.496  -2.753  0.00  0.00    +0.033 A 
ATOM     14  C   UNL     1      -3.429   1.784  -1.451  0.00  0.00    +0.127 A 
ATOM     15  C   UNL     1      -3.508   0.805  -0.478  0.00  0.00    +0.038 A 
BRANCH  14  16
ATOM     16  N   UNL     1      -2.959   3.143  -1.097  0.00  0.00    +0.056 N 
ATOM     17  O   UNL     1      -2.892   3.999  -1.948  0.00  0.00    -0.126 OA
ATOM     18  O   UNL     1      -2.641   3.395   0.042  0.00  0.00    -0.126 OA
ENDBRANCH  14  16
ENDBRANCH   7  10
BRANCH   1  19
ATOM     19  C   UNL     1      -1.494  -1.866   0.232  0.00  0.00    +0.339 C 
ATOM     20  O   UNL     1      -1.028  -1.612   1.326  0.00  0.00    -0.245 OA
BRANCH  19  21
ATOM     21  O   UNL     1      -0.770  -1.628  -0.882  0.00  0.00    -0.462 OA
BRANCH  21  23
ATOM     22  C   UNL     1       1.200  -0.878  -2.065  0.00  0.00    +0.048 C 
ATOM     23  C   UNL     1       0.536  -1.077  -0.701  0.00  0.00    +0.229 C 
ENDBRANCH  21  23
ENDBRANCH  19  21
ENDBRANCH   1  19
BRANCH   2  24
ATOM     24  C   UNL     1      -1.789  -4.640  -0.210  0.00  0.00    +0.124 C 
BRANCH  24  25
ATOM     25  S   UNL     1      -1.597  -5.599   1.318  0.00  0.00    -0.109 S 
BRANCH  25  26
ATOM     26  C   UNL     1      -0.136  -6.629   1.008  0.00  0.00    +0.236 C 
ATOM     27  N   UNL     1       1.016  -5.782   0.673  0.00  0.00    -0.355 N 
ATOM     28  C   UNL     1       1.405  -6.108  -0.526  0.00  0.00    +0.061 A 
ATOM     29  C   UNL     1       2.489  -5.622  -1.391  0.00  0.00    +0.027 A 
ATOM     30  C   UNL     1       2.656  -6.163  -2.615  0.00  0.00    +0.002 A 
ATOM     31  C   UNL     1       1.829  -7.188  -3.110  0.00  0.00    +0.002 A 
ATOM     32  C   UNL     1       0.808  -7.706  -2.399  0.00  0.00    +0.027 A 
ATOM     33  C   UNL     1       0.530  -7.192  -1.050  0.00  0.00    +0.061 A 
ATOM     34  N   UNL     1      -0.366  -7.494  -0.156  0.00  0.00    -0.355 N 
ATOM     35  H   UNL     1       1.414  -5.103   1.240  0.00  0.00    +0.162 HD
ATOM     36  H   UNL     1      -1.059  -8.167  -0.242  0.00  0.00    +0.162 HD
ENDBRANCH  25  26
ENDBRANCH  24  25
ENDBRANCH   2  24
TORSDOF 8
