REMARK  Name = ZINC67070588
REMARK  5 active torsions:
REMARK  status: ('A' for Active; 'I' for Inactive)
REMARK    1  A    between atoms: C_3  and  C_10
REMARK    2  A    between atoms: C_5  and  N_7
REMARK    3  A    between atoms: C_10  and  N_11
REMARK    4  A    between atoms: C_12  and  C_14
REMARK    5  A    between atoms: C_17  and  C_19
REMARK                            x       y       z     vdW  Elec       q    Type
REMARK                         _______ _______ _______ _____ _____    ______ ____
ROOT
ATOM      1  N   UNL     1       4.105   2.425   1.356  0.00  0.00    -0.306 N 
ATOM      2  C   UNL     1       5.246   3.102   1.594  0.00  0.00    +0.263 C 
ATOM      3  O   UNL     1       5.916   3.511   0.665  0.00  0.00    -0.269 OA
ATOM      4  H   UNL     1       3.571   2.099   2.097  0.00  0.00    +0.149 HD
ENDROOT
BRANCH   2   5
ATOM      5  C   UNL     1       5.681   3.347   2.979  0.00  0.00    +0.133 A 
ATOM      6  C   UNL     1       6.835   4.038   3.232  0.00  0.00    +0.080 A 
ATOM      7  S   UNL     1       6.892   4.051   4.914  0.00  0.00    -0.075 S 
ATOM      8  C   UNL     1       5.388   3.143   5.227  0.00  0.00    +0.110 A 
ATOM      9  N   UNL     1       4.957   2.905   4.001  0.00  0.00    -0.234 NA
BRANCH   8  10
ATOM     10  C   UNL     1       4.782   2.761   6.519  0.00  0.00    +0.014 A 
ATOM     11  C   UNL     1       5.385   3.115   7.728  0.00  0.00    +0.018 A 
ATOM     12  C   UNL     1       4.750   2.718   8.853  0.00  0.00    +0.046 A 
ATOM     13  S   UNL     1       3.328   1.862   8.208  0.00  0.00    -0.104 S 
ATOM     14  C   UNL     1       3.614   2.059   6.565  0.00  0.00    +0.055 A 
ENDBRANCH   8  10
ENDBRANCH   2   5
BRANCH   1  15
ATOM     15  C   UNL     1       3.672   2.182  -0.022  0.00  0.00    +0.140 C 
BRANCH  15  18
ATOM     16  C   UNL     1      -0.017   1.378   0.010  0.00  0.00    +0.003 A 
ATOM     17  C   UNL     1       1.171   2.085   0.002  0.00  0.00    +0.005 A 
ATOM     18  C   UNL     1       2.377   1.411  -0.013  0.00  0.00    -0.028 A 
ATOM     19  C   UNL     1       2.396   0.028  -0.020  0.00  0.00    +0.038 A 
ATOM     20  C   UNL     1       1.209  -0.679  -0.012  0.00  0.00    +0.127 A 
ATOM     21  C   UNL     1       0.002  -0.004   0.002  0.00  0.00    +0.033 A 
BRANCH  20  22
ATOM     22  N   UNL     1       1.229  -2.159  -0.020  0.00  0.00    +0.056 N 
ATOM     23  O   UNL     1       2.284  -2.749  -0.035  0.00  0.00    -0.126 OA
ATOM     24  O   UNL     1       0.190  -2.778  -0.013  0.00  0.00    -0.126 OA
ENDBRANCH  20  22
ENDBRANCH  15  18
ENDBRANCH   1  15
TORSDOF 5
