REMARK  Name = ZINC03423196
REMARK  10 active torsions:
REMARK  status: ('A' for Active; 'I' for Inactive)
REMARK    1  A    between atoms: C_1  and  C_2
REMARK    2  A    between atoms: C_2  and  C_4
REMARK    3  A    between atoms: C_2  and  N_49
REMARK    4  A    between atoms: N_6  and  C_7
REMARK    5  A    between atoms: C_9  and  N_14
REMARK    6  A    between atoms: C_17  and  N_49
REMARK    7  A    between atoms: C_18  and  C_19
REMARK    8  A    between atoms: C_18  and  N_49
REMARK    9  A    between atoms: N_21  and  C_22
REMARK   10  A    between atoms: C_26  and  C_28
REMARK                            x       y       z     vdW  Elec       q    Type
REMARK                         _______ _______ _______ _____ _____    ______ ____
ROOT
ATOM      1  C   UNL     1      -4.796  -2.524  -0.410  0.00  0.00    -0.094 C 
ATOM      2  N   UNL     1      -5.853  -2.249   0.586  0.00  0.00    +0.391 N 
ATOM      3  H   UNL     1      -5.512  -2.519   1.516  0.00  0.00    -0.080 HD
ENDROOT
BRANCH   2   5
ATOM      4  C   UNL     1      -6.980  -0.431  -0.653  0.00  0.00    -0.004 C 
ATOM      5  C   UNL     1      -6.176  -0.807   0.593  0.00  0.00    +0.017 C 
BRANCH   5   6
ATOM      6  C   UNL     1      -6.988  -0.499   1.826  0.00  0.00    +0.203 C 
ATOM      7  O   UNL     1      -7.455  -1.403   2.486  0.00  0.00    -0.277 OA
ATOM      8  N   UNL     1      -7.194   0.781   2.194  0.00  0.00    -0.286 N 
ATOM      9  H   UNL     1      -6.869   1.505   1.636  0.00  0.00    +0.155 HD
BRANCH   8  10
ATOM     10  C   UNL     1      -7.878   1.066   3.382  0.00  0.00    +0.054 A 
ATOM     11  C   UNL     1      -8.821   0.173   3.873  0.00  0.00    +0.057 A 
ATOM     12  C   UNL     1      -9.494   0.458   5.045  0.00  0.00    +0.128 A 
ATOM     13  C   UNL     1      -9.234   1.632   5.727  0.00  0.00    +0.034 A 
ATOM     14  C   UNL     1      -8.291   2.521   5.244  0.00  0.00    +0.024 A 
ATOM     15  C   UNL     1      -7.614   2.243   4.072  0.00  0.00    +0.062 A 
ATOM     16 CL   UNL     1      -6.435   3.362   3.463  0.00  0.00    -0.082 Cl
BRANCH  12  17
ATOM     17  N   UNL     1     -10.500  -0.494   5.569  0.00  0.00    +0.056 N 
ATOM     18  O   UNL     1     -10.733  -1.526   4.966  0.00  0.00    -0.126 OA
ATOM     19  O   UNL     1     -11.090  -0.247   6.605  0.00  0.00    -0.126 OA
ENDBRANCH  12  17
ENDBRANCH   8  10
ENDBRANCH   5   6
ENDBRANCH   2   5
BRANCH   2  20
ATOM     20  C   UNL     1      -7.063  -3.037   0.270  0.00  0.00    +0.020 C 
BRANCH  20  21
ATOM     21  C   UNL     1      -6.761  -4.497   0.484  0.00  0.00    +0.201 C 
ATOM     22  O   UNL     1      -5.655  -4.842   0.843  0.00  0.00    -0.278 OA
ATOM     23  N   UNL     1      -7.721  -5.421   0.277  0.00  0.00    -0.287 N 
ATOM     24  H   UNL     1      -8.584  -5.153  -0.074  0.00  0.00    +0.155 HD
BRANCH  23  25
ATOM     25  C   UNL     1      -7.471  -6.767   0.569  0.00  0.00    +0.034 A 
ATOM     26  C   UNL     1      -6.216  -7.310   0.329  0.00  0.00    +0.025 A 
ATOM     27  C   UNL     1      -5.971  -8.637   0.622  0.00  0.00    +0.022 A 
ATOM     28  C   UNL     1      -6.978  -9.428   1.146  0.00  0.00    +0.053 A 
ATOM     29  C   UNL     1      -8.231  -8.891   1.382  0.00  0.00    +0.075 A 
ATOM     30  C   UNL     1      -8.480  -7.563   1.095  0.00  0.00    +0.037 A 
ATOM     31 CL   UNL     1      -6.669 -11.098   1.508  0.00  0.00    -0.083 Cl
BRANCH  29  32
ATOM     32  C   UNL     1      -9.326  -9.756   1.953  0.00  0.00    +0.419 C 
ATOM     33  F   UNL     1     -10.491  -8.996   2.101  0.00  0.00    -0.166 F 
ATOM     34  F   UNL     1      -9.574 -10.826   1.087  0.00  0.00    -0.166 F 
ATOM     35  F   UNL     1      -8.928 -10.248   3.200  0.00  0.00    -0.166 F 
ENDBRANCH  29  32
ENDBRANCH  23  25
ENDBRANCH  20  21
ENDBRANCH   2  20
TORSDOF 8
