REMARK  Name = ZINC39617356
REMARK  8 active torsions:
REMARK  status: ('A' for Active; 'I' for Inactive)
REMARK    1  A    between atoms: C_1  and  C_2
REMARK    2  A    between atoms: C_3  and  N_9
REMARK    3  A    between atoms: C_10  and  C_12
REMARK    4  A    between atoms: C_12  and  N_13
REMARK    5  A    between atoms: C_14  and  C_16
REMARK    6  A    between atoms: C_16  and  O_17
REMARK    7  A    between atoms: O_17  and  C_18
REMARK    8  A    between atoms: C_18  and  C_20
REMARK                            x       y       z     vdW  Elec       q    Type
REMARK                         _______ _______ _______ _____ _____    ______ ____
ROOT
ATOM      1  N   UNL     1       0.279  -0.832  -5.994  0.00  0.00    -0.304 N 
ATOM      2  C   UNL     1       0.378  -0.373  -7.257  0.00  0.00    +0.251 C 
ATOM      3  O   UNL     1       0.373   0.821  -7.471  0.00  0.00    -0.272 OA
ATOM      4  H   UNL     1       0.283  -1.787  -5.824  0.00  0.00    +0.149 HD
ENDROOT
BRANCH   1   5
ATOM      5  C   UNL     1       0.165   0.110  -4.879  0.00  0.00    +0.200 C 
BRANCH   5   7
ATOM      6  N   UNL     1      -0.044   0.011  -2.416  0.00  0.00    -0.284 N 
ATOM      7  C   UNL     1       0.069  -0.654  -3.583  0.00  0.00    +0.234 C 
ATOM      8  O   UNL     1       0.093  -1.866  -3.591  0.00  0.00    -0.274 OA
ATOM      9  H   UNL     1      -0.146   0.975  -2.415  0.00  0.00    +0.155 HD
BRANCH   6  12
ATOM     10  C   UNL     1      -1.310   1.181  -0.152  0.00  0.00    +0.047 C 
ATOM     11  C   UNL     1      -0.620  -0.156  -0.076  0.00  0.00    -0.011 A 
ATOM     12  C   UNL     1      -0.015  -0.691  -1.206  0.00  0.00    +0.038 A 
ATOM     13  C   UNL     1       0.620  -1.924  -1.132  0.00  0.00    +0.023 A 
ATOM     14  C   UNL     1       0.647  -2.615   0.064  0.00  0.00    +0.003 A 
ATOM     15  C   UNL     1       0.043  -2.082   1.187  0.00  0.00    +0.020 A 
ATOM     16  C   UNL     1      -0.585  -0.850   1.118  0.00  0.00    +0.046 A 
ATOM     17 CL   UNL     1      -1.335  -0.179   2.533  0.00  0.00    -0.083 Cl
ENDBRANCH   6  12
ENDBRANCH   5   7
ENDBRANCH   1   5
BRANCH   2  18
ATOM     18  C   UNL     1       0.495  -1.343  -8.405  0.00  0.00    +0.328 C 
BRANCH  18  19
ATOM     19  O   UNL     1       0.586  -0.618  -9.633  0.00  0.00    -0.452 OA
BRANCH  19  20
ATOM     20  C   UNL     1       0.697  -1.343 -10.764  0.00  0.00    +0.337 C 
ATOM     21  O   UNL     1       0.716  -2.556 -10.709  0.00  0.00    -0.245 OA
BRANCH  20  22
ATOM     22  C   UNL     1       0.796  -0.662 -12.070  0.00  0.00    +0.054 C 
ATOM     23  C   UNL     1       0.888   0.711 -12.162  0.00  0.00    +0.007 A 
ATOM     24  C   UNL     1       0.892   1.548 -10.962  0.00  0.00    +0.010 A 
ATOM     25  C   UNL     1       0.984   2.893 -11.103  0.00  0.00    +0.001 A 
ATOM     26  C   UNL     1       1.075   3.491 -12.366  0.00  0.00    +0.002 A 
ATOM     27  C   UNL     1       1.077   2.776 -13.517  0.00  0.00    +0.024 A 
ATOM     28  C   UNL     1       0.986   1.367 -13.483  0.00  0.00    +0.041 A 
ATOM     29  N   UNL     1       0.987   0.674 -14.612  0.00  0.00    -0.285 N 
ATOM     30  C   UNL     1       0.903  -0.650 -14.655  0.00  0.00    +0.222 C 
ATOM     31  O   UNL     1       0.909  -1.226 -15.726  0.00  0.00    -0.275 OA
ATOM     32  C   UNL     1       0.807  -1.443 -13.371  0.00  0.00    +0.139 C 
ATOM     33  H   UNL     1       1.053   1.159 -15.450  0.00  0.00    +0.155 HD
ENDBRANCH  20  22
ENDBRANCH  19  20
ENDBRANCH  18  19
ENDBRANCH   2  18
TORSDOF 7
