REMARK  Name = ZINC14141929
REMARK  6 active torsions:
REMARK  status: ('A' for Active; 'I' for Inactive)
REMARK    1  A    between atoms: C_1  and  N_2
REMARK    2  A    between atoms: C_6  and  C_12
REMARK    3  A    between atoms: C_12  and  C_14
REMARK    4  A    between atoms: C_14  and  S_15
REMARK    5  A    between atoms: S_15  and  C_16
REMARK    6  A    between atoms: C_19  and  C_21
REMARK                            x       y       z     vdW  Elec       q    Type
REMARK                         _______ _______ _______ _____ _____    ______ ____
ROOT
ATOM      1  S   UNL     1       1.630   7.289  -0.012  0.00  0.00    -0.058 S 
ENDROOT
BRANCH   1   2
ATOM      2  C   UNL     1       1.210   5.622   0.374  0.00  0.00    +0.278 A 
ATOM      3  N   UNL     1       0.418   5.223   1.340  0.00  0.00    -0.101 NA
ATOM      4  N   UNL     1       0.340   3.939   1.325  0.00  0.00    -0.108 NA
ATOM      5  C   UNL     1       1.073   3.471   0.357  0.00  0.00    +0.262 A 
ATOM      6  O   UNL     1       1.645   4.520  -0.265  0.00  0.00    -0.412 OA
BRANCH   5   7
ATOM      7  C   UNL     1       1.254   2.018   0.001  0.00  0.00    +0.297 C 
ATOM      8  C   UNL     1       2.156   1.338   1.040  0.00  0.00    +0.283 C 
ATOM      9  O   UNL     1       2.296  -0.040   0.679  0.00  0.00    -0.484 OA
ATOM     10  C   UNL     1       1.156  -0.702   0.339  0.00  0.00    +0.162 A 
ATOM     11  C   UNL     1       1.151  -2.089   0.328  0.00  0.00    +0.049 A 
ATOM     12  C   UNL     1       0.003  -2.775  -0.018  0.00  0.00    +0.004 A 
ATOM     13  C   UNL     1      -1.144  -2.081  -0.356  0.00  0.00    +0.004 A 
ATOM     14  C   UNL     1      -1.147  -0.699  -0.346  0.00  0.00    +0.049 A 
ATOM     15  C   UNL     1       0.002  -0.004   0.002  0.00  0.00    +0.163 A 
ATOM     16  O   UNL     1      -0.016   1.357   0.009  0.00  0.00    -0.472 OA
ENDBRANCH   5   7
ENDBRANCH   1   2
BRANCH   1  17
ATOM     17  C   UNL     1       0.682   8.156   1.263  0.00  0.00    +0.158 C 
BRANCH  17  18
ATOM     18  C   UNL     1       0.895   9.641   1.125  0.00  0.00    +0.173 C 
ATOM     19  O   UNL     1       1.616  10.072   0.250  0.00  0.00    -0.291 OA
BRANCH  18  25
ATOM     20  C   UNL     1      -2.464  13.190   5.684  0.00  0.00    +0.138 C 
ATOM     21  N   UNL     1      -1.555  13.367   4.549  0.00  0.00    -0.274 N 
ATOM     22  C   UNL     1      -1.037  12.316   3.802  0.00  0.00    +0.040 A 
ATOM     23  C   UNL     1      -1.226  10.936   3.920  0.00  0.00    +0.024 A 
ATOM     24  C   UNL     1      -0.606  10.077   3.061  0.00  0.00    +0.013 A 
ATOM     25  C   UNL     1       0.228  10.568   2.049  0.00  0.00    +0.019 A 
ATOM     26  C   UNL     1       0.426  11.950   1.929  0.00  0.00    +0.017 A 
ATOM     27  C   UNL     1      -0.207  12.804   2.795  0.00  0.00    -0.017 A 
ATOM     28  C   UNL     1      -0.213  14.309   2.934  0.00  0.00    +0.133 C 
ATOM     29  C   UNL     1      -1.128  14.564   4.113  0.00  0.00    +0.224 C 
ATOM     30  O   UNL     1      -1.420  15.646   4.577  0.00  0.00    -0.275 OA
ENDBRANCH  18  25
ENDBRANCH  17  18
ENDBRANCH   1  17
TORSDOF 5
