REMARK  Name = ZINC59488138
REMARK  13 active torsions:
REMARK  status: ('A' for Active; 'I' for Inactive)
REMARK    1  A    between atoms: C_1  and  C_2
REMARK    2  A    between atoms: C_4  and  C_35
REMARK    3  A    between atoms: C_5  and  C_9
REMARK    4  A    between atoms: C_6  and  C_8
REMARK    5  A    between atoms: C_9  and  N_10
REMARK    6  A    between atoms: C_11  and  C_13
REMARK    7  A    between atoms: C_13  and  S_14
REMARK    8  A    between atoms: S_14  and  C_15
REMARK    9  A    between atoms: C_20  and  N_24
REMARK   10  A    between atoms: C_25  and  C_26
REMARK   11  A    between atoms: C_30  and  O_33
REMARK   12  A    between atoms: C_31  and  O_32
REMARK   13  A    between atoms: O_33  and  C_34
REMARK                            x       y       z     vdW  Elec       q    Type
REMARK                         _______ _______ _______ _____ _____    ______ ____
ROOT
ATOM      1  C   UNL     1       4.876  -8.769  -0.073  0.00  0.00    +0.136 A 
ATOM      2  N   UNL     1       5.913  -7.962  -0.068  0.00  0.00    -0.233 NA
ATOM      3  C   UNL     1       7.185  -8.415  -0.079  0.00  0.00    +0.080 A 
ATOM      4  C   UNL     1       8.380  -7.655  -0.076  0.00  0.00    +0.031 A 
ATOM      5  C   UNL     1       9.595  -8.259  -0.088  0.00  0.00    +0.030 A 
ATOM      6  C   UNL     1       9.716  -9.655  -0.105  0.00  0.00    +0.065 A 
ATOM      7  C   UNL     1       8.557 -10.437  -0.107  0.00  0.00    +0.045 A 
ATOM      8  C   UNL     1       7.334  -9.822  -0.095  0.00  0.00    +0.042 A 
ATOM      9  S   UNL     1       5.647 -10.381  -0.086  0.00  0.00    -0.061 S 
ENDROOT
BRANCH   6  10
ATOM     10  N   UNL     1      10.951 -10.244  -0.118  0.00  0.00    -0.255 NA
ATOM     11  C   UNL     1      11.879  -9.796  -0.917  0.00  0.00    +0.123 C 
BRANCH  11  12
ATOM     12  C   UNL     1      13.206 -10.429  -0.931  0.00  0.00    +0.038 A 
ATOM     13  C   UNL     1      14.206  -9.947  -1.783  0.00  0.00    +0.013 A 
ATOM     14  C   UNL     1      15.448 -10.544  -1.793  0.00  0.00    +0.004 A 
ATOM     15  C   UNL     1      15.714 -11.621  -0.964  0.00  0.00    +0.049 A 
ATOM     16  C   UNL     1      14.734 -12.110  -0.116  0.00  0.00    +0.162 A 
ATOM     17  C   UNL     1      13.477 -11.515  -0.088  0.00  0.00    +0.167 A 
BRANCH  17  18
ATOM     18  O   UNL     1      12.516 -11.989   0.747  0.00  0.00    -0.503 OA
ATOM     19  H   UNL     1      11.965 -12.682   0.359  0.00  0.00    +0.292 HD
ENDBRANCH  17  18
BRANCH  16  20
ATOM     20  O   UNL     1      15.003 -13.168   0.695  0.00  0.00    -0.491 OA
ATOM     21  C   UNL     1      16.317 -13.726   0.620  0.00  0.00    +0.277 C 
ENDBRANCH  16  20
ENDBRANCH  11  12
ENDBRANCH   6  10
BRANCH   1  22
ATOM     22  S   UNL     1       3.161  -8.365  -0.061  0.00  0.00    -0.089 S 
BRANCH  22  23
ATOM     23  C   UNL     1       3.137  -6.551  -0.051  0.00  0.00    +0.172 C 
BRANCH  23  25
ATOM     24  N   UNL     1       1.447  -4.746  -0.032  0.00  0.00    -0.310 N 
ATOM     25  C   UNL     1       1.710  -6.067  -0.040  0.00  0.00    +0.224 C 
ATOM     26  O   UNL     1       0.799  -6.867  -0.040  0.00  0.00    -0.275 OA
ATOM     27  H   UNL     1       2.176  -4.106  -0.032  0.00  0.00    +0.149 HD
BRANCH  24  28
ATOM     28  C   UNL     1       0.059  -4.275  -0.021  0.00  0.00    +0.140 C 
BRANCH  28  33
ATOM     29  C   UNL     1      -0.018   1.503   0.010  0.00  0.00    +0.044 C 
ATOM     30  C   UNL     1       0.002  -0.004   0.002  0.00  0.00    -0.050 A 
ATOM     31  C   UNL     1       0.006  -0.689  -1.199  0.00  0.00    +0.007 A 
ATOM     32  C   UNL     1       0.025  -2.071  -1.206  0.00  0.00    -0.045 A 
ATOM     33  C   UNL     1       0.040  -2.768  -0.013  0.00  0.00    -0.024 A 
ATOM     34  C   UNL     1       0.037  -2.084   1.188  0.00  0.00    -0.045 A 
ATOM     35  C   UNL     1       0.023  -0.702   1.195  0.00  0.00    +0.007 A 
ATOM     36  C   UNL     1       0.054  -2.844   2.489  0.00  0.00    +0.044 C 
ATOM     37  C   UNL     1       0.027  -2.817  -2.516  0.00  0.00    +0.044 C 
ENDBRANCH  28  33
ENDBRANCH  24  28
ENDBRANCH  23  25
ENDBRANCH  22  23
ENDBRANCH   1  22
TORSDOF 9
