REMARK  Name = ZINC13977535
REMARK  8 active torsions:
REMARK  status: ('A' for Active; 'I' for Inactive)
REMARK    1  A    between atoms: C_1  and  C_2
REMARK    2  A    between atoms: C_2  and  C_3
REMARK    3  A    between atoms: C_6  and  O_10
REMARK    4  A    between atoms: O_10  and  C_11
REMARK    5  A    between atoms: C_11  and  C_12
REMARK    6  A    between atoms: N_14  and  N_15
REMARK    7  A    between atoms: C_16  and  C_17
REMARK    8  A    between atoms: C_19  and  N_23
REMARK                            x       y       z     vdW  Elec       q    Type
REMARK                         _______ _______ _______ _____ _____    ______ ____
ROOT
ATOM      1  C   UNL     1      -3.042   4.483   6.404  0.00  0.00    +0.270 C 
ATOM      2  O   UNL     1      -3.894   3.709   6.786  0.00  0.00    -0.270 OA
ATOM      3  N   UNL     1      -2.821   5.629   7.078  0.00  0.00    -0.204 N 
ATOM      4  H   UNL     1      -2.139   6.248   6.771  0.00  0.00    +0.177 HD
ENDROOT
BRANCH   3   5
ATOM      5  N   UNL     1      -3.575   5.926   8.220  0.00  0.00    -0.188 NA
ATOM      6  C   UNL     1      -3.362   7.030   8.869  0.00  0.00    +0.142 C 
BRANCH   6   7
ATOM      7  C   UNL     1      -4.155   7.343  10.071  0.00  0.00    +0.043 A 
ATOM      8  C   UNL     1      -3.925   8.526  10.776  0.00  0.00    +0.046 A 
ATOM      9  C   UNL     1      -4.674   8.816  11.897  0.00  0.00    +0.127 A 
ATOM     10  C   UNL     1      -5.647   7.932  12.334  0.00  0.00    +0.036 A 
ATOM     11  C   UNL     1      -5.880   6.755  11.648  0.00  0.00    +0.054 A 
ATOM     12  C   UNL     1      -5.140   6.451  10.517  0.00  0.00    +0.188 A 
ATOM     13  O   UNL     1      -5.369   5.294   9.843  0.00  0.00    -0.287 OA
BRANCH   9  14
ATOM     14  N   UNL     1      -4.434  10.073  12.640  0.00  0.00    +0.056 N 
ATOM     15  O   UNL     1      -5.091  10.329  13.633  0.00  0.00    -0.126 OA
ATOM     16  O   UNL     1      -3.579  10.852  12.258  0.00  0.00    -0.126 OA
ENDBRANCH   9  14
ENDBRANCH   6   7
ENDBRANCH   3   5
BRANCH   1  17
ATOM     17  C   UNL     1      -2.231   4.163   5.175  0.00  0.00    +0.326 C 
BRANCH  17  18
ATOM     18  O   UNL     1      -2.649   2.904   4.642  0.00  0.00    -0.482 OA
BRANCH  18  22
ATOM     19  C   UNL     1      -0.718   1.572   1.248  0.00  0.00    -0.046 A 
ATOM     20  C   UNL     1      -0.359   2.779   1.818  0.00  0.00    +0.007 A 
ATOM     21  C   UNL     1      -1.008   3.230   2.951  0.00  0.00    +0.047 A 
ATOM     22  C   UNL     1      -2.013   2.465   3.524  0.00  0.00    +0.135 A 
ATOM     23  C   UNL     1      -2.368   1.251   2.954  0.00  0.00    +0.060 A 
ATOM     24  C   UNL     1      -1.719   0.807   1.817  0.00  0.00    +0.022 A 
ATOM     25 BR   UNL     1      -3.737   0.204   3.732  0.00  0.00    -0.047 Br
BRANCH  19  27
ATOM     26  C   UNL     1      -0.753   1.593  -1.232  0.00  0.00    +0.009 C 
ATOM     27  C   UNL     1      -0.013   1.086   0.008  0.00  0.00    +0.032 C 
ENDBRANCH  19  27
ENDBRANCH  18  22
ENDBRANCH  17  18
ENDBRANCH   1  17
TORSDOF 7
