REMARK  Name = ZINC08386466
REMARK  18 active torsions:
REMARK  status: ('A' for Active; 'I' for Inactive)
REMARK    1  A    between atoms: C_1  and  C_2
REMARK    2  A    between atoms: C_2  and  O_4
REMARK    3  A    between atoms: O_4  and  C_5
REMARK    4  A    between atoms: C_5  and  C_6
REMARK    5  A    between atoms: C_8  and  O_35
REMARK    6  A    between atoms: C_10  and  O_31
REMARK    7  A    between atoms: C_12  and  O_27
REMARK    8  A    between atoms: C_14  and  N_17
REMARK    9  A    between atoms: N_17  and  C_18
REMARK   10  A    between atoms: C_18  and  N_20
REMARK   11  A    between atoms: N_20  and  N_21
REMARK   12  A    between atoms: C_26  and  N_66
REMARK   13  A    between atoms: O_27  and  C_28
REMARK   14  A    between atoms: C_28  and  C_30
REMARK   15  A    between atoms: O_31  and  C_32
REMARK   16  A    between atoms: C_32  and  C_34
REMARK   17  A    between atoms: O_35  and  C_36
REMARK   18  A    between atoms: C_36  and  C_38
REMARK                            x       y       z     vdW  Elec       q    Type
REMARK                         _______ _______ _______ _____ _____    ______ ____
ROOT
ATOM      1  C   UNL     1      -3.614   4.934   1.520  0.00  0.00    +0.202 C 
ATOM      2  C   UNL     1      -4.708   4.116   0.830  0.00  0.00    +0.253 C 
ATOM      3  C   UNL     1      -4.347   3.936  -0.647  0.00  0.00    +0.264 C 
ATOM      4  C   UNL     1      -4.161   5.316  -1.287  0.00  0.00    +0.267 C 
ATOM      5  C   UNL     1      -3.087   6.087  -0.515  0.00  0.00    +0.250 C 
ATOM      6  O   UNL     1      -3.471   6.191   0.857  0.00  0.00    -0.345 OA
ENDROOT
BRANCH   5   7
ATOM      7  N   UNL     1      -1.810   5.376  -0.613  0.00  0.00    -0.298 N 
ATOM      8  H   UNL     1      -1.788   4.408  -0.558  0.00  0.00    +0.150 HD
BRANCH   7   9
ATOM      9  C   UNL     1      -0.665   6.068  -0.779  0.00  0.00    +0.146 C 
ATOM     10  S   UNL     1      -0.686   7.779  -0.746  0.00  0.00    -0.018 S 
BRANCH   9  11
ATOM     11  N   UNL     1       0.496   5.412  -0.972  0.00  0.00    -0.260 N 
ATOM     12  H   UNL     1       0.494   4.451  -1.110  0.00  0.00    +0.168 HD
BRANCH  11  13
ATOM     13  N   UNL     1       1.677   6.098  -0.972  0.00  0.00    -0.231 NA
ATOM     14  C   UNL     1       2.426   5.858  -2.213  0.00  0.00    +0.087 C 
ATOM     15  C   UNL     1       3.774   6.580  -2.140  0.00  0.00    -0.062 C 
ATOM     16  C   UNL     1       2.798   8.257  -0.694  0.00  0.00    -0.062 C 
ATOM     17  C   UNL     1       1.450   7.536  -0.767  0.00  0.00    +0.087 C 
ATOM     18  C   UNL     1       4.817   8.756  -1.935  0.00  0.00    -0.096 C 
ATOM     19  N   UNL     1       3.531   8.026  -1.956  0.00  0.00    +0.380 N 
ATOM     20  H   UNL     1       2.964   8.371  -2.740  0.00  0.00    -0.082 HD
ENDBRANCH  11  13
ENDBRANCH   9  11
ENDBRANCH   7   9
ENDBRANCH   5   7
BRANCH   1  21
ATOM     21  C   UNL     1      -3.997   5.168   2.983  0.00  0.00    +0.267 C 
BRANCH  21  22
ATOM     22  O   UNL     1      -2.907   5.842   3.667  0.00  0.00    -0.462 OA
BRANCH  22  24
ATOM     23  C   UNL     1      -1.998   6.821   5.742  0.00  0.00    +0.136 C 
ATOM     24  C   UNL     1      -3.085   6.123   4.967  0.00  0.00    +0.304 C 
ATOM     25  O   UNL     1      -4.117   5.816   5.516  0.00  0.00    -0.251 OA
ENDBRANCH  22  24
ENDBRANCH  21  22
ENDBRANCH   1  21
BRANCH   4  26
ATOM     26  O   UNL     1      -3.746   5.157  -2.670  0.00  0.00    -0.453 OA
BRANCH  26  27
ATOM     27  C   UNL     1      -4.110   6.121  -3.530  0.00  0.00    +0.304 C 
ATOM     28  O   UNL     1      -4.755   7.066  -3.140  0.00  0.00    -0.251 OA
ATOM     29  C   UNL     1      -3.716   6.025  -4.981  0.00  0.00    +0.136 C 
ENDBRANCH  26  27
ENDBRANCH   4  26
BRANCH   3  30
ATOM     30  O   UNL     1      -3.113   3.178  -0.757  0.00  0.00    -0.454 OA
BRANCH  30  31
ATOM     31  C   UNL     1      -2.924   2.482  -1.889  0.00  0.00    +0.304 C 
ATOM     32  O   UNL     1      -3.719   2.573  -2.794  0.00  0.00    -0.251 OA
ATOM     33  C   UNL     1      -1.720   1.587  -2.031  0.00  0.00    +0.136 C 
ENDBRANCH  30  31
ENDBRANCH   3  30
BRANCH   2  34
ATOM     34  O   UNL     1      -5.977   4.814   0.939  0.00  0.00    -0.455 OA
BRANCH  34  35
ATOM     35  C   UNL     1      -6.734   4.539   2.014  0.00  0.00    +0.304 C 
ATOM     36  O   UNL     1      -6.348   3.742   2.836  0.00  0.00    -0.251 OA
ATOM     37  C   UNL     1      -8.063   5.225   2.194  0.00  0.00    +0.136 C 
ENDBRANCH  34  35
ENDBRANCH   2  34
TORSDOF 13
