REMARK  Name = ZINC17306290
REMARK  11 active torsions:
REMARK  status: ('A' for Active; 'I' for Inactive)
REMARK    1  A    between atoms: C_1  and  C_2
REMARK    2  A    between atoms: C_2  and  C_3
REMARK    3  A    between atoms: C_2  and  N_4
REMARK    4  A    between atoms: C_5  and  C_7
REMARK    5  A    between atoms: C_7  and  N_56
REMARK    6  A    between atoms: C_8  and  N_56
REMARK    7  A    between atoms: C_9  and  C_10
REMARK    8  A    between atoms: C_9  and  N_56
REMARK    9  A    between atoms: N_12  and  C_13
REMARK   10  A    between atoms: C_15  and  S_20
REMARK   11  A    between atoms: S_20  and  N_23
REMARK                            x       y       z     vdW  Elec       q    Type
REMARK                         _______ _______ _______ _____ _____    ______ ____
ROOT
ATOM      1  C   UNL     1      -3.769  -0.636   3.092  0.00  0.00    +0.201 C 
ATOM      2  O   UNL     1      -3.145  -0.974   2.107  0.00  0.00    -0.278 OA
ATOM      3  N   UNL     1      -3.493   0.538   3.694  0.00  0.00    -0.286 N 
ATOM      4  H   UNL     1      -3.934   0.771   4.525  0.00  0.00    +0.155 HD
ENDROOT
BRANCH   3   5
ATOM      5  C   UNL     1      -2.570   1.419   3.119  0.00  0.00    +0.054 A 
ATOM      6  C   UNL     1      -2.325   1.378   1.753  0.00  0.00    +0.053 A 
ATOM      7  C   UNL     1      -1.414   2.249   1.189  0.00  0.00    +0.107 A 
ATOM      8  C   UNL     1      -0.741   3.159   1.984  0.00  0.00    +0.030 A 
ATOM      9  C   UNL     1      -0.985   3.207   3.344  0.00  0.00    +0.024 A 
ATOM     10  C   UNL     1      -1.896   2.338   3.915  0.00  0.00    +0.062 A 
ATOM     11 CL   UNL     1      -2.198   2.394   5.623  0.00  0.00    -0.082 Cl
BRANCH   7  12
ATOM     12  S   UNL     1      -1.104   2.197  -0.545  0.00  0.00    +0.061 S 
ATOM     13  O   UNL     1      -1.452   0.890  -0.980  0.00  0.00    -0.153 OA
ATOM     14  O   UNL     1       0.192   2.746  -0.742  0.00  0.00    -0.153 OA
BRANCH  12  15
ATOM     15  N   UNL     1      -2.173   3.236  -1.265  0.00  0.00    -0.172 NA
ATOM     16  C   UNL     1      -3.492   2.770  -1.721  0.00  0.00    +0.137 C 
ATOM     17  C   UNL     1      -4.558   3.724  -1.158  0.00  0.00    +0.177 C 
ATOM     18  O   UNL     1      -4.209   5.068  -1.495  0.00  0.00    -0.377 OA
ATOM     19  C   UNL     1      -2.974   5.513  -0.928  0.00  0.00    +0.177 C 
ATOM     20  C   UNL     1      -1.829   4.652  -1.474  0.00  0.00    +0.137 C 
ENDBRANCH  12  15
ENDBRANCH   7  12
ENDBRANCH   3   5
BRANCH   1  21
ATOM     21  C   UNL     1      -4.851  -1.529   3.641  0.00  0.00    +0.019 C 
BRANCH  21  23
ATOM     22  C   UNL     1      -5.426  -2.411   1.461  0.00  0.00    -0.095 C 
ATOM     23  N   UNL     1      -4.930  -2.749   2.811  0.00  0.00    +0.389 N 
ATOM     24  H   UNL     1      -3.991  -3.158   2.729  0.00  0.00    -0.081 HD
BRANCH  23  25
ATOM     25  C   UNL     1      -5.829  -3.736   3.447  0.00  0.00    +0.019 C 
BRANCH  25  27
ATOM     26  N   UNL     1      -6.436  -6.109   3.109  0.00  0.00    -0.315 N 
ATOM     27  C   UNL     1      -5.720  -5.042   2.704  0.00  0.00    +0.197 C 
ATOM     28  O   UNL     1      -4.987  -5.133   1.742  0.00  0.00    -0.278 OA
ATOM     29  H   UNL     1      -7.022  -6.037   3.879  0.00  0.00    +0.149 HD
BRANCH  26  31
ATOM     30  C   UNL     1      -5.131  -8.169   2.916  0.00  0.00    +0.027 C 
ATOM     31  C   UNL     1      -6.330  -7.380   2.387  0.00  0.00    +0.067 C 
ATOM     32  C   UNL     1      -7.609  -8.194   2.596  0.00  0.00    +0.027 C 
ENDBRANCH  26  31
ENDBRANCH  25  27
ENDBRANCH  23  25
ENDBRANCH  21  23
ENDBRANCH   1  21
TORSDOF 8
