REMARK  Name = ZINC45457760
REMARK  8 active torsions:
REMARK  status: ('A' for Active; 'I' for Inactive)
REMARK    1  A    between atoms: C_1  and  C_2
REMARK    2  A    between atoms: C_2  and  C_3
REMARK    3  A    between atoms: C_2  and  N_4
REMARK    4  A    between atoms: C_5  and  C_7
REMARK    5  A    between atoms: N_9  and  N_10
REMARK    6  A    between atoms: C_11  and  C_13
REMARK    7  A    between atoms: N_16  and  S_19
REMARK    8  A    between atoms: S_19  and  C_22
REMARK                            x       y       z     vdW  Elec       q    Type
REMARK                         _______ _______ _______ _____ _____    ______ ____
ROOT
ATOM      1  C   UNL     1      -6.315  -5.704  -1.448  0.00  0.00    +0.079 C 
ATOM      2  C   UNL     1      -6.824  -5.769  -0.006  0.00  0.00    +0.030 C 
ATOM      3  C   UNL     1      -8.273  -6.266  -0.002  0.00  0.00    +0.110 C 
ATOM      4  N   UNL     1      -8.335  -7.546  -0.722  0.00  0.00    -0.177 NA
ATOM      5  C   UNL     1      -7.790  -7.617  -2.084  0.00  0.00    +0.110 C 
ATOM      6  C   UNL     1      -6.347  -7.104  -2.065  0.00  0.00    +0.030 C 
ENDROOT
BRANCH   1   8
ATOM      7  N   UNL     1      -4.630  -3.959  -0.962  0.00  0.00    -0.234 N 
ATOM      8  C   UNL     1      -4.901  -5.183  -1.459  0.00  0.00    +0.232 C 
ATOM      9  O   UNL     1      -4.007  -5.863  -1.915  0.00  0.00    -0.274 OA
ATOM     10  H   UNL     1      -5.346  -3.415  -0.597  0.00  0.00    +0.173 HD
BRANCH   7  13
ATOM     11  C   UNL     1      -3.045  -2.252  -0.474  0.00  0.00    +0.315 C 
ATOM     12  O   UNL     1      -3.940  -1.570  -0.018  0.00  0.00    -0.264 OA
ATOM     13  N   UNL     1      -3.316  -3.474  -0.972  0.00  0.00    -0.227 N 
ATOM     14  H   UNL     1      -2.601  -4.019  -1.336  0.00  0.00    +0.173 HD
BRANCH  11  16
ATOM     15  N   UNL     1      -1.372  -0.511   0.012  0.00  0.00    -0.305 N 
ATOM     16  C   UNL     1      -1.643  -1.734  -0.485  0.00  0.00    +0.301 C 
ATOM     17  O   UNL     1      -0.749  -2.415  -0.941  0.00  0.00    -0.265 OA
ATOM     18  H   UNL     1      -2.087   0.033   0.377  0.00  0.00    +0.149 HD
BRANCH  15  20
ATOM     19  C   UNL     1      -0.019   1.526   0.010  0.00  0.00    +0.027 C 
ATOM     20  C   UNL     1       0.002  -0.004   0.002  0.00  0.00    +0.067 C 
ATOM     21  C   UNL     1       0.742  -0.511   1.242  0.00  0.00    +0.027 C 
ENDBRANCH  15  20
ENDBRANCH  11  16
ENDBRANCH   7  13
ENDBRANCH   1   8
BRANCH   4  22
ATOM     22  S   UNL     1      -9.007  -8.882  -0.011  0.00  0.00    +0.061 S 
ATOM     23  O   UNL     1      -8.442 -10.014  -0.658  0.00  0.00    -0.153 OA
ATOM     24  O   UNL     1      -8.917  -8.683   1.393  0.00  0.00    -0.153 OA
BRANCH  22  25
ATOM     25  C   UNL     1     -10.723  -8.877  -0.411  0.00  0.00    +0.106 A 
ATOM     26  C   UNL     1     -11.622  -8.223   0.429  0.00  0.00    +0.029 A 
ATOM     27  C   UNL     1     -12.954  -8.201   0.149  0.00  0.00    +0.010 A 
ATOM     28  C   UNL     1     -13.433  -8.847  -1.003  0.00  0.00    -0.018 A 
ATOM     29  C   UNL     1     -14.801  -8.845  -1.326  0.00  0.00    +0.008 A 
ATOM     30  C   UNL     1     -15.229  -9.480  -2.451  0.00  0.00    +0.001 A 
ATOM     31  C   UNL     1     -14.329 -10.134  -3.291  0.00  0.00    +0.001 A 
ATOM     32  C   UNL     1     -12.998 -10.157  -3.011  0.00  0.00    +0.008 A 
ATOM     33  C   UNL     1     -12.519  -9.512  -1.858  0.00  0.00    -0.016 A 
ATOM     34  C   UNL     1     -11.150  -9.508  -1.539  0.00  0.00    +0.037 A 
ENDBRANCH  22  25
ENDBRANCH   4  22
TORSDOF 6
