REMARK  Name = ZINC23259764
REMARK  11 active torsions:
REMARK  status: ('A' for Active; 'I' for Inactive)
REMARK    1  A    between atoms: C_1  and  C_2
REMARK    2  A    between atoms: C_5  and  C_8
REMARK    3  A    between atoms: C_9  and  C_35
REMARK    4  A    between atoms: C_17  and  C_19
REMARK    5  A    between atoms: C_19  and  N_20
REMARK    6  A    between atoms: N_20  and  C_21
REMARK    7  A    between atoms: N_20  and  C_22
REMARK    8  A    between atoms: C_22  and  C_24
REMARK    9  A    between atoms: C_22  and  C_25
REMARK   10  A    between atoms: C_28  and  S_31
REMARK   11  A    between atoms: S_31  and  N_34
REMARK                            x       y       z     vdW  Elec       q    Type
REMARK                         _______ _______ _______ _____ _____    ______ ____
ROOT
ATOM      1  C   UNL     1       0.550  -3.567   1.169  0.00  0.00    +0.007 A 
ATOM      2  C   UNL     1      -0.509  -4.060   0.482  0.00  0.00    -0.003 A 
ATOM      3  S   UNL     1      -0.124  -5.793   0.318  0.00  0.00    -0.073 S 
ATOM      4  C   UNL     1       1.433  -5.815   1.168  0.00  0.00    +0.116 A 
ATOM      5  C   UNL     1       1.622  -4.478   1.554  0.00  0.00    +0.080 A 
ATOM      6  C   UNL     1       2.831  -4.204   2.269  0.00  0.00    +0.260 A 
ATOM      7  O   UNL     1       3.081  -3.073   2.650  0.00  0.00    -0.267 OA
ATOM      8  N   UNL     1       3.686  -5.213   2.515  0.00  0.00    -0.309 N 
ATOM      9  H   UNL     1       4.507  -5.033   3.000  0.00  0.00    +0.170 HD
ATOM     10  C   UNL     1       3.423  -6.478   2.099  0.00  0.00    +0.125 A 
ATOM     11  N   UNL     1       2.324  -6.762   1.453  0.00  0.00    -0.225 NA
ATOM     12  C   UNL     1      -1.721  -3.320  -0.023  0.00  0.00    +0.052 C 
ENDROOT
BRANCH   1  17
ATOM     13  C   UNL     1       0.821   2.022   2.527  0.00  0.00    +0.044 C 
ATOM     14  C   UNL     1       0.750   0.559   2.171  0.00  0.00    -0.050 A 
ATOM     15  C   UNL     1       0.780   0.170   0.844  0.00  0.00    +0.004 A 
ATOM     16  C   UNL     1       0.716  -1.168   0.513  0.00  0.00    +0.009 A 
ATOM     17  C   UNL     1       0.620  -2.128   1.519  0.00  0.00    -0.016 A 
ATOM     18  C   UNL     1       0.591  -1.730   2.855  0.00  0.00    +0.009 A 
ATOM     19  C   UNL     1       0.661  -0.390   3.174  0.00  0.00    +0.004 A 
ENDBRANCH   1  17
BRANCH  10  20
ATOM     20  C   UNL     1       4.410  -7.577   2.398  0.00  0.00    +0.159 C 
BRANCH  20  21
ATOM     21  N   UNL     1       3.910  -8.846   1.853  0.00  0.00    -0.292 NA
ATOM     22  C   UNL     1       2.690  -9.274   2.549  0.00  0.00    +0.106 C 
BRANCH  21  23
ATOM     23  C   UNL     1       4.944  -9.888   1.913  0.00  0.00    +0.084 C 
ATOM     24  C   UNL     1       4.366 -11.210   1.402  0.00  0.00    +0.029 C 
BRANCH  23  25
ATOM     25  C   UNL     1       6.114  -9.486   1.053  0.00  0.00    -0.030 A 
ATOM     26  C   UNL     1       7.403  -9.609   1.538  0.00  0.00    +0.007 A 
ATOM     27  C   UNL     1       8.476  -9.240   0.749  0.00  0.00    +0.029 A 
ATOM     28  C   UNL     1       8.261  -8.747  -0.524  0.00  0.00    +0.105 A 
ATOM     29  C   UNL     1       6.973  -8.625  -1.009  0.00  0.00    +0.029 A 
ATOM     30  C   UNL     1       5.899  -8.998  -0.222  0.00  0.00    +0.007 A 
BRANCH  28  31
ATOM     31  S   UNL     1       9.629  -8.275  -1.529  0.00  0.00    +0.056 S 
ATOM     32  O   UNL     1       9.135  -7.335  -2.473  0.00  0.00    -0.153 OA
ATOM     33  O   UNL     1      10.699  -7.975  -0.644  0.00  0.00    -0.153 OA
BRANCH  31  34
ATOM     34  N   UNL     1      10.089  -9.613  -2.390  0.00  0.00    -0.204 NA
ATOM     35  H   UNL     1       9.613 -10.451  -2.276  0.00  0.00    +0.144 HD
ATOM     36  H   UNL     1      10.835  -9.560  -3.009  0.00  0.00    +0.144 HD
ENDBRANCH  31  34
ENDBRANCH  28  31
ENDBRANCH  23  25
ENDBRANCH  21  23
ENDBRANCH  20  21
ENDBRANCH  10  20
TORSDOF 7
