REMARK  Name = ZINC13799063
REMARK  3 active torsions:
REMARK  status: ('A' for Active; 'I' for Inactive)
REMARK    1  A    between atoms: N_9  and  C_12
REMARK    2  A    between atoms: C_15  and  S_19
REMARK    3  A    between atoms: S_19  and  N_22
REMARK                            x       y       z     vdW  Elec       q    Type
REMARK                         _______ _______ _______ _____ _____    ______ ____
ROOT
ATOM      1  C   UNL     1      -2.356   2.657   3.686  0.00  0.00    +0.080 A 
ATOM      2  C   UNL     1      -2.560   1.406   3.120  0.00  0.00    +0.029 A 
ATOM      3  C   UNL     1      -1.846   1.031   1.999  0.00  0.00    +0.030 A 
ATOM      4  C   UNL     1      -0.927   1.900   1.439  0.00  0.00    +0.108 A 
ATOM      5  C   UNL     1      -0.716   3.145   2.003  0.00  0.00    +0.068 A 
ATOM      6  C   UNL     1      -1.432   3.529   3.122  0.00  0.00    +0.147 A 
ATOM      7  F   UNL     1      -1.230   4.747   3.670  0.00  0.00    -0.203 F 
ENDROOT
BRANCH   1  16
ATOM      8  C   UNL     1      -5.900   4.533   8.151  0.00  0.00    +0.020 A 
ATOM      9  C   UNL     1      -5.828   4.496   6.764  0.00  0.00    +0.017 A 
ATOM     10  C   UNL     1      -4.713   3.905   6.183  0.00  0.00    +0.068 A 
ATOM     11  C   UNL     1      -3.707   3.370   7.011  0.00  0.00    +0.138 A 
ATOM     12  N   UNL     1      -3.824   3.430   8.324  0.00  0.00    -0.250 NA
ATOM     13  C   UNL     1      -4.872   3.986   8.899  0.00  0.00    +0.111 A 
ATOM     14  C   UNL     1      -2.679   2.825   6.090  0.00  0.00    +0.277 C 
ATOM     15  O   UNL     1      -1.648   2.277   6.423  0.00  0.00    -0.267 OA
ATOM     16  N   UNL     1      -3.080   3.040   4.824  0.00  0.00    -0.198 N 
ATOM     17  C   UNL     1      -4.266   3.676   4.794  0.00  0.00    +0.260 C 
ATOM     18  O   UNL     1      -4.869   4.004   3.792  0.00  0.00    -0.269 OA
ENDBRANCH   1  16
BRANCH   4  19
ATOM     19  S   UNL     1      -0.017   1.417   0.010  0.00  0.00    +0.056 S 
ATOM     20  O   UNL     1       0.002  -0.004   0.002  0.00  0.00    -0.153 OA
ATOM     21  O   UNL     1       1.172   2.195   0.003  0.00  0.00    -0.153 OA
BRANCH  19  22
ATOM     22  N   UNL     1      -0.897   1.885  -1.312  0.00  0.00    -0.204 NA
ATOM     23  H   UNL     1      -1.201   1.223  -1.952  0.00  0.00    +0.144 HD
ATOM     24  H   UNL     1      -1.110   2.822  -1.446  0.00  0.00    +0.144 HD
ENDBRANCH  19  22
ENDBRANCH   4  19
TORSDOF 3
