REMARK  Name = ZINC39252094
REMARK  8 active torsions:
REMARK  status: ('A' for Active; 'I' for Inactive)
REMARK    1  A    between atoms: C_1  and  C_2
REMARK    2  A    between atoms: C_2  and  O_3
REMARK    3  A    between atoms: O_3  and  C_4
REMARK    4  A    between atoms: C_11  and  N_14
REMARK    5  A    between atoms: C_15  and  C_17
REMARK    6  A    between atoms: N_22  and  C_24
REMARK    7  A    between atoms: C_24  and  C_25
REMARK    8  A    between atoms: C_25  and  C_26
REMARK                            x       y       z     vdW  Elec       q    Type
REMARK                         _______ _______ _______ _____ _____    ______ ____
ROOT
ATOM      1  C   UNL     1       5.075  -8.507   3.357  0.00  0.00    +0.101 C 
ATOM      2  C   UNL     1       4.752  -9.735   2.474  0.00  0.00    +0.110 C 
ATOM      3  C   UNL     1       5.705 -10.804   2.963  0.00  0.00    +0.216 C 
ATOM      4  O   UNL     1       5.974 -11.822   2.361  0.00  0.00    -0.276 OA
ATOM      5  N   UNL     1       6.209 -10.461   4.161  0.00  0.00    -0.300 N 
ATOM      6  C   UNL     1       5.674  -9.172   4.616  0.00  0.00    +0.121 C 
ENDROOT
BRANCH   1   8
ATOM      7  N   UNL     1       3.115  -7.140   2.718  0.00  0.00    -0.288 N 
ATOM      8  C   UNL     1       3.822  -7.741   3.695  0.00  0.00    +0.220 C 
ATOM      9  O   UNL     1       3.450  -7.666   4.847  0.00  0.00    -0.275 OA
ATOM     10  H   UNL     1       3.413  -7.200   1.796  0.00  0.00    +0.151 HD
BRANCH   7  18
ATOM     11  C   UNL     1       0.802  -1.825   1.306  0.00  0.00    +0.122 A 
ATOM     12  C   UNL     1       0.264  -2.683   0.358  0.00  0.00    +0.047 A 
ATOM     13  C   UNL     1       0.368  -4.048   0.496  0.00  0.00    +0.027 A 
ATOM     14  C   UNL     1       1.022  -4.621   1.601  0.00  0.00    +0.043 A 
ATOM     15  C   UNL     1       1.555  -3.732   2.539  0.00  0.00    +0.035 A 
ATOM     16  C   UNL     1       1.459  -2.366   2.404  0.00  0.00    +0.062 A 
ATOM     17  S   UNL     1       2.300  -4.762   3.784  0.00  0.00    -0.082 S 
ATOM     18  C   UNL     1       1.897  -6.396   3.047  0.00  0.00    +0.224 C 
ATOM     19  N   UNL     1       1.180  -5.990   1.830  0.00  0.00    -0.316 N 
ATOM     20  H   UNL     1       0.829  -6.648   1.210  0.00  0.00    +0.149 HD
BRANCH  11  21
ATOM     21  O   UNL     1       0.693  -0.477   1.160  0.00  0.00    -0.492 OA
BRANCH  21  23
ATOM     22  C   UNL     1      -0.019   1.526   0.010  0.00  0.00    +0.048 C 
ATOM     23  C   UNL     1       0.002  -0.004   0.002  0.00  0.00    +0.225 C 
ENDBRANCH  21  23
ENDBRANCH  11  21
ENDBRANCH   7  18
ENDBRANCH   1   8
BRANCH   5  24
ATOM     24  C   UNL     1       7.171 -11.269   4.915  0.00  0.00    +0.112 C 
BRANCH  24  25
ATOM     25  C   UNL     1       8.594 -10.866   4.523  0.00  0.00    +0.056 C 
BRANCH  25  26
ATOM     26  C   UNL     1       9.583 -11.697   5.299  0.00  0.00    -0.021 A 
ATOM     27  C   UNL     1      10.070 -13.031   4.940  0.00  0.00    +0.004 A 
ATOM     28  C   UNL     1       9.820 -13.902   3.877  0.00  0.00    +0.030 A 
ATOM     29  C   UNL     1      10.460 -15.121   3.831  0.00  0.00    +0.042 A 
ATOM     30  C   UNL     1      11.348 -15.487   4.834  0.00  0.00    +0.022 A 
ATOM     31  C   UNL     1      11.604 -14.639   5.889  0.00  0.00    +0.027 A 
ATOM     32  C   UNL     1      10.970 -13.403   5.955  0.00  0.00    +0.047 A 
ATOM     33  N   UNL     1      11.017 -12.362   6.857  0.00  0.00    -0.360 N 
ATOM     34  C   UNL     1      10.188 -11.354   6.446  0.00  0.00    +0.087 A 
ATOM     35 CL   UNL     1      10.152 -16.207   2.511  0.00  0.00    -0.084 Cl
ATOM     36  H   UNL     1      11.559 -12.345   7.661  0.00  0.00    +0.165 HD
ENDBRANCH  25  26
ENDBRANCH  24  25
ENDBRANCH   5  24
TORSDOF 7
