REMARK  Name = ZINC33154866
REMARK  7 active torsions:
REMARK  status: ('A' for Active; 'I' for Inactive)
REMARK    1  A    between atoms: C_7  and  C_11
REMARK    2  A    between atoms: N_12  and  N_13
REMARK    3  A    between atoms: C_14  and  C_16
REMARK    4  A    between atoms: C_16  and  C_17
REMARK    5  A    between atoms: C_17  and  C_18
REMARK    6  A    between atoms: N_20  and  C_21
REMARK    7  A    between atoms: C_23  and  C_28
REMARK                            x       y       z     vdW  Elec       q    Type
REMARK                         _______ _______ _______ _____ _____    ______ ____
ROOT
ATOM      1  C   UNL     1      -1.670   3.946   0.075  0.00  0.00    +0.107 C 
ENDROOT
BRANCH   1   3
ATOM      2  N   UNL     1      -2.129   1.538  -0.256  0.00  0.00    -0.207 N 
ATOM      3  C   UNL     1      -2.596   2.757   0.077  0.00  0.00    +0.233 C 
ATOM      4  O   UNL     1      -3.763   2.897   0.380  0.00  0.00    -0.274 OA
ATOM      5  H   UNL     1      -1.071   1.410  -0.530  0.00  0.00    +0.177 HD
BRANCH   2   7
ATOM      6  C   UNL     1      -2.515  -0.761  -0.446  0.00  0.00    +0.140 C 
ATOM      7  N   UNL     1      -2.990   0.433  -0.255  0.00  0.00    -0.188 NA
BRANCH   6  14
ATOM      8  C   UNL     1       0.262  -4.394  -1.458  0.00  0.00    +0.001 A 
ATOM      9  C   UNL     1       1.567  -4.199  -1.026  0.00  0.00    +0.002 A 
ATOM     10  C   UNL     1       1.925  -3.038  -0.377  0.00  0.00    +0.026 A 
ATOM     11  C   UNL     1       0.974  -2.047  -0.151  0.00  0.00    +0.047 A 
ATOM     12  C   UNL     1      -0.345  -2.246  -0.590  0.00  0.00    +0.008 A 
ATOM     13  C   UNL     1      -0.693  -3.426  -1.244  0.00  0.00    +0.010 A 
ATOM     14  C   UNL     1      -1.089  -1.033  -0.204  0.00  0.00    +0.020 A 
ATOM     15  C   UNL     1      -0.199  -0.214   0.419  0.00  0.00    +0.093 A 
ATOM     16  N   UNL     1       1.027  -0.809   0.454  0.00  0.00    -0.360 N 
ATOM     17  H   UNL     1       1.975  -0.443   0.875  0.00  0.00    +0.165 HD
ENDBRANCH   6  14
ENDBRANCH   2   7
ENDBRANCH   1   3
BRANCH   1  18
ATOM     18  C   UNL     1      -2.446   5.198   0.489  0.00  0.00    +0.105 C 
BRANCH  18  19
ATOM     19  C   UNL     1      -1.520   6.387   0.487  0.00  0.00    +0.218 C 
ATOM     20  O   UNL     1      -0.354   6.246   0.184  0.00  0.00    -0.275 OA
ATOM     21  N   UNL     1      -1.988   7.606   0.821  0.00  0.00    -0.284 N 
ATOM     22  H   UNL     1      -3.061   7.749   1.013  0.00  0.00    +0.155 HD
BRANCH  21  23
ATOM     23  C   UNL     1      -1.107   8.689   0.923  0.00  0.00    +0.052 A 
ATOM     24  C   UNL     1       0.048   8.722   0.154  0.00  0.00    +0.037 A 
ATOM     25  C   UNL     1       0.913   9.794   0.253  0.00  0.00    +0.057 A 
ATOM     26  C   UNL     1       0.634  10.831   1.125  0.00  0.00    +0.014 A 
ATOM     27  C   UNL     1      -0.513  10.800   1.897  0.00  0.00    +0.022 A 
ATOM     28  C   UNL     1      -1.385   9.732   1.798  0.00  0.00    +0.062 A 
ATOM     29 CL   UNL     1      -2.825   9.694   2.767  0.00  0.00    -0.082 Cl
BRANCH  25  30
ATOM     30  C   UNL     1       2.165   9.832  -0.585  0.00  0.00    +0.417 C 
ATOM     31  F   UNL     1       2.877  11.004  -0.307  0.00  0.00    -0.166 F 
ATOM     32  F   UNL     1       2.961   8.721  -0.285  0.00  0.00    -0.166 F 
ATOM     33  F   UNL     1       1.820   9.806  -1.940  0.00  0.00    -0.166 F 
ENDBRANCH  25  30
ENDBRANCH  21  23
ENDBRANCH  18  19
ENDBRANCH   1  18
TORSDOF 7
