REMARK  Name = ZINC40658761
REMARK  8 active torsions:
REMARK  status: ('A' for Active; 'I' for Inactive)
REMARK    1  A    between atoms: C_10  and  C_11
REMARK    2  A    between atoms: N_13  and  N_14
REMARK    3  A    between atoms: C_16  and  N_30
REMARK    4  A    between atoms: C_17  and  N_21
REMARK    5  A    between atoms: N_21  and  C_22
REMARK    6  A    between atoms: C_22  and  C_23
REMARK    7  A    between atoms: C_23  and  C_24
REMARK    8  A    between atoms: C_24  and  N_25
REMARK                            x       y       z     vdW  Elec       q    Type
REMARK                         _______ _______ _______ _____ _____    ______ ____
ROOT
ATOM      1  N   UNL     1       7.323   0.192   0.035  0.00  0.00    -0.246 N 
ATOM      2  C   UNL     1       8.531  -0.483   0.125  0.00  0.00    +0.171 A 
ATOM      3  C   UNL     1       9.733   0.218   0.124  0.00  0.00    +0.206 A 
ATOM      4  C   UNL     1      10.918  -0.505   0.216  0.00  0.00    +0.154 A 
ATOM      5  N   UNL     1      10.859  -1.833   0.302  0.00  0.00    -0.218 NA
ATOM      6  C   UNL     1       9.701  -2.460   0.300  0.00  0.00    +0.225 A 
ATOM      7  N   UNL     1       8.557  -1.811   0.220  0.00  0.00    -0.217 NA
ATOM      8  H   UNL     1       7.312   1.159  -0.033  0.00  0.00    +0.172 HD
ENDROOT
BRANCH   1  11
ATOM      9  C   UNL     1       4.945   0.132  -0.044  0.00  0.00    +0.261 C 
ATOM     10  O   UNL     1       4.931   1.345  -0.130  0.00  0.00    -0.269 OA
ATOM     11  N   UNL     1       6.119  -0.524   0.043  0.00  0.00    -0.231 N 
ATOM     12  H   UNL     1       6.130  -1.491   0.112  0.00  0.00    +0.173 HD
BRANCH   9  22
ATOM     13  C   UNL     1      -0.015   1.356   0.074  0.00  0.00    +0.001 A 
ATOM     14  C   UNL     1       1.169   2.089   0.067  0.00  0.00    +0.001 A 
ATOM     15  C   UNL     1       2.379   1.464   0.032  0.00  0.00    +0.009 A 
ATOM     16  C   UNL     1       2.436   0.064   0.001  0.00  0.00    -0.006 A 
ATOM     17  C   UNL     1       1.233  -0.683   0.008  0.00  0.00    -0.017 A 
ATOM     18  C   UNL     1       0.003  -0.005   0.045  0.00  0.00    +0.008 A 
ATOM     19  C   UNL     1       1.289  -2.087  -0.021  0.00  0.00    +0.008 A 
ATOM     20  C   UNL     1       2.494  -2.723  -0.056  0.00  0.00    +0.001 A 
ATOM     21  C   UNL     1       3.685  -2.008  -0.063  0.00  0.00    +0.014 A 
ATOM     22  C   UNL     1       3.677  -0.621  -0.036  0.00  0.00    +0.046 A 
ENDBRANCH   9  22
ENDBRANCH   1  11
BRANCH   3  23
ATOM     23  N   UNL     1       9.751   1.695   0.026  0.00  0.00    +0.063 N 
ATOM     24  O   UNL     1       9.718   2.368   1.030  0.00  0.00    -0.126 OA
ATOM     25  O   UNL     1       9.797   2.229  -1.058  0.00  0.00    -0.126 OA
ENDBRANCH   3  23
BRANCH   4  26
ATOM     26  N   UNL     1      12.141   0.147   0.218  0.00  0.00    -0.327 N 
ATOM     27  H   UNL     1      12.176   1.114   0.155  0.00  0.00    +0.148 HD
BRANCH  26  28
ATOM     28  C   UNL     1      13.383  -0.625   0.316  0.00  0.00    +0.105 C 
BRANCH  28  29
ATOM     29  C   UNL     1      14.579   0.328   0.297  0.00  0.00    +0.040 C 
BRANCH  29  30
ATOM     30  C   UNL     1      15.875  -0.479   0.400  0.00  0.00    +0.124 C 
BRANCH  30  31
ATOM     31  N   UNL     1      17.021   0.434   0.382  0.00  0.00    -0.338 N 
ATOM     32  C   UNL     1      17.694   0.872  -0.728  0.00  0.00    +0.104 A 
ATOM     33  C   UNL     1      18.670   1.691  -0.293  0.00  0.00    +0.101 A 
ATOM     34  N   UNL     1      18.596   1.752   1.045  0.00  0.00    -0.352 N 
ATOM     35  C   UNL     1      17.607   1.005   1.456  0.00  0.00    +0.173 A 
ATOM     36  H   UNL     1      19.182   2.272   1.617  0.00  0.00    +0.166 HD
ENDBRANCH  30  31
ENDBRANCH  29  30
ENDBRANCH  28  29
ENDBRANCH  26  28
ENDBRANCH   4  26
TORSDOF 8
