REMARK  Name = ZINC17523827
REMARK  9 active torsions:
REMARK  status: ('A' for Active; 'I' for Inactive)
REMARK    1  A    between atoms: C_1  and  C_2
REMARK    2  A    between atoms: C_5  and  N_9
REMARK    3  A    between atoms: C_10  and  C_12
REMARK    4  A    between atoms: C_12  and  C_14
REMARK    5  A    between atoms: C_12  and  N_57
REMARK    6  A    between atoms: N_18  and  S_21
REMARK    7  A    between atoms: S_21  and  C_24
REMARK    8  A    between atoms: C_25  and  C_30
REMARK    9  A    between atoms: C_28  and  C_29
REMARK                            x       y       z     vdW  Elec       q    Type
REMARK                         _______ _______ _______ _____ _____    ______ ____
ROOT
ATOM      1  C   UNL     1      -3.049  -2.972   1.371  0.00  0.00    -0.076 C 
ATOM      2  C   UNL     1      -3.434  -4.315   1.846  0.00  0.00    -0.001 C 
ATOM      3  C   UNL     1      -3.025  -5.378   0.797  0.00  0.00    +0.107 C 
ATOM      4  N   UNL     1      -3.855  -5.241  -0.380  0.00  0.00    -0.178 NA
ATOM      5  C   UNL     1      -3.505  -4.356  -1.510  0.00  0.00    +0.091 C 
ATOM      6  C   UNL     1      -2.953  -3.004  -1.020  0.00  0.00    -0.060 C 
ATOM      7  N   UNL     1      -3.731  -2.568   0.130  0.00  0.00    +0.388 N 
ATOM      8  H   UNL     1      -4.656  -3.013   0.096  0.00  0.00    -0.081 HD
ENDROOT
BRANCH   4   9
ATOM      9  S   UNL     1      -5.259  -6.115  -0.464  0.00  0.00    +0.066 S 
ATOM     10  O   UNL     1      -5.570  -6.252  -1.844  0.00  0.00    -0.153 OA
ATOM     11  O   UNL     1      -5.092  -7.236   0.394  0.00  0.00    -0.153 OA
BRANCH   9  12
ATOM     12  C   UNL     1      -6.533  -5.125   0.243  0.00  0.00    +0.170 A 
ATOM     13  C   UNL     1      -7.376  -4.195  -0.408  0.00  0.00    +0.107 A 
ATOM     14  N   UNL     1      -8.159  -3.704   0.508  0.00  0.00    -0.081 NA
ATOM     15  O   UNL     1      -7.927  -4.183   1.595  0.00  0.00    -0.358 OA
ATOM     16  C   UNL     1      -6.935  -5.082   1.536  0.00  0.00    +0.161 A 
ATOM     17  C   UNL     1      -6.375  -5.884   2.682  0.00  0.00    +0.091 C 
ATOM     18  C   UNL     1      -7.368  -3.842  -1.873  0.00  0.00    +0.071 C 
ENDBRANCH   9  12
ENDBRANCH   4   9
BRANCH   7  19
ATOM     19  C   UNL     1      -3.903  -1.102   0.102  0.00  0.00    +0.016 C 
ATOM     20  C   UNL     1      -2.552  -0.409  -0.084  0.00  0.00    -0.004 C 
BRANCH  19  22
ATOM     21  N   UNL     1      -5.137   0.546  -1.268  0.00  0.00    -0.286 N 
ATOM     22  C   UNL     1      -4.814  -0.743  -1.044  0.00  0.00    +0.203 C 
ATOM     23  O   UNL     1      -5.256  -1.613  -1.764  0.00  0.00    -0.277 OA
ATOM     24  H   UNL     1      -4.731   1.248  -0.736  0.00  0.00    +0.155 HD
BRANCH  21  29
ATOM     25  C   UNL     1      -8.884   1.860  -5.322  0.00  0.00    +0.044 C 
ATOM     26  C   UNL     1      -7.887   1.513  -4.246  0.00  0.00    -0.049 A 
ATOM     27  C   UNL     1      -7.034   0.439  -4.417  0.00  0.00    +0.005 A 
ATOM     28  C   UNL     1      -6.119   0.118  -3.433  0.00  0.00    +0.024 A 
ATOM     29  C   UNL     1      -6.059   0.873  -2.269  0.00  0.00    +0.047 A 
ATOM     30  C   UNL     1      -6.915   1.955  -2.102  0.00  0.00    +0.039 A 
ATOM     31  C   UNL     1      -7.828   2.270  -3.091  0.00  0.00    +0.020 A 
ATOM     32 BR   UNL     1      -6.835   2.990  -0.522  0.00  0.00    -0.048 Br
ENDBRANCH  21  29
ENDBRANCH  19  22
ENDBRANCH   7  19
TORSDOF 5
