REMARK  Name = ZINC29767513
REMARK  7 active torsions:
REMARK  status: ('A' for Active; 'I' for Inactive)
REMARK    1  A    between atoms: C_1  and  N_2
REMARK    2  A    between atoms: C_3  and  C_5
REMARK    3  A    between atoms: C_16  and  C_18
REMARK    4  A    between atoms: C_18  and  S_19
REMARK    5  A    between atoms: S_19  and  C_20
REMARK    6  A    between atoms: C_23  and  C_29
REMARK    7  A    between atoms: C_25  and  N_26
REMARK                            x       y       z     vdW  Elec       q    Type
REMARK                         _______ _______ _______ _____ _____    ______ ____
ROOT
ATOM      1  C   UNL     1       2.345   0.005   0.419  0.00  0.00    +0.276 C 
ATOM      2  C   UNL     1       2.426   1.355  -0.307  0.00  0.00    +0.168 C 
ATOM      3  N   UNL     1       1.194   2.102   0.002  0.00  0.00    -0.264 N 
ATOM      4  C   UNL     1      -0.019   1.391  -0.006  0.00  0.00    +0.078 A 
ATOM      5  C   UNL     1      -1.224   2.075  -0.001  0.00  0.00    +0.027 A 
ATOM      6  C   UNL     1      -2.415   1.372  -0.010  0.00  0.00    +0.002 A 
ATOM      7  C   UNL     1      -2.402  -0.011  -0.015  0.00  0.00    +0.004 A 
ATOM      8  C   UNL     1      -1.203  -0.698  -0.017  0.00  0.00    +0.047 A 
ATOM      9  C   UNL     1      -0.004  -0.001  -0.013  0.00  0.00    +0.143 A 
ATOM     10  O   UNL     1       1.171  -0.684  -0.019  0.00  0.00    -0.476 OA
ATOM     11  C   UNL     1       1.229   3.420   0.282  0.00  0.00    +0.230 C 
ATOM     12  O   UNL     1       0.195   4.029   0.457  0.00  0.00    -0.274 OA
ENDROOT
BRANCH   1  15
ATOM     13  C   UNL     1       5.967  -1.211   0.189  0.00  0.00    +0.128 C 
ATOM     14  N   UNL     1       4.781  -0.411   0.506  0.00  0.00    -0.315 N 
ATOM     15  C   UNL     1       3.564  -0.818   0.093  0.00  0.00    +0.255 C 
ATOM     16  O   UNL     1       3.451  -1.846  -0.540  0.00  0.00    -0.272 OA
ATOM     17  H   UNL     1       4.884   0.522   1.080  0.00  0.00    +0.148 HD
ENDBRANCH   1  15
BRANCH  11  18
ATOM     18  C   UNL     1       2.551   4.135   0.377  0.00  0.00    +0.170 C 
BRANCH  18  19
ATOM     19  S   UNL     1       2.275   5.848   0.907  0.00  0.00    -0.114 S 
BRANCH  19  20
ATOM     20  C   UNL     1       3.894   6.541   0.970  0.00  0.00    +0.039 A 
ATOM     21  C   UNL     1       4.999   5.758   0.641  0.00  0.00    +0.018 A 
ATOM     22  C   UNL     1       6.256   6.290   0.688  0.00  0.00    +0.014 A 
ATOM     23  C   UNL     1       6.438   7.624   1.066  0.00  0.00    +0.039 A 
ATOM     24  C   UNL     1       5.332   8.412   1.396  0.00  0.00    +0.047 A 
ATOM     25  C   UNL     1       4.067   7.872   1.342  0.00  0.00    +0.140 A 
BRANCH  23  26
ATOM     26  C   UNL     1       7.796   8.198   1.116  0.00  0.00    +0.242 C 
ATOM     27  O   UNL     1       7.953   9.358   1.445  0.00  0.00    -0.270 OA
ATOM     28  N   UNL     1       8.862   7.437   0.798  0.00  0.00    -0.325 N 
ATOM     29  H   UNL     1       9.874   7.865   0.836  0.00  0.00    +0.145 HD
ATOM     30  H   UNL     1       8.719   6.387   0.501  0.00  0.00    +0.145 HD
ENDBRANCH  23  26
BRANCH  25  31
ATOM     31  N   UNL     1       2.891   8.704   1.684  0.00  0.00    +0.058 N 
ATOM     32  O   UNL     1       3.042   9.868   2.010  0.00  0.00    -0.126 OA
ATOM     33  O   UNL     1       1.772   8.224   1.641  0.00  0.00    -0.126 OA
ENDBRANCH  25  31
ENDBRANCH  19  20
ENDBRANCH  18  19
ENDBRANCH  11  18
TORSDOF 6
