REMARK  Name = ZINC41006854
REMARK  11 active torsions:
REMARK  status: ('A' for Active; 'I' for Inactive)
REMARK    1  A    between atoms: C_1  and  C_2
REMARK    2  A    between atoms: C_2  and  O_40
REMARK    3  A    between atoms: C_6  and  C_31
REMARK    4  A    between atoms: C_8  and  C_21
REMARK    5  A    between atoms: C_10  and  C_12
REMARK    6  A    between atoms: N_14  and  C_15
REMARK    7  A    between atoms: C_24  and  C_27
REMARK    8  A    between atoms: C_27  and  C_28
REMARK    9  A    between atoms: C_27  and  C_29
REMARK   10  A    between atoms: C_27  and  C_30
REMARK   11  A    between atoms: N_33  and  C_34
REMARK                            x       y       z     vdW  Elec       q    Type
REMARK                         _______ _______ _______ _____ _____    ______ ____
ROOT
ATOM      1  C   UNL     1       1.201   1.736   0.986  0.00  0.00    +0.042 C 
ATOM      2  C   UNL     1       1.484   0.260   0.702  0.00  0.00    +0.082 C 
ATOM      3  C   UNL     1       2.276   0.133  -0.604  0.00  0.00    +0.110 C 
ATOM      4  C   UNL     1       3.632   0.774  -0.408  0.00  0.00    +0.148 C 
ATOM      5  O   UNL     1       4.046   1.598  -1.188  0.00  0.00    -0.296 OA
ATOM      6  C   UNL     1       4.456   0.357   0.789  0.00  0.00    +0.149 C 
ATOM      7  C   UNL     1       3.586   0.476   2.045  0.00  0.00    +0.053 C 
ATOM      8  C   UNL     1       2.302  -0.333   1.851  0.00  0.00    +0.115 C 
ENDROOT
BRANCH   7   9
ATOM      9  C   UNL     1       4.342  -0.059   3.233  0.00  0.00    -0.042 A 
ATOM     10  C   UNL     1       4.555  -1.419   3.362  0.00  0.00    +0.004 A 
ATOM     11  C   UNL     1       5.249  -1.910   4.452  0.00  0.00    +0.004 A 
ATOM     12  C   UNL     1       5.730  -1.041   5.413  0.00  0.00    -0.042 A 
ATOM     13  C   UNL     1       5.518   0.319   5.284  0.00  0.00    +0.004 A 
ATOM     14  C   UNL     1       4.828   0.810   4.192  0.00  0.00    +0.004 A 
BRANCH  12  15
ATOM     15  C   UNL     1       6.486  -1.576   6.603  0.00  0.00    -0.013 C 
ATOM     16  C   UNL     1       7.732  -2.322   6.121  0.00  0.00    +0.015 C 
ATOM     17  C   UNL     1       6.904  -0.414   7.506  0.00  0.00    +0.015 C 
ATOM     18  C   UNL     1       5.588  -2.535   7.387  0.00  0.00    +0.015 C 
ENDBRANCH  12  15
ENDBRANCH   7   9
BRANCH   8  19
ATOM     19  C   UNL     1       2.654  -1.762   1.530  0.00  0.00    +0.224 C 
ATOM     20  O   UNL     1       3.042  -2.057   0.419  0.00  0.00    -0.275 OA
ATOM     21  N   UNL     1       2.537  -2.714   2.477  0.00  0.00    -0.285 N 
ATOM     22  H   UNL     1       2.289  -2.470   3.382  0.00  0.00    +0.155 HD
BRANCH  21  23
ATOM     23  C   UNL     1       2.773  -4.055   2.155  0.00  0.00    +0.033 A 
ATOM     24  C   UNL     1       2.667  -4.483   0.838  0.00  0.00    +0.023 A 
ATOM     25  C   UNL     1       2.901  -5.808   0.523  0.00  0.00    +0.002 A 
ATOM     26  C   UNL     1       3.241  -6.707   1.517  0.00  0.00    +0.000 A 
ATOM     27  C   UNL     1       3.348  -6.283   2.829  0.00  0.00    +0.002 A 
ATOM     28  C   UNL     1       3.121  -4.959   3.150  0.00  0.00    +0.023 A 
ENDBRANCH  21  23
ENDBRANCH   8  19
BRANCH   6  29
ATOM     29  C   UNL     1       4.913  -1.069   0.618  0.00  0.00    +0.228 C 
ATOM     30  O   UNL     1       5.484  -1.636   1.526  0.00  0.00    -0.275 OA
ATOM     31  N   UNL     1       4.688  -1.713  -0.544  0.00  0.00    -0.285 N 
ATOM     32  H   UNL     1       4.279  -1.244  -1.288  0.00  0.00    +0.155 HD
BRANCH  31  33
ATOM     33  C   UNL     1       5.043  -3.060  -0.677  0.00  0.00    +0.033 A 
ATOM     34  C   UNL     1       5.320  -3.821   0.451  0.00  0.00    +0.023 A 
ATOM     35  C   UNL     1       5.670  -5.151   0.316  0.00  0.00    +0.002 A 
ATOM     36  C   UNL     1       5.745  -5.724  -0.940  0.00  0.00    +0.000 A 
ATOM     37  C   UNL     1       5.469  -4.968  -2.065  0.00  0.00    +0.002 A 
ATOM     38  C   UNL     1       5.113  -3.640  -1.937  0.00  0.00    +0.023 A 
ENDBRANCH  31  33
ENDBRANCH   6  29
BRANCH   2  39
ATOM     39  O   UNL     1       0.249  -0.448   0.581  0.00  0.00    -0.388 OA
ATOM     40  H   UNL     1      -0.321  -0.125  -0.130  0.00  0.00    +0.210 HD
ENDBRANCH   2  39
TORSDOF 7
