REMARK  Name = ZINC65025225
REMARK  7 active torsions:
REMARK  status: ('A' for Active; 'I' for Inactive)
REMARK    1  A    between atoms: C_1  and  C_2
REMARK    2  A    between atoms: C_5  and  S_9
REMARK    3  A    between atoms: C_6  and  C_8
REMARK    4  A    between atoms: S_9  and  N_12
REMARK    5  A    between atoms: N_12  and  C_13
REMARK    6  A    between atoms: C_15  and  C_25
REMARK    7  A    between atoms: C_32  and  C_34
REMARK                            x       y       z     vdW  Elec       q    Type
REMARK                         _______ _______ _______ _____ _____    ______ ____
ROOT
ATOM      1  C   UNL     1       1.532  -5.569   2.482  0.00  0.00    +0.067 A 
ATOM      2  C   UNL     1       2.752  -4.944   2.703  0.00  0.00    +0.042 A 
ATOM      3  C   UNL     1       3.144  -4.700   4.024  0.00  0.00    +0.079 A 
ATOM      4  C   UNL     1       2.291  -5.095   5.067  0.00  0.00    +0.133 A 
ATOM      5  N   UNL     1       1.137  -5.688   4.804  0.00  0.00    -0.238 NA
ATOM      6  C   UNL     1       0.742  -5.925   3.568  0.00  0.00    +0.137 A 
ATOM      7  N   UNL     1       2.660  -4.863   6.382  0.00  0.00    -0.318 N 
ATOM      8  C   UNL     1       2.193  -3.666   7.099  0.00  0.00    +0.087 C 
ATOM      9  C   UNL     1       1.600  -4.104   8.442  0.00  0.00    -0.063 C 
ATOM     10  N   UNL     1       2.590  -4.902   9.176  0.00  0.00    +0.381 N 
ATOM     11  C   UNL     1       2.873  -6.144   8.445  0.00  0.00    -0.063 C 
ATOM     12  C   UNL     1       3.525  -5.809   7.104  0.00  0.00    +0.087 C 
ATOM     13  H   UNL     1       3.442  -4.370   9.275  0.00  0.00    -0.086 HD
ATOM     14  H   UNL     1       2.228  -5.126  10.091  0.00  0.00    -0.086 HD
ENDROOT
BRANCH   3  15
ATOM     15  C   UNL     1       4.430  -4.040   4.315  0.00  0.00    +0.250 C 
ATOM     16  O   UNL     1       4.457  -3.040   5.006  0.00  0.00    -0.270 OA
ATOM     17  N   UNL     1       5.575  -4.546   3.817  0.00  0.00    -0.295 N 
ATOM     18  C   UNL     1       5.549  -5.687   2.891  0.00  0.00    +0.108 C 
ATOM     19  C   UNL     1       6.469  -6.784   3.435  0.00  0.00    +0.019 C 
ATOM     20  C   UNL     1       7.864  -6.202   3.676  0.00  0.00    +0.003 C 
ATOM     21  C   UNL     1       7.778  -5.083   4.717  0.00  0.00    +0.022 C 
ATOM     22  C   UNL     1       6.873  -3.963   4.183  0.00  0.00    +0.073 C 
ATOM     23  C   UNL     1       6.671  -2.903   5.268  0.00  0.00    +0.028 C 
ENDBRANCH   3  15
BRANCH   1  24
ATOM     24  N   UNL     1       1.098  -5.833   1.176  0.00  0.00    -0.215 N 
ATOM     25  H   UNL     1       1.712  -6.214   0.529  0.00  0.00    +0.174 HD
BRANCH  24  26
ATOM     26  S   UNL     1      -0.463  -5.495   0.738  0.00  0.00    +0.073 S 
ATOM     27  O   UNL     1      -1.298  -6.077   1.729  0.00  0.00    -0.150 OA
ATOM     28  O   UNL     1      -0.576  -5.819  -0.641  0.00  0.00    -0.150 OA
BRANCH  26  33
ATOM     29  C   UNL     1      -1.178   0.481   1.170  0.00  0.00    +0.044 C 
ATOM     30  C   UNL     1      -1.000  -1.012   1.062  0.00  0.00    -0.050 A 
ATOM     31  C   UNL     1      -1.717  -1.856   1.890  0.00  0.00    +0.005 A 
ATOM     32  C   UNL     1      -1.553  -3.224   1.790  0.00  0.00    +0.029 A 
ATOM     33  C   UNL     1      -0.672  -3.750   0.863  0.00  0.00    +0.111 A 
ATOM     34  C   UNL     1       0.044  -2.906   0.035  0.00  0.00    -0.024 A 
ATOM     35  C   UNL     1      -0.123  -1.537   0.131  0.00  0.00    +0.008 A 
ATOM     36  C   UNL     1       1.004  -3.479  -0.975  0.00  0.00    +0.046 C 
ENDBRANCH  26  33
ENDBRANCH  24  26
ENDBRANCH   1  24
TORSDOF 4
