REMARK  Name = ZINC04144329
REMARK  6 active torsions:
REMARK  status: ('A' for Active; 'I' for Inactive)
REMARK    1  A    between atoms: C_4  and  C_7
REMARK    2  A    between atoms: C_7  and  C_9
REMARK    3  A    between atoms: C_11  and  C_23
REMARK    4  A    between atoms: C_17  and  C_18
REMARK    5  A    between atoms: C_17  and  O_22
REMARK    6  A    between atoms: C_27  and  N_29
REMARK                            x       y       z     vdW  Elec       q    Type
REMARK                         _______ _______ _______ _____ _____    ______ ____
ROOT
ATOM      1  C   UNL     1       1.154   1.394   0.029  0.00  0.00    +0.144 C 
ATOM      2  C   UNL     1       1.842   1.504   1.393  0.00  0.00    +0.120 C 
ATOM      3  N   UNL     1       2.643   0.301   1.626  0.00  0.00    -0.292 N 
ATOM      4  C   UNL     1       2.301  -0.879   1.089  0.00  0.00    +0.302 C 
ATOM      5  O   UNL     1       2.995  -1.850   1.322  0.00  0.00    -0.253 OA
ATOM      6  N   UNL     1       1.224  -1.032   0.304  0.00  0.00    -0.264 N 
ATOM      7  C   UNL     1       0.342   0.095  -0.004  0.00  0.00    +0.243 C 
ATOM      8  H   UNL     1       3.438   0.359   2.179  0.00  0.00    +0.151 HD
ATOM      9  H   UNL     1       1.026  -1.906  -0.066  0.00  0.00    +0.153 HD
ENDROOT
BRANCH   2  10
ATOM     10  C   UNL     1       0.800   1.633   2.474  0.00  0.00    -0.024 A 
ATOM     11  C   UNL     1       0.249   2.868   2.760  0.00  0.00    +0.005 A 
ATOM     12  C   UNL     1      -0.710   2.985   3.749  0.00  0.00    +0.003 A 
ATOM     13  C   UNL     1      -1.111   1.868   4.458  0.00  0.00    +0.033 A 
ATOM     14  C   UNL     1      -0.556   0.634   4.176  0.00  0.00    +0.127 A 
ATOM     15  C   UNL     1       0.400   0.516   3.184  0.00  0.00    +0.038 A 
BRANCH  14  16
ATOM     16  N   UNL     1      -0.986  -0.562   4.935  0.00  0.00    +0.056 N 
ATOM     17  O   UNL     1      -0.497  -1.650   4.686  0.00  0.00    -0.126 OA
ATOM     18  O   UNL     1      -1.828  -0.458   5.809  0.00  0.00    -0.126 OA
ENDBRANCH  14  16
ENDBRANCH   2  10
BRANCH   7  19
ATOM     19  C   UNL     1      -0.262  -0.095  -1.397  0.00  0.00    +0.436 C 
ATOM     20  F   UNL     1      -1.107  -1.210  -1.391  0.00  0.00    -0.166 F 
ATOM     21  F   UNL     1      -0.995   1.044  -1.748  0.00  0.00    -0.166 F 
ATOM     22  F   UNL     1       0.765  -0.294  -2.327  0.00  0.00    -0.166 F 
ENDBRANCH   7  19
BRANCH   1  23
ATOM     23  C   UNL     1       2.194   1.368  -1.062  0.00  0.00    +0.173 C 
ATOM     24  O   UNL     1       3.017   0.477  -1.094  0.00  0.00    -0.292 OA
BRANCH  23  28
ATOM     25  C   UNL     1       2.245   4.410  -4.017  0.00  0.00    +0.000 A 
ATOM     26  C   UNL     1       3.099   3.327  -4.130  0.00  0.00    +0.001 A 
ATOM     27  C   UNL     1       3.089   2.334  -3.173  0.00  0.00    +0.011 A 
ATOM     28  C   UNL     1       2.212   2.424  -2.087  0.00  0.00    +0.018 A 
ATOM     29  C   UNL     1       1.349   3.519  -1.983  0.00  0.00    +0.011 A 
ATOM     30  C   UNL     1       1.375   4.506  -2.945  0.00  0.00    +0.001 A 
ENDBRANCH  23  28
ENDBRANCH   1  23
BRANCH   7  31
ATOM     31  O   UNL     1      -0.705   0.162   0.966  0.00  0.00    -0.364 OA
ATOM     32  H   UNL     1      -1.258  -0.631   1.003  0.00  0.00    +0.212 HD
ENDBRANCH   7  31
TORSDOF 6
