REMARK  Name = ZINC07803618
REMARK  15 active torsions:
REMARK  status: ('A' for Active; 'I' for Inactive)
REMARK    1  A    between atoms: C_1  and  C_2
REMARK    2  A    between atoms: C_2  and  C_3
REMARK    3  A    between atoms: C_3  and  C_4
REMARK    4  A    between atoms: C_4  and  N_5
REMARK    5  A    between atoms: C_6  and  N_31
REMARK    6  A    between atoms: C_7  and  N_14
REMARK    7  A    between atoms: N_14  and  C_15
REMARK    8  A    between atoms: C_15  and  C_16
REMARK    9  A    between atoms: C_16  and  C_17
REMARK   10  A    between atoms: C_16  and  C_18
REMARK   11  A    between atoms: C_19  and  C_21
REMARK   12  A    between atoms: C_21  and  O_22
REMARK   13  A    between atoms: O_22  and  C_23
REMARK   14  A    between atoms: C_27  and  C_30
REMARK   15  A    between atoms: C_28  and  C_29
REMARK                            x       y       z     vdW  Elec       q    Type
REMARK                         _______ _______ _______ _____ _____    ______ ____
ROOT
ATOM      1  N   UNL     1      -1.239  -4.906  -2.266  0.00  0.00    -0.261 N 
ATOM      2  C   UNL     1      -1.351  -4.257  -3.444  0.00  0.00    +0.258 C 
ATOM      3  O   UNL     1      -1.381  -3.045  -3.468  0.00  0.00    -0.272 OA
ENDROOT
BRANCH   1   6
ATOM      4  N   UNL     1      -0.233  -3.475   0.965  0.00  0.00    -0.280 N 
ATOM      5  C   UNL     1      -0.175  -4.187  -0.211  0.00  0.00    +0.127 A 
ATOM      6  C   UNL     1      -1.266  -4.181  -1.056  0.00  0.00    +0.140 A 
ATOM      7  C   UNL     1      -2.403  -3.435  -0.694  0.00  0.00    +0.277 A 
ATOM      8  O   UNL     1      -3.378  -3.409  -1.425  0.00  0.00    -0.266 OA
ATOM      9  N   UNL     1      -2.406  -2.750   0.467  0.00  0.00    -0.273 N 
ATOM     10  H   UNL     1      -3.213  -2.220   0.725  0.00  0.00    +0.173 HD
ATOM     11  C   UNL     1      -1.336  -2.772   1.281  0.00  0.00    +0.331 A 
ATOM     12  O   UNL     1      -1.366  -2.145   2.323  0.00  0.00    -0.246 OA
BRANCH   5  13
ATOM     13  N   UNL     1       0.953  -4.900  -0.536  0.00  0.00    -0.343 N 
ATOM     14  H   UNL     1       1.677  -4.982   0.104  0.00  0.00    +0.144 HD
ATOM     15  H   UNL     1       1.027  -5.321  -1.407  0.00  0.00    +0.144 HD
ENDBRANCH   5  13
BRANCH   4  16
ATOM     16  C   UNL     1       0.915  -3.477   1.875  0.00  0.00    +0.128 C 
BRANCH  16  17
ATOM     17  C   UNL     1       0.774  -4.630   2.870  0.00  0.00    +0.021 C 
BRANCH  17  19
ATOM     18  C   UNL     1       1.833  -5.786   4.816  0.00  0.00    +0.004 C 
ATOM     19  C   UNL     1       1.973  -4.633   3.821  0.00  0.00    -0.002 C 
ENDBRANCH  17  19
ENDBRANCH  16  17
ENDBRANCH   4  16
ENDBRANCH   1   6
BRANCH   1  20
ATOM     20  C   UNL     1      -1.090  -6.363  -2.244  0.00  0.00    +0.117 C 
BRANCH  20  21
ATOM     21  C   UNL     1      -2.471  -7.018  -2.317  0.00  0.00    +0.001 C 
ATOM     22  C   UNL     1      -2.311  -8.535  -2.435  0.00  0.00    +0.009 C 
ATOM     23  C   UNL     1      -3.260  -6.687  -1.049  0.00  0.00    +0.009 C 
ENDBRANCH  20  21
ENDBRANCH   1  20
BRANCH   2  24
ATOM     24  C   UNL     1      -1.438  -5.039  -4.730  0.00  0.00    +0.325 C 
BRANCH  24  25
ATOM     25  O   UNL     1      -1.549  -4.135  -5.830  0.00  0.00    -0.482 OA
BRANCH  25  26
ATOM     26  C   UNL     1      -1.638  -4.681  -7.072  0.00  0.00    +0.124 A 
ATOM     27  C   UNL     1      -1.618  -6.060  -7.227  0.00  0.00    +0.046 A 
ATOM     28  C   UNL     1      -1.708  -6.613  -8.489  0.00  0.00    +0.004 A 
ATOM     29  C   UNL     1      -1.818  -5.793  -9.598  0.00  0.00    +0.004 A 
ATOM     30  C   UNL     1      -1.839  -4.420  -9.446  0.00  0.00    -0.044 A 
ATOM     31  C   UNL     1      -1.754  -3.862  -8.185  0.00  0.00    -0.006 A 
ATOM     32  C   UNL     1      -1.782  -2.364  -8.019  0.00  0.00    +0.048 C 
ATOM     33  C   UNL     1      -1.958  -3.530 -10.656  0.00  0.00    +0.044 C 
ENDBRANCH  25  26
ENDBRANCH  24  25
ENDBRANCH   2  24
TORSDOF 10
