REMARK  Name = ZINC08795736
REMARK  5 active torsions:
REMARK  status: ('A' for Active; 'I' for Inactive)
REMARK    1  A    between atoms: C_3  and  C_7
REMARK    2  A    between atoms: N_13  and  S_14
REMARK    3  A    between atoms: S_14  and  C_17
REMARK    4  A    between atoms: C_20  and  N_23
REMARK    5  A    between atoms: N_26  and  C_27
REMARK                            x       y       z     vdW  Elec       q    Type
REMARK                         _______ _______ _______ _____ _____    ______ ____
ROOT
ATOM      1  C   UNL     1      -3.007   4.382  -0.221  0.00  0.00    +0.106 A 
ATOM      2  C   UNL     1      -3.404   4.177  -1.529  0.00  0.00    +0.030 A 
ATOM      3  C   UNL     1      -4.554   3.462  -1.800  0.00  0.00    +0.025 A 
ATOM      4  C   UNL     1      -5.318   2.958  -0.755  0.00  0.00    +0.035 A 
ATOM      5  C   UNL     1      -4.920   3.170   0.558  0.00  0.00    +0.025 A 
ATOM      6  C   UNL     1      -3.765   3.881   0.821  0.00  0.00    +0.030 A 
ENDROOT
BRANCH   4   7
ATOM      7  N   UNL     1      -6.487   2.238  -1.026  0.00  0.00    -0.269 N 
ATOM      8  C   UNL     1      -7.519   2.278  -0.159  0.00  0.00    +0.308 C 
ATOM      9  O   UNL     1      -7.473   3.015   0.807  0.00  0.00    -0.252 OA
ATOM     10  N   UNL     1      -8.601   1.500  -0.363  0.00  0.00    -0.269 N 
ATOM     11  H   UNL     1      -6.555   1.710  -1.837  0.00  0.00    +0.156 HD
ATOM     12  H   UNL     1      -8.604   0.855  -1.087  0.00  0.00    +0.156 HD
BRANCH  10  13
ATOM     13  C   UNL     1      -9.719   1.624   0.470  0.00  0.00    +0.035 A 
ATOM     14  C   UNL     1     -10.491   0.509   0.769  0.00  0.00    +0.025 A 
ATOM     15  C   UNL     1     -11.590   0.633   1.596  0.00  0.00    +0.022 A 
ATOM     16  C   UNL     1     -11.929   1.869   2.118  0.00  0.00    +0.041 A 
ATOM     17  C   UNL     1     -11.165   2.983   1.817  0.00  0.00    +0.022 A 
ATOM     18  C   UNL     1     -10.061   2.863   0.995  0.00  0.00    +0.025 A 
ATOM     19 CL   UNL     1     -13.315   2.022   3.151  0.00  0.00    -0.084 Cl
ENDBRANCH  10  13
ENDBRANCH   4   7
BRANCH   1  20
ATOM     20  S   UNL     1      -1.536   5.290   0.120  0.00  0.00    +0.061 S 
ATOM     21  O   UNL     1      -1.603   5.675   1.486  0.00  0.00    -0.153 OA
ATOM     22  O   UNL     1      -1.388   6.234  -0.932  0.00  0.00    -0.153 OA
BRANCH  20  28
ATOM     23  C   UNL     1       0.173   3.444   1.147  0.00  0.00    +0.111 C 
ATOM     24  C   UNL     1       1.675   3.667   1.352  0.00  0.00    +0.025 C 
ATOM     25  C   UNL     1       2.417   3.344   0.053  0.00  0.00    +0.003 C 
ATOM     26  C   UNL     1       1.937   4.282  -1.057  0.00  0.00    +0.017 C 
ATOM     27  C   UNL     1       0.439   4.066  -1.290  0.00  0.00    +0.110 C 
ATOM     28  N   UNL     1      -0.267   4.233  -0.012  0.00  0.00    -0.169 NA
BRANCH  23  31
ATOM     29  C   UNL     1      -0.847   5.344   4.243  0.00  0.00    +0.020 A 
ATOM     30  C   UNL     1      -0.122   4.966   3.123  0.00  0.00    +0.008 A 
ATOM     31  C   UNL     1      -0.576   3.890   2.376  0.00  0.00    -0.011 A 
ATOM     32  C   UNL     1      -1.722   3.228   2.776  0.00  0.00    +0.116 A 
ATOM     33  N   UNL     1      -2.383   3.613   3.850  0.00  0.00    -0.263 NA
ATOM     34  C   UNL     1      -1.983   4.635   4.581  0.00  0.00    +0.111 A 
ENDBRANCH  23  31
ENDBRANCH  20  28
ENDBRANCH   1  20
TORSDOF 5
