REMARK  Name = ZINC65247122
REMARK  7 active torsions:
REMARK  status: ('A' for Active; 'I' for Inactive)
REMARK    1  A    between atoms: C_1  and  C_2
REMARK    2  A    between atoms: C_2  and  C_3
REMARK    3  A    between atoms: C_13  and  S_15
REMARK    4  A    between atoms: S_15  and  N_18
REMARK    5  A    between atoms: N_21  and  C_24
REMARK    6  A    between atoms: C_26  and  C_31
REMARK    7  A    between atoms: C_29  and  C_30
REMARK                            x       y       z     vdW  Elec       q    Type
REMARK                         _______ _______ _______ _____ _____    ______ ____
ROOT
ATOM      1  S   UNL     1      -0.312  -5.367  -3.057  0.00  0.00    +0.058 S 
ATOM      2  O   UNL     1      -1.167  -4.775  -4.026  0.00  0.00    -0.153 OA
ATOM      3  O   UNL     1       0.783  -6.199  -3.415  0.00  0.00    -0.153 OA
ENDROOT
BRANCH   1  12
ATOM      4  C   UNL     1       0.718  -0.497  -1.257  0.00  0.00    +0.212 C 
ATOM      5  N   UNL     1       2.139  -0.124  -1.207  0.00  0.00    -0.172 NA
ATOM      6  N   UNL     1       3.037  -0.893  -0.889  0.00  0.00    -0.082 NA
ATOM      7  C   UNL     1       2.908  -2.185  -0.540  0.00  0.00    +0.274 C 
ATOM      8  O   UNL     1       3.887  -2.860  -0.322  0.00  0.00    -0.270 OA
ATOM      9  C   UNL     1       1.527  -2.783  -0.425  0.00  0.00    +0.170 C 
ATOM     10  N   UNL     1       0.669  -1.964  -1.321  0.00  0.00    -0.300 N 
ATOM     11  C   UNL     1      -0.036  -2.791  -2.155  0.00  0.00    +0.097 C 
ATOM     12  C   UNL     1       0.350  -4.048  -2.096  0.00  0.00    +0.099 C 
ATOM     13  C   UNL     1       1.465  -4.182  -1.052  0.00  0.00    +0.089 C 
BRANCH   4  15
ATOM     14  C   UNL     1      -0.019   1.526   0.010  0.00  0.00    +0.007 C 
ATOM     15  C   UNL     1       0.002  -0.004   0.002  0.00  0.00    +0.045 C 
ENDBRANCH   4  15
ENDBRANCH   1  12
BRANCH   1  16
ATOM     16  N   UNL     1      -1.280  -6.264  -2.057  0.00  0.00    -0.174 NA
ATOM     17  C   UNL     1      -0.726  -7.388  -1.290  0.00  0.00    +0.128 C 
ATOM     18  C   UNL     1      -1.039  -7.171   0.195  0.00  0.00    +0.122 C 
ATOM     19  N   UNL     1      -2.468  -6.856   0.333  0.00  0.00    -0.327 N 
ATOM     20  C   UNL     1      -3.022  -5.732  -0.434  0.00  0.00    +0.122 C 
ATOM     21  C   UNL     1      -2.708  -5.946  -1.915  0.00  0.00    +0.128 C 
BRANCH  19  22
ATOM     22  C   UNL     1      -3.284  -7.613   1.177  0.00  0.00    +0.033 A 
ATOM     23  C   UNL     1      -3.444  -7.242   2.506  0.00  0.00    +0.026 A 
ATOM     24  C   UNL     1      -4.252  -7.992   3.337  0.00  0.00    -0.049 A 
ATOM     25  C   UNL     1      -4.902  -9.111   2.848  0.00  0.00    +0.004 A 
ATOM     26  C   UNL     1      -4.744  -9.482   1.526  0.00  0.00    +0.005 A 
ATOM     27  C   UNL     1      -3.942  -8.733   0.687  0.00  0.00    -0.029 A 
ATOM     28  C   UNL     1      -3.776  -9.135  -0.756  0.00  0.00    +0.045 C 
ATOM     29  C   UNL     1      -4.427  -7.591   4.780  0.00  0.00    +0.044 C 
ENDBRANCH  19  22
ENDBRANCH   1  16
TORSDOF 4
