REMARK  Name = ZINC09237964
REMARK  9 active torsions:
REMARK  status: ('A' for Active; 'I' for Inactive)
REMARK    1  A    between atoms: C_1  and  C_2
REMARK    2  A    between atoms: C_2  and  C_3
REMARK    3  A    between atoms: C_3  and  C_4
REMARK    4  A    between atoms: C_5  and  O_27
REMARK    5  A    between atoms: C_7  and  S_11
REMARK    6  A    between atoms: C_9  and  O_10
REMARK    7  A    between atoms: S_11  and  C_12
REMARK    8  A    between atoms: N_17  and  C_20
REMARK    9  A    between atoms: C_23  and  C_26
REMARK                            x       y       z     vdW  Elec       q    Type
REMARK                         _______ _______ _______ _____ _____    ______ ____
ROOT
ATOM      1  S   UNL     1       2.856  -1.926  -4.942  0.00  0.00    -0.073 S 
ENDROOT
BRANCH   1   2
ATOM      2  C   UNL     1       1.412  -2.032  -6.028  0.00  0.00    +0.150 C 
ATOM      3  C   UNL     1       1.806  -2.615  -7.400  0.00  0.00    +0.120 C 
ATOM      4  C   UNL     1       1.470  -1.495  -8.367  0.00  0.00    +0.228 C 
ATOM      5  O   UNL     1       1.628  -1.534  -9.568  0.00  0.00    -0.275 OA
ATOM      6  N   UNL     1       0.971  -0.458  -7.683  0.00  0.00    -0.209 N 
ATOM      7  C   UNL     1       0.893  -0.650  -6.361  0.00  0.00    +0.240 C 
ATOM      8  O   UNL     1       0.474   0.155  -5.557  0.00  0.00    -0.274 OA
BRANCH   6   9
ATOM      9  C   UNL     1       0.564   0.733  -8.302  0.00  0.00    +0.044 A 
ATOM     10  C   UNL     1      -0.779   1.083  -8.320  0.00  0.00    +0.024 A 
ATOM     11  C   UNL     1      -1.177   2.259  -8.926  0.00  0.00    +0.005 A 
ATOM     12  C   UNL     1      -0.240   3.082  -9.523  0.00  0.00    -0.050 A 
ATOM     13  C   UNL     1       1.098   2.733  -9.511  0.00  0.00    +0.005 A 
ATOM     14  C   UNL     1       1.502   1.561  -8.902  0.00  0.00    +0.024 A 
ATOM     15  C   UNL     1      -0.678   4.361 -10.189  0.00  0.00    +0.044 C 
ENDBRANCH   6   9
ENDBRANCH   1   2
BRANCH   1  19
ATOM     16  C   UNL     1       0.924  -0.413  -1.233  0.00  0.00    +0.075 A 
ATOM     17  C   UNL     1       0.172  -0.660  -2.377  0.00  0.00    +0.223 A 
ATOM     18  N   UNL     1       0.784  -1.107  -3.468  0.00  0.00    -0.187 NA
ATOM     19  C   UNL     1       2.091  -1.327  -3.472  0.00  0.00    +0.195 A 
ATOM     20  N   UNL     1       2.836  -1.108  -2.399  0.00  0.00    -0.187 NA
ATOM     21  C   UNL     1       2.292  -0.656  -1.274  0.00  0.00    +0.223 A 
BRANCH  21  22
ATOM     22  O   UNL     1       3.062  -0.435  -0.180  0.00  0.00    -0.492 OA
ATOM     23  H   UNL     1       3.146  -1.202   0.403  0.00  0.00    +0.294 HD
ENDBRANCH  21  22
BRANCH  17  24
ATOM     24  O   UNL     1      -1.165  -0.442  -2.379  0.00  0.00    -0.492 OA
ATOM     25  H   UNL     1      -1.418   0.452  -2.648  0.00  0.00    +0.294 HD
ENDBRANCH  17  24
BRANCH  16  26
ATOM     26  C   UNL     1       0.269   0.099   0.024  0.00  0.00    +0.045 C 
BRANCH  26  28
ATOM     27  C   UNL     1      -0.390   2.149   1.292  0.00  0.00    +0.004 C 
ATOM     28  C   UNL     1       0.275   1.629   0.015  0.00  0.00    +0.002 C 
ENDBRANCH  26  28
ENDBRANCH  16  26
ENDBRANCH   1  19
TORSDOF 7
