REMARK  Name = ZINC32529386
REMARK  11 active torsions:
REMARK  status: ('A' for Active; 'I' for Inactive)
REMARK    1  A    between atoms: C_1  and  C_2
REMARK    2  A    between atoms: C_2  and  C_3
REMARK    3  A    between atoms: C_3  and  C_5
REMARK    4  A    between atoms: C_3  and  S_18
REMARK    5  A    between atoms: N_7  and  C_8
REMARK    6  A    between atoms: C_11  and  S_14
REMARK    7  A    between atoms: S_14  and  N_17
REMARK    8  A    between atoms: S_18  and  C_19
REMARK    9  A    between atoms: C_21  and  C_31
REMARK   10  A    between atoms: C_24  and  C_30
REMARK   11  A    between atoms: C_26  and  C_29
REMARK                            x       y       z     vdW  Elec       q    Type
REMARK                         _______ _______ _______ _____ _____    ______ ____
ROOT
ATOM      1  C   UNL     1       2.469  -4.187  -0.275  0.00  0.00    +0.138 C 
ENDROOT
BRANCH   1   2
ATOM      2  C   UNL     1       2.738  -2.704  -0.260  0.00  0.00    +0.231 C 
ATOM      3  O   UNL     1       3.850  -2.287  -0.502  0.00  0.00    -0.274 OA
ATOM      4  N   UNL     1       1.741  -1.841   0.022  0.00  0.00    -0.285 N 
ATOM      5  H   UNL     1       0.753  -2.221   0.322  0.00  0.00    +0.155 HD
BRANCH   4   6
ATOM      6  C   UNL     1       1.963  -0.463  -0.065  0.00  0.00    +0.034 A 
ATOM      7  C   UNL     1       2.841   0.042  -1.016  0.00  0.00    +0.025 A 
ATOM      8  C   UNL     1       3.058   1.403  -1.100  0.00  0.00    +0.030 A 
ATOM      9  C   UNL     1       2.402   2.264  -0.240  0.00  0.00    +0.105 A 
ATOM     10  C   UNL     1       1.527   1.765   0.708  0.00  0.00    +0.030 A 
ATOM     11  C   UNL     1       1.306   0.404   0.798  0.00  0.00    +0.025 A 
BRANCH   9  12
ATOM     12  S   UNL     1       2.681   4.000  -0.350  0.00  0.00    +0.056 S 
ATOM     13  O   UNL     1       2.365   4.544   0.923  0.00  0.00    -0.153 OA
ATOM     14  O   UNL     1       3.955   4.168  -0.956  0.00  0.00    -0.153 OA
BRANCH  12  15
ATOM     15  N   UNL     1       1.567   4.608  -1.415  0.00  0.00    -0.204 NA
ATOM     16  H   UNL     1       1.709   5.694  -1.512  0.00  0.00    +0.144 HD
ATOM     17  H   UNL     1       0.553   4.402  -1.042  0.00  0.00    +0.144 HD
ENDBRANCH  12  15
ENDBRANCH   9  12
ENDBRANCH   4   6
ENDBRANCH   1   2
BRANCH   1  19
ATOM     18  C   UNL     1       1.505  -6.063  -1.613  0.00  0.00    +0.005 C 
ATOM     19  C   UNL     1       1.927  -4.593  -1.647  0.00  0.00    +0.020 C 
ENDBRANCH   1  19
BRANCH   1  20
ATOM     20  S   UNL     1       4.008  -5.082   0.055  0.00  0.00    -0.093 S 
BRANCH  20  21
ATOM     21  C   UNL     1       4.297  -4.589   1.721  0.00  0.00    +0.099 A 
ATOM     22  C   UNL     1       5.503  -4.947   2.342  0.00  0.00    +0.038 A 
ATOM     23  C   UNL     1       5.741  -4.573   3.630  0.00  0.00    -0.039 A 
ATOM     24  C   UNL     1       4.750  -3.828   4.303  0.00  0.00    +0.004 A 
ATOM     25  C   UNL     1       4.930  -3.411   5.631  0.00  0.00    +0.013 A 
ATOM     26  C   UNL     1       3.952  -2.693   6.250  0.00  0.00    -0.050 A 
ATOM     27  C   UNL     1       2.774  -2.367   5.582  0.00  0.00    +0.008 A 
ATOM     28  C   UNL     1       2.567  -2.756   4.294  0.00  0.00    -0.024 A 
ATOM     29  C   UNL     1       3.554  -3.498   3.622  0.00  0.00    +0.075 A 
ATOM     30  N   UNL     1       3.378  -3.888   2.354  0.00  0.00    -0.240 NA
ATOM     31  C   UNL     1       1.285  -2.391   3.590  0.00  0.00    +0.046 C 
ATOM     32  C   UNL     1       4.147  -2.245   7.676  0.00  0.00    +0.044 C 
ATOM     33  C   UNL     1       7.028  -4.947   4.318  0.00  0.00    +0.044 C 
ENDBRANCH  20  21
ENDBRANCH   1  20
TORSDOF 7
