REMARK  Name = ZINC39686307
REMARK  7 active torsions:
REMARK  status: ('A' for Active; 'I' for Inactive)
REMARK    1  A    between atoms: C_1  and  C_2
REMARK    2  A    between atoms: C_2  and  C_3
REMARK    3  A    between atoms: C_2  and  C_4
REMARK    4  A    between atoms: C_4  and  C_5
REMARK    5  A    between atoms: C_10  and  N_13
REMARK    6  A    between atoms: C_14  and  C_16
REMARK    7  A    between atoms: C_27  and  C_29
REMARK                            x       y       z     vdW  Elec       q    Type
REMARK                         _______ _______ _______ _____ _____    ______ ____
ROOT
ATOM      1  C   UNL     1       7.220  -3.426  -4.905  0.00  0.00    +0.100 C 
ATOM      2  C   UNL     1       6.879  -4.779  -5.569  0.00  0.00    +0.121 C 
ATOM      3  N   UNL     1       7.294  -4.619  -6.982  0.00  0.00    -0.300 N 
ATOM      4  C   UNL     1       8.561  -3.852  -6.909  0.00  0.00    +0.115 C 
ATOM      5  C   UNL     1       8.326  -2.822  -5.786  0.00  0.00    -0.004 C 
ATOM      6  C   UNL     1       7.864  -1.494  -6.378  0.00  0.00    -0.010 C 
ATOM      7  C   UNL     1       9.002  -0.885  -7.203  0.00  0.00    -0.082 C 
ATOM      8  N   UNL     1      10.176  -0.680  -6.346  0.00  0.00    +0.379 N 
ATOM      9  C   UNL     1      10.669  -1.973  -5.855  0.00  0.00    -0.082 C 
ATOM     10  C   UNL     1       9.602  -2.627  -4.973  0.00  0.00    -0.010 C 
ATOM     11  C   UNL     1       6.663  -5.068  -8.085  0.00  0.00    +0.219 C 
ATOM     12  O   UNL     1       5.587  -5.617  -7.986  0.00  0.00    -0.275 OA
ATOM     13  H   UNL     1      10.902  -0.224  -6.876  0.00  0.00    -0.086 HD
ATOM     14  H   UNL     1       9.920  -0.100  -5.561  0.00  0.00    -0.086 HD
ENDROOT
BRANCH  11  15
ATOM     15  C   UNL     1       7.295  -4.887  -9.441  0.00  0.00    +0.079 C 
ATOM     16  C   UNL     1       6.205  -4.879 -10.521  0.00  0.00    +0.017 C 
ATOM     17  C   UNL     1       6.853  -4.517 -11.859  0.00  0.00    +0.027 C 
ATOM     18  C   UNL     1       8.069  -5.365 -12.091  0.00  0.00    -0.031 C 
ATOM     19  C   UNL     1       8.678  -6.029 -11.161  0.00  0.00    -0.030 C 
ATOM     20  C   UNL     1       8.251  -6.049  -9.722  0.00  0.00    +0.039 C 
ENDBRANCH  11  15
BRANCH   1  22
ATOM     21  N   UNL     1       5.863  -1.608  -3.920  0.00  0.00    -0.312 N 
ATOM     22  C   UNL     1       6.010  -2.528  -4.893  0.00  0.00    +0.218 C 
ATOM     23  O   UNL     1       5.168  -2.634  -5.760  0.00  0.00    -0.275 OA
ATOM     24  H   UNL     1       6.536  -1.524  -3.227  0.00  0.00    +0.149 HD
BRANCH  21  30
ATOM     25  C   UNL     1       3.191   2.998  -3.071  0.00  0.00    +0.216 C 
ATOM     26  O   UNL     1       3.335   3.884  -3.886  0.00  0.00    -0.276 OA
ATOM     27  N   UNL     1       3.346   1.711  -3.440  0.00  0.00    -0.301 N 
ATOM     28  C   UNL     1       3.169   0.626  -2.465  0.00  0.00    +0.109 C 
ATOM     29  C   UNL     1       4.420  -0.258  -2.478  0.00  0.00    +0.041 C 
ATOM     30  C   UNL     1       4.686  -0.735  -3.908  0.00  0.00    +0.076 C 
ATOM     31  C   UNL     1       4.939   0.473  -4.812  0.00  0.00    +0.041 C 
ATOM     32  C   UNL     1       3.689   1.366  -4.826  0.00  0.00    +0.109 C 
BRANCH  25  33
ATOM     33  C   UNL     1       2.839   3.336  -1.645  0.00  0.00    +0.099 C 
BRANCH  33  35
ATOM     34  C   UNL     1       1.548   5.362  -2.333  0.00  0.00    +0.008 C 
ATOM     35  C   UNL     1       2.723   4.854  -1.494  0.00  0.00    -0.008 C 
ATOM     36  C   UNL     1       2.489   5.205  -0.024  0.00  0.00    +0.008 C 
ENDBRANCH  33  35
ENDBRANCH  25  33
ENDBRANCH  21  30
ENDBRANCH   1  22
TORSDOF 5
