REMARK  Name = ZINC39940473
REMARK  7 active torsions:
REMARK  status: ('A' for Active; 'I' for Inactive)
REMARK    1  A    between atoms: C_1  and  C_2
REMARK    2  A    between atoms: C_5  and  C_20
REMARK    3  A    between atoms: C_6  and  C_19
REMARK    4  A    between atoms: N_8  and  C_9
REMARK    5  A    between atoms: C_13  and  C_15
REMARK    6  A    between atoms: C_21  and  C_22
REMARK    7  A    between atoms: C_21  and  C_24
REMARK                            x       y       z     vdW  Elec       q    Type
REMARK                         _______ _______ _______ _____ _____    ______ ____
ROOT
ATOM      1  C   UNL     1       0.503   2.172  -0.908  0.00  0.00    +0.032 C 
ATOM      2  C   UNL     1       0.247   0.667  -0.805  0.00  0.00    +0.094 C 
ATOM      3  C   UNL     1       1.097  -0.067  -1.809  0.00  0.00    +0.000 C 
ATOM      4  C   UNL     1       1.913  -0.905  -1.179  0.00  0.00    -0.028 C 
ATOM      5  C   UNL     1       1.688  -0.813   0.308  0.00  0.00    +0.101 C 
ATOM      6  N   UNL     1       0.629   0.185   0.529  0.00  0.00    -0.317 N 
ATOM      7  C   UNL     1       1.245  -2.172   0.852  0.00  0.00    +0.033 C 
ENDROOT
BRANCH   6   8
ATOM      8  C   UNL     1       0.096   0.594   1.755  0.00  0.00    +0.031 A 
ATOM      9  C   UNL     1       0.573   0.042   2.939  0.00  0.00    +0.024 A 
ATOM     10  C   UNL     1       0.051   0.440   4.154  0.00  0.00    +0.022 A 
ATOM     11  C   UNL     1      -0.951   1.391   4.203  0.00  0.00    +0.055 A 
ATOM     12  C   UNL     1      -1.438   1.953   3.018  0.00  0.00    +0.083 A 
ATOM     13  C   UNL     1      -0.904   1.552   1.791  0.00  0.00    +0.039 A 
ATOM     14 CL   UNL     1      -1.604   1.888   5.732  0.00  0.00    -0.083 Cl
BRANCH  12  15
ATOM     15  C   UNL     1      -2.506   2.968   3.065  0.00  0.00    +0.388 C 
ATOM     16  O   UNL     1      -2.931   3.457   2.028  0.00  0.00    -0.241 OA
ATOM     17  O   UNL     1      -2.969   3.320   4.141  0.00  0.00    -0.241 OA
ENDBRANCH  12  15
ENDBRANCH   6   8
BRANCH   4  18
ATOM     18  C   UNL     1       2.884  -1.786  -1.830  0.00  0.00    +0.023 C 
ATOM     19  C   UNL     1       2.476  -2.655  -2.781  0.00  0.00    +0.072 C 
BRANCH  19  20
ATOM     20  C   UNL     1       1.006  -2.818  -3.073  0.00  0.00    +0.216 C 
ATOM     21  N   UNL     1       0.655  -4.243  -3.111  0.00  0.00    -0.359 N 
ATOM     22  C   UNL     1       0.199  -4.501  -4.303  0.00  0.00    +0.060 A 
ATOM     23  C   UNL     1      -0.303  -5.728  -4.937  0.00  0.00    +0.027 A 
ATOM     24  C   UNL     1      -0.719  -5.692  -6.218  0.00  0.00    +0.002 A 
ATOM     25  C   UNL     1      -0.696  -4.517  -6.991  0.00  0.00    +0.002 A 
ATOM     26  C   UNL     1      -0.255  -3.338  -6.507  0.00  0.00    +0.027 A 
ATOM     27  C   UNL     1       0.223  -3.257  -5.120  0.00  0.00    +0.060 A 
ATOM     28  N   UNL     1       0.694  -2.278  -4.402  0.00  0.00    -0.359 N 
ATOM     29  H   UNL     1       0.747  -4.877  -2.383  0.00  0.00    +0.162 HD
ATOM     30  H   UNL     1       0.815  -1.361  -4.692  0.00  0.00    +0.162 HD
ENDBRANCH  19  20
BRANCH  19  31
ATOM     31  C   UNL     1       3.440  -3.422  -3.511  0.00  0.00    +0.099 C 
ATOM     32  N   UNL     1       4.205  -4.030  -4.090  0.00  0.00    -0.191 NA
ENDBRANCH  19  31
ENDBRANCH   4  18
TORSDOF 5
