REMARK  Name = ZINC19426893
REMARK  2 active torsions:
REMARK  status: ('A' for Active; 'I' for Inactive)
REMARK    1  A    between atoms: C_6  and  C_7
REMARK    2  A    between atoms: C_10  and  C_14
REMARK                            x       y       z     vdW  Elec       q    Type
REMARK                         _______ _______ _______ _____ _____    ______ ____
ROOT
ATOM      1  C   UNK     1       1.150   3.594   0.010  0.00  0.00    +0.020 C 
ATOM      2  N   UNK     1       2.362   4.137  -0.641  0.00  0.00    +0.399 N 
ATOM      3  C   UNK     1       3.297   4.843   0.244  0.00  0.00    +0.055 C 
ATOM      4  C   UNK     1       2.535   5.546   1.406  0.00  0.00    +0.063 C 
ATOM      5  S   UNK     1       1.270   4.238   1.732  0.00  0.00    -0.173 S 
ATOM      6  H   UNK     1       2.932   3.315  -1.099  0.00  0.00    -0.083 HD
ATOM      7  H   UNK     1       2.069   4.858  -1.419  0.00  0.00    -0.083 HD
ENDROOT
BRANCH   1  13
ATOM      8  C   UNK     1       2.378   1.414  -0.013  0.00  0.00    +0.006 A 
ATOM      9  C   UNK     1       2.400   0.031  -0.021  0.00  0.00    +0.041 A 
ATOM     10  C   UNK     1       1.213  -0.680  -0.013  0.00  0.00    +0.158 A 
ATOM     11  C   UNK     1       0.002  -0.004   0.002  0.00  0.00    +0.159 A 
ATOM     12  C   UNK     1      -0.017   1.379   0.010  0.00  0.00    +0.044 A 
ATOM     13  C   UNK     1       1.171   2.087   0.002  0.00  0.00    -0.049 A 
ATOM     14  F   UNK     1      -1.158  -0.696   0.010  0.00  0.00    -0.202 F 
ATOM     15  F   UNK     1       1.234  -2.030  -0.021  0.00  0.00    -0.202 F 
ENDBRANCH   1  13
BRANCH   3  16
ATOM     16  C   UNK     1       4.047   5.878  -0.554  0.00  0.00    +0.343 C 
ATOM     17  O   UNK     1       3.591   6.285  -1.596  0.00  0.00    -0.248 OA
ATOM     18  O   UNK     1       5.223   6.347  -0.108  0.00  0.00    -0.248 OA
ENDBRANCH   3  16
TORSDOF 2
