REMARK  Name = ZINC09463228
REMARK  6 active torsions:
REMARK  status: ('A' for Active; 'I' for Inactive)
REMARK    1  A    between atoms: C_1  and  C_2
REMARK    2  A    between atoms: C_2  and  C_3
REMARK    3  A    between atoms: C_3  and  N_4
REMARK    4  A    between atoms: C_10  and  S_11
REMARK    5  A    between atoms: S_11  and  C_12
REMARK    6  A    between atoms: C_12  and  C_13
REMARK                            x       y       z     vdW  Elec       q    Type
REMARK                         _______ _______ _______ _____ _____    ______ ____
ROOT
ATOM      1  C   UNL     1      -1.353  -3.796   3.756  0.00  0.00    +0.112 C 
ENDROOT
BRANCH   1   2
ATOM      2  C   UNL     1      -1.343  -3.464   5.226  0.00  0.00    -0.032 A 
ATOM      3  C   UNL     1      -0.141  -3.291   5.886  0.00  0.00    +0.054 A 
ATOM      4  C   UNL     1      -0.129  -2.985   7.239  0.00  0.00    +0.164 A 
ATOM      5  C   UNL     1      -1.328  -2.851   7.929  0.00  0.00    +0.180 A 
ATOM      6  C   UNL     1      -2.531  -3.028   7.261  0.00  0.00    +0.086 A 
ATOM      7  C   UNL     1      -2.536  -3.328   5.911  0.00  0.00    +0.028 A 
ATOM      8 CL   UNL     1      -4.031  -2.866   8.120  0.00  0.00    -0.080 Cl
ATOM      9  O   UNL     1      -1.338  -2.544   9.255  0.00  0.00    -0.483 OA
ATOM     10  C   UNL     1      -0.114  -2.741   9.971  0.00  0.00    +0.270 C 
ATOM     11  C   UNL     1       1.030  -2.147   9.139  0.00  0.00    +0.270 C 
ATOM     12  O   UNL     1       1.063  -2.821   7.876  0.00  0.00    -0.485 OA
ENDBRANCH   1   2
BRANCH   1  13
ATOM     13  S   UNL     1      -1.383  -2.260   2.790  0.00  0.00    -0.081 S 
BRANCH  13  20
ATOM     14  N   UNL     1      -1.413  -1.998   0.005  0.00  0.00    -0.271 N 
ATOM     15  C   UNL     1      -1.407  -2.781  -1.092  0.00  0.00    +0.345 A 
ATOM     16  O   UNL     1      -1.417  -2.400  -2.249  0.00  0.00    -0.245 OA
ATOM     17  N   UNL     1      -1.388  -4.065  -0.677  0.00  0.00    -0.226 N 
ATOM     18  H   UNL     1      -1.379  -4.852  -1.244  0.00  0.00    +0.194 HD
ATOM     19  N   UNL     1      -1.383  -4.052   0.725  0.00  0.00    -0.145 NA
ATOM     20  C   UNL     1      -1.392  -2.810   1.116  0.00  0.00    +0.192 A 
BRANCH  14  21
ATOM     21  C   UNL     1      -1.433  -0.534   0.013  0.00  0.00    +0.129 C 
BRANCH  21  23
ATOM     22  C   UNL     1      -0.019   1.526   0.010  0.00  0.00    +0.005 C 
ATOM     23  C   UNL     1       0.002  -0.004   0.002  0.00  0.00    +0.018 C 
ENDBRANCH  21  23
ENDBRANCH  14  21
ENDBRANCH  13  20
ENDBRANCH   1  13
TORSDOF 5
