REMARK  Name = ZINC20758879
REMARK  8 active torsions:
REMARK  status: ('A' for Active; 'I' for Inactive)
REMARK    1  A    between atoms: C_1  and  C_2
REMARK    2  A    between atoms: C_4  and  C_36
REMARK    3  A    between atoms: C_6  and  N_8
REMARK    4  A    between atoms: N_8  and  S_9
REMARK    5  A    between atoms: S_9  and  C_12
REMARK    6  A    between atoms: C_25  and  C_28
REMARK    7  A    between atoms: C_31  and  S_34
REMARK    8  A    between atoms: S_34  and  C_35
REMARK                            x       y       z     vdW  Elec       q    Type
REMARK                         _______ _______ _______ _____ _____    ______ ____
ROOT
ATOM      1  C   UNL     1       0.684  -2.645   0.648  0.00  0.00    +0.109 A 
ATOM      2  C   UNL     1      -0.635  -2.380   0.326  0.00  0.00    +0.030 A 
ATOM      3  C   UNL     1      -1.074  -1.072   0.264  0.00  0.00    +0.025 A 
ATOM      4  C   UNL     1      -0.192  -0.030   0.522  0.00  0.00    +0.031 A 
ATOM      5  C   UNL     1       1.130  -0.291   0.846  0.00  0.00    -0.018 A 
ATOM      6  C   UNL     1       1.559  -1.610   0.906  0.00  0.00    +0.034 A 
ATOM      7  C   UNL     1       2.113   0.797   1.138  0.00  0.00    +0.049 C 
ATOM      8  C   UNL     1       3.072   0.998  -0.012  0.00  0.00    -0.023 C 
ATOM      9  C   UNL     1       3.359   2.270  -0.146  0.00  0.00    -0.030 C 
ATOM     10  C   UNL     1       2.634   3.092   0.901  0.00  0.00    +0.033 C 
ATOM     11  C   UNL     1       1.448   2.175   1.322  0.00  0.00    +0.029 C 
ATOM     12  C   UNL     1       0.337   2.362   0.285  0.00  0.00    +0.105 C 
ATOM     13  N   UNL     1      -0.651   1.290   0.450  0.00  0.00    -0.336 N 
ATOM     14  H   UNL     1      -1.722   1.534   0.515  0.00  0.00    +0.147 HD
ENDROOT
BRANCH  12  15
ATOM     15  C   UNL     1       0.924   2.298  -1.101  0.00  0.00    -0.027 A 
ATOM     16  C   UNL     1       1.330   3.460  -1.732  0.00  0.00    +0.006 A 
ATOM     17  C   UNL     1       1.873   3.405  -3.001  0.00  0.00    +0.015 A 
ATOM     18  C   UNL     1       2.001   2.181  -3.647  0.00  0.00    +0.008 A 
ATOM     19  C   UNL     1       1.587   1.016  -3.012  0.00  0.00    +0.015 A 
ATOM     20  C   UNL     1       1.050   1.079  -1.742  0.00  0.00    +0.006 A 
BRANCH  18  21
ATOM     21  S   UNL     1       2.687   2.107  -5.269  0.00  0.00    -0.129 S 
ATOM     22  C   UNL     1       3.067   3.836  -5.664  0.00  0.00    +0.090 C 
ENDBRANCH  18  21
ENDBRANCH  12  15
BRANCH   1  23
ATOM     23  S   UNL     1       1.248  -4.312   0.728  0.00  0.00    +0.072 S 
ATOM     24  O   UNL     1       0.322  -5.091  -0.017  0.00  0.00    -0.150 OA
ATOM     25  O   UNL     1       2.637  -4.286   0.426  0.00  0.00    -0.150 OA
BRANCH  23  26
ATOM     26  N   UNL     1       1.115  -4.799   2.305  0.00  0.00    -0.216 N 
ATOM     27  H   UNL     1       0.448  -5.633   2.569  0.00  0.00    +0.174 HD
BRANCH  26  33
ATOM     28  C   UNL     1       5.380  -2.925   3.872  0.00  0.00    +0.044 C 
ATOM     29  C   UNL     1       3.920  -3.229   4.087  0.00  0.00    -0.048 A 
ATOM     30  C   UNL     1       3.306  -2.868   5.272  0.00  0.00    +0.006 A 
ATOM     31  C   UNL     1       1.967  -3.146   5.474  0.00  0.00    -0.048 A 
ATOM     32  C   UNL     1       1.237  -3.786   4.492  0.00  0.00    +0.028 A 
ATOM     33  C   UNL     1       1.850  -4.151   3.300  0.00  0.00    +0.049 A 
ATOM     34  C   UNL     1       3.197  -3.875   3.103  0.00  0.00    +0.028 A 
ATOM     35  C   UNL     1       1.302  -2.749   6.768  0.00  0.00    +0.044 C 
ENDBRANCH  26  33
ENDBRANCH  23  26
ENDBRANCH   1  23
TORSDOF 5
