REMARK  Name = ZINC36537267
REMARK  10 active torsions:
REMARK  status: ('A' for Active; 'I' for Inactive)
REMARK    1  A    between atoms: C_1  and  C_2
REMARK    2  A    between atoms: C_5  and  S_8
REMARK    3  A    between atoms: S_8  and  C_11
REMARK    4  A    between atoms: C_11  and  N_12
REMARK    5  A    between atoms: C_13  and  C_15
REMARK    6  A    between atoms: C_15  and  C_17
REMARK    7  A    between atoms: C_15  and  N_24
REMARK    8  A    between atoms: C_22  and  O_23
REMARK    9  A    between atoms: N_24  and  C_25
REMARK   10  A    between atoms: C_26  and  C_28
REMARK                            x       y       z     vdW  Elec       q    Type
REMARK                         _______ _______ _______ _____ _____    ______ ____
ROOT
ATOM      1  C   UNL     1       3.157  -4.847   3.504  0.00  0.00    +0.195 C 
ENDROOT
BRANCH   1   2
ATOM      2  C   UNL     1       4.465  -4.179   3.166  0.00  0.00    +0.023 A 
ATOM      3  C   UNL     1       5.097  -4.461   1.971  0.00  0.00    +0.009 A 
ATOM      4  C   UNL     1       6.298  -3.849   1.661  0.00  0.00    +0.001 A 
ATOM      5  C   UNL     1       6.868  -2.953   2.545  0.00  0.00    +0.004 A 
ATOM      6  C   UNL     1       6.240  -2.667   3.742  0.00  0.00    +0.046 A 
ATOM      7  C   UNL     1       5.033  -3.276   4.053  0.00  0.00    +0.122 A 
BRANCH   7   8
ATOM      8  O   UNL     1       4.410  -2.992   5.227  0.00  0.00    -0.506 OA
ATOM      9  H   UNL     1       4.668  -3.570   5.959  0.00  0.00    +0.292 HD
ENDBRANCH   7   8
ENDBRANCH   1   2
BRANCH   1  11
ATOM     10  N   UNL     1       2.248  -4.623   1.214  0.00  0.00    -0.294 N 
ATOM     11  C   UNL     1       2.552  -5.428   2.252  0.00  0.00    +0.239 C 
ATOM     12  O   UNL     1       2.338  -6.619   2.179  0.00  0.00    -0.273 OA
ATOM     13  H   UNL     1       2.420  -3.671   1.273  0.00  0.00    +0.150 HD
BRANCH  10  14
ATOM     14  C   UNL     1       1.660  -5.188  -0.003  0.00  0.00    +0.278 C 
BRANCH  14  15
ATOM     15  S   UNL     1      -0.147  -5.045   0.077  0.00  0.00    +0.013 S 
ATOM     16  O   UNL     1      -0.618  -5.489   1.342  0.00  0.00    -0.168 OA
ATOM     17  O   UNL     1      -0.729  -5.532  -1.125  0.00  0.00    -0.168 OA
BRANCH  15  22
ATOM     18  C   UNL     1      -1.239   0.889   0.024  0.00  0.00    +0.044 C 
ATOM     19  C   UNL     1      -0.966  -0.593   0.037  0.00  0.00    -0.050 A 
ATOM     20  C   UNL     1      -0.894  -1.294  -1.153  0.00  0.00    +0.005 A 
ATOM     21  C   UNL     1      -0.643  -2.653  -1.141  0.00  0.00    +0.027 A 
ATOM     22  C   UNL     1      -0.465  -3.312   0.061  0.00  0.00    +0.090 A 
ATOM     23  C   UNL     1      -0.536  -2.612   1.251  0.00  0.00    +0.027 A 
ATOM     24  C   UNL     1      -0.782  -1.252   1.238  0.00  0.00    +0.005 A 
ENDBRANCH  15  22
ENDBRANCH  14  15
ENDBRANCH  10  14
ENDBRANCH   1  11
BRANCH   1  25
ATOM     25  N   UNL     1       3.392  -5.918   4.476  0.00  0.00    -0.287 N 
ATOM     26  C   UNL     1       4.375  -6.965   4.187  0.00  0.00    +0.133 C 
ATOM     27  C   UNL     1       2.704  -5.940   5.634  0.00  0.00    +0.237 C 
ATOM     28  O   UNL     1       1.891  -5.073   5.873  0.00  0.00    -0.274 OA
BRANCH  27  29
ATOM     29  C   UNL     1       2.946  -7.042   6.633  0.00  0.00    +0.159 C 
ATOM     30  C   UNL     1       2.161  -8.310   6.231  0.00  0.00    +0.041 C 
ATOM     31  C   UNL     1       0.852  -8.138   7.036  0.00  0.00    +0.098 C 
ATOM     32  C   UNL     1       1.244  -7.254   8.200  0.00  0.00    +0.214 C 
ATOM     33  O   UNL     1       0.591  -7.106   9.211  0.00  0.00    -0.276 OA
ATOM     34  N   UNL     1       2.425  -6.657   7.950  0.00  0.00    -0.304 N 
ATOM     35  H   UNL     1       2.873  -6.051   8.561  0.00  0.00    +0.149 HD
ENDBRANCH  27  29
ENDBRANCH   1  25
TORSDOF 8
