REMARK  Name = ZINC09695117
REMARK  12 active torsions:
REMARK  status: ('A' for Active; 'I' for Inactive)
REMARK    1  A    between atoms: C_1  and  C_2
REMARK    2  A    between atoms: C_2  and  C_3
REMARK    3  A    between atoms: C_2  and  C_4
REMARK    4  A    between atoms: C_2  and  N_5
REMARK    5  A    between atoms: N_5  and  S_6
REMARK    6  A    between atoms: S_6  and  C_9
REMARK    7  A    between atoms: C_12  and  N_15
REMARK    8  A    between atoms: C_16  and  C_18
REMARK    9  A    between atoms: C_18  and  S_19
REMARK   10  A    between atoms: S_19  and  C_20
REMARK   11  A    between atoms: N_26  and  N_27
REMARK   12  A    between atoms: C_28  and  C_29
REMARK                            x       y       z     vdW  Elec       q    Type
REMARK                         _______ _______ _______ _____ _____    ______ ____
ROOT
ATOM      1  N   UNL     1      -3.756   3.155   4.641  0.00  0.00    -0.285 N 
ATOM      2  C   UNL     1      -3.664   4.328   5.298  0.00  0.00    +0.227 C 
ATOM      3  O   UNL     1      -2.831   5.145   4.967  0.00  0.00    -0.275 OA
ATOM      4  H   UNL     1      -4.466   2.531   4.860  0.00  0.00    +0.155 HD
ENDROOT
BRANCH   1   8
ATOM      5  C   UNL     1      -0.992   2.207   1.672  0.00  0.00    +0.105 A 
ATOM      6  C   UNL     1      -2.304   1.789   1.552  0.00  0.00    +0.030 A 
ATOM      7  C   UNL     1      -3.222   2.098   2.536  0.00  0.00    +0.025 A 
ATOM      8  C   UNL     1      -2.828   2.837   3.644  0.00  0.00    +0.034 A 
ATOM      9  C   UNL     1      -1.510   3.259   3.760  0.00  0.00    +0.025 A 
ATOM     10  C   UNL     1      -0.596   2.943   2.774  0.00  0.00    +0.030 A 
BRANCH   5  11
ATOM     11  S   UNL     1       0.177   1.805   0.417  0.00  0.00    +0.059 S 
ATOM     12  O   UNL     1       1.048   2.922   0.301  0.00  0.00    -0.153 OA
ATOM     13  O   UNL     1      -0.566   1.301  -0.684  0.00  0.00    -0.153 OA
BRANCH  11  14
ATOM     14  N   UNL     1       1.094   0.548   0.984  0.00  0.00    -0.185 NA
ATOM     15  H   UNL     1       2.013   0.701   1.254  0.00  0.00    +0.149 HD
BRANCH  14  17
ATOM     16  C   UNL     1       0.243  -1.333  -0.326  0.00  0.00    +0.029 C 
ATOM     17  C   UNL     1       0.516  -0.795   1.080  0.00  0.00    +0.032 C 
ATOM     18  C   UNL     1       1.497  -1.722   1.800  0.00  0.00    +0.029 C 
ATOM     19  C   UNL     1      -0.795  -0.731   1.865  0.00  0.00    +0.029 C 
ENDBRANCH  14  17
ENDBRANCH  11  14
ENDBRANCH   5  11
ENDBRANCH   1   8
BRANCH   2  20
ATOM     20  C   UNL     1      -4.596   4.625   6.445  0.00  0.00    +0.173 C 
BRANCH  20  21
ATOM     21  S   UNL     1      -4.224   6.269   7.116  0.00  0.00    -0.077 S 
BRANCH  21  22
ATOM     22  C   UNL     1      -5.383   6.465   8.429  0.00  0.00    +0.191 A 
ATOM     23  N   UNL     1      -5.496   7.555   9.244  0.00  0.00    -0.303 N 
ATOM     24  H   UNL     1      -4.953   8.358   9.201  0.00  0.00    +0.171 HD
ATOM     25  C   UNL     1      -6.509   7.317  10.130  0.00  0.00    +0.235 A 
ATOM     26  N   UNL     1      -7.001   6.129   9.874  0.00  0.00    -0.111 NA
ATOM     27  N   UNL     1      -6.291   5.591   8.793  0.00  0.00    -0.121 NA
ATOM     28  N   UNL     1      -6.941   8.181  11.127  0.00  0.00    -0.205 N 
ATOM     29  H   UNL     1      -6.512   9.044  11.240  0.00  0.00    +0.177 HD
BRANCH  28  30
ATOM     30  N   UNL     1      -7.996   7.807  11.969  0.00  0.00    -0.188 NA
ATOM     31  C   UNL     1      -8.400   8.616  12.901  0.00  0.00    +0.138 C 
BRANCH  31  32
ATOM     32  C   UNL     1      -9.511   8.223  13.788  0.00  0.00    -0.005 A 
ATOM     33  C   UNL     1     -10.134   6.983  13.624  0.00  0.00    +0.009 A 
ATOM     34  C   UNL     1     -11.169   6.620  14.461  0.00  0.00    +0.001 A 
ATOM     35  C   UNL     1     -11.597   7.484  15.453  0.00  0.00    +0.000 A 
ATOM     36  C   UNL     1     -10.988   8.716  15.617  0.00  0.00    +0.001 A 
ATOM     37  C   UNL     1      -9.948   9.090  14.792  0.00  0.00    +0.009 A 
ENDBRANCH  31  32
ENDBRANCH  28  30
ENDBRANCH  21  22
ENDBRANCH  20  21
ENDBRANCH   2  20
TORSDOF 9
