REMARK  Name = ZINC20045574
REMARK  6 active torsions:
REMARK  status: ('A' for Active; 'I' for Inactive)
REMARK    1  A    between atoms: C_1  and  C_2
REMARK    2  A    between atoms: C_5  and  S_8
REMARK    3  A    between atoms: S_8  and  N_11
REMARK    4  A    between atoms: N_11  and  C_12
REMARK    5  A    between atoms: C_15  and  C_19
REMARK    6  A    between atoms: N_21  and  C_22
REMARK                            x       y       z     vdW  Elec       q    Type
REMARK                         _______ _______ _______ _____ _____    ______ ____
ROOT
ATOM      1  C   UNL     1       1.126   2.394  -0.174  0.00  0.00    +0.049 A 
ATOM      2  C   UNL     1       2.307   1.999   0.451  0.00  0.00    +0.025 A 
ATOM      3  C   UNL     1       3.453   2.721   0.275  0.00  0.00    +0.016 A 
ATOM      4  C   UNL     1       3.442   3.868  -0.525  0.00  0.00    +0.055 A 
ATOM      5  C   UNL     1       2.257   4.271  -1.150  0.00  0.00    +0.055 A 
ATOM      6  C   UNL     1       1.105   3.534  -0.972  0.00  0.00    +0.045 A 
ATOM      7 CL   UNL     1       2.236   5.693  -2.145  0.00  0.00    -0.083 Cl
ENDROOT
BRANCH   4   8
ATOM      8  C   UNL     1       4.678   4.651  -0.710  0.00  0.00    +0.246 C 
ATOM      9  O   UNL     1       4.667   5.648  -1.406  0.00  0.00    -0.270 OA
ATOM     10  N   UNL     1       5.819   4.262  -0.108  0.00  0.00    -0.308 N 
ATOM     11  H   UNL     1       5.829   3.360   0.521  0.00  0.00    +0.149 HD
BRANCH  10  12
ATOM     12  C   UNL     1       7.047   5.040  -0.292  0.00  0.00    +0.073 C 
ATOM     13  C   UNL     1       8.341   4.267  -0.551  0.00  0.00    +0.024 C 
ATOM     14  C   UNL     1       8.113   4.946   0.801  0.00  0.00    +0.024 C 
ENDBRANCH  10  12
ENDBRANCH   4   8
BRANCH   1  15
ATOM     15  N   UNL     1      -0.035   1.651   0.005  0.00  0.00    -0.216 N 
ATOM     16  H   UNL     1      -0.986   2.160   0.223  0.00  0.00    +0.174 HD
BRANCH  15  17
ATOM     17  S   UNL     1       0.012  -0.000  -0.110  0.00  0.00    +0.072 S 
ATOM     18  O   UNL     1       1.067  -0.436   0.736  0.00  0.00    -0.150 OA
ATOM     19  O   UNL     1      -1.325  -0.456   0.042  0.00  0.00    -0.150 OA
BRANCH  17  24
ATOM     20  C   UNL     1       1.661  -1.349  -5.755  0.00  0.00    +0.044 C 
ATOM     21  C   UNL     1       1.249  -1.012  -4.345  0.00  0.00    -0.050 A 
ATOM     22  C   UNL     1       2.198  -0.960  -3.342  0.00  0.00    +0.005 A 
ATOM     23  C   UNL     1       1.821  -0.652  -2.048  0.00  0.00    +0.029 A 
ATOM     24  C   UNL     1       0.494  -0.394  -1.759  0.00  0.00    +0.109 A 
ATOM     25  C   UNL     1      -0.456  -0.450  -2.762  0.00  0.00    +0.029 A 
ATOM     26  C   UNL     1      -0.078  -0.754  -4.056  0.00  0.00    +0.005 A 
ENDBRANCH  17  24
ENDBRANCH  15  17
ENDBRANCH   1  15
TORSDOF 5
