REMARK  Name = ZINC64605093
REMARK  6 active torsions:
REMARK  status: ('A' for Active; 'I' for Inactive)
REMARK    1  A    between atoms: C_4  and  C_7
REMARK    2  A    between atoms: C_9  and  N_25
REMARK    3  A    between atoms: N_12  and  C_14
REMARK    4  A    between atoms: C_14  and  C_15
REMARK    5  A    between atoms: N_17  and  C_18
REMARK    6  A    between atoms: C_26  and  C_28
REMARK                            x       y       z     vdW  Elec       q    Type
REMARK                         _______ _______ _______ _____ _____    ______ ____
ROOT
ATOM      1  C   UNL     1       3.542  -0.824   0.076  0.00  0.00    +0.093 A 
ATOM      2  C   UNL     1       3.587  -2.227   0.212  0.00  0.00    +0.059 A 
ATOM      3  C   UNL     1       4.795  -2.858   0.297  0.00  0.00    +0.102 A 
ATOM      4  C   UNL     1       5.983  -2.088   0.247  0.00  0.00    +0.289 A 
ATOM      5  O   UNL     1       7.073  -2.632   0.321  0.00  0.00    -0.264 OA
ATOM      6  N   UNL     1       5.901  -0.748   0.117  0.00  0.00    -0.218 N 
ATOM      7  N   UNL     1       4.653  -0.123   0.026  0.00  0.00    -0.168 NA
ENDROOT
BRANCH   1  11
ATOM      8  C   UNL     1      -0.214   1.150  -0.191  0.00  0.00    +0.000 A 
ATOM      9  C   UNL     1       0.956   1.886  -0.243  0.00  0.00    +0.001 A 
ATOM     10  C   UNL     1       2.178   1.250  -0.157  0.00  0.00    +0.010 A 
ATOM     11  C   UNL     1       2.232  -0.135  -0.017  0.00  0.00    +0.002 A 
ATOM     12  C   UNL     1       1.050  -0.871   0.035  0.00  0.00    +0.010 A 
ATOM     13  C   UNL     1      -0.167  -0.225  -0.052  0.00  0.00    +0.001 A 
ENDBRANCH   1  11
BRANCH   3  14
ATOM     14  N   UNL     1       4.858  -4.247   0.432  0.00  0.00    -0.277 N 
ATOM     15  C   UNL     1       5.502  -4.985  -0.493  0.00  0.00    +0.248 C 
ATOM     16  O   UNL     1       5.944  -4.455  -1.494  0.00  0.00    -0.270 OA
ATOM     17  H   UNL     1       4.438  -4.680   1.192  0.00  0.00    +0.155 HD
BRANCH  15  18
ATOM     18  C   UNL     1       5.670  -6.440  -0.292  0.00  0.00    +0.037 A 
ATOM     19  C   UNL     1       5.157  -7.053   0.853  0.00  0.00    +0.013 A 
ATOM     20  C   UNL     1       5.317  -8.411   1.035  0.00  0.00    +0.001 A 
ATOM     21  C   UNL     1       5.984  -9.165   0.086  0.00  0.00    +0.000 A 
ATOM     22  C   UNL     1       6.494  -8.564  -1.051  0.00  0.00    +0.001 A 
ATOM     23  C   UNL     1       6.336  -7.208  -1.248  0.00  0.00    +0.013 A 
ENDBRANCH  15  18
ENDBRANCH   3  14
BRANCH   6  24
ATOM     24  C   UNL     1       7.125   0.055   0.064  0.00  0.00    +0.243 C 
BRANCH  24  25
ATOM     25  C   UNL     1       7.573   0.195  -1.368  0.00  0.00    +0.239 C 
ATOM     26  O   UNL     1       6.934  -0.326  -2.257  0.00  0.00    -0.273 OA
ATOM     27  N   UNL     1       8.685   0.898  -1.660  0.00  0.00    -0.283 N 
ATOM     28  H   UNL     1       9.242   1.245  -0.945  0.00  0.00    +0.155 HD
BRANCH  27  29
ATOM     29  C   UNL     1       9.037   1.129  -2.995  0.00  0.00    +0.052 A 
ATOM     30  C   UNL     1       8.048   1.306  -3.954  0.00  0.00    +0.025 A 
ATOM     31  C   UNL     1       8.398   1.534  -5.271  0.00  0.00    +0.002 A 
ATOM     32  C   UNL     1       9.731   1.585  -5.635  0.00  0.00    +0.002 A 
ATOM     33  C   UNL     1      10.718   1.409  -4.684  0.00  0.00    +0.022 A 
ATOM     34  C   UNL     1      10.375   1.187  -3.363  0.00  0.00    +0.062 A 
ATOM     35 CL   UNL     1      11.615   0.973  -2.167  0.00  0.00    -0.082 Cl
ENDBRANCH  27  29
ENDBRANCH  24  25
ENDBRANCH   6  24
TORSDOF 6
