REMARK  Name = ZINC03620050
REMARK  12 active torsions:
REMARK  status: ('A' for Active; 'I' for Inactive)
REMARK    1  A    between atoms: C_1  and  C_2
REMARK    2  A    between atoms: C_2  and  N_60
REMARK    3  A    between atoms: C_3  and  C_4
REMARK    4  A    between atoms: C_3  and  N_60
REMARK    5  A    between atoms: C_5  and  C_6
REMARK    6  A    between atoms: C_5  and  N_60
REMARK    7  A    between atoms: C_6  and  C_8
REMARK    8  A    between atoms: C_6  and  C_9
REMARK    9  A    between atoms: C_9  and  N_10
REMARK   10  A    between atoms: C_11  and  C_13
REMARK   11  A    between atoms: C_13  and  O_32
REMARK   12  A    between atoms: N_23  and  C_24
REMARK                            x       y       z     vdW  Elec       q    Type
REMARK                         _______ _______ _______ _____ _____    ______ ____
ROOT
ATOM      1  C   UNL     1      -3.676   6.452  -0.154  0.00  0.00    +0.247 C 
ATOM      2  C   UNL     1      -2.277   6.295  -0.704  0.00  0.00    +0.034 A 
ATOM      3  C   UNL     1      -1.800   5.068  -1.104  0.00  0.00    +0.025 A 
ATOM      4  C   UNL     1      -0.510   4.961  -1.598  0.00  0.00    +0.018 A 
ATOM      5  C   UNL     1       0.289   6.087  -1.698  0.00  0.00    +0.017 A 
ATOM      6  C   UNL     1      -0.191   7.320  -1.302  0.00  0.00    +0.025 A 
ATOM      7  C   UNL     1      -1.481   7.431  -0.801  0.00  0.00    +0.043 A 
ATOM      8  N   UNL     1      -1.984   8.668  -0.396  0.00  0.00    -0.269 N 
ATOM      9  C   UNL     1      -3.220   8.827   0.094  0.00  0.00    +0.314 C 
ATOM     10  O   UNL     1      -3.575   9.943   0.422  0.00  0.00    -0.252 OA
ATOM     11  N   UNL     1      -4.089   7.810   0.239  0.00  0.00    -0.214 N 
ATOM     12 BR   UNL     1       0.157   3.278  -2.143  0.00  0.00    -0.050 Br
ATOM     13  H   UNL     1      -1.412   9.448  -0.471  0.00  0.00    +0.156 HD
ENDROOT
BRANCH  11  14
ATOM     14  C   UNL     1      -5.369   8.040   0.756  0.00  0.00    +0.041 A 
ATOM     15  C   UNL     1      -6.479   7.970  -0.076  0.00  0.00    +0.025 A 
ATOM     16  C   UNL     1      -7.741   8.193   0.438  0.00  0.00    +0.022 A 
ATOM     17  C   UNL     1      -7.900   8.495   1.780  0.00  0.00    +0.041 A 
ATOM     18  C   UNL     1      -6.795   8.570   2.610  0.00  0.00    +0.022 A 
ATOM     19  C   UNL     1      -5.531   8.343   2.102  0.00  0.00    +0.025 A 
ATOM     20 CL   UNL     1      -9.487   8.781   2.421  0.00  0.00    -0.084 Cl
ENDBRANCH  11  14
BRANCH   1  22
ATOM     21  N   UNL     1      -3.062   5.803   2.152  0.00  0.00    -0.311 N 
ATOM     22  C   UNL     1      -3.804   5.560   1.053  0.00  0.00    +0.269 C 
ATOM     23  O   UNL     1      -4.574   4.623   1.036  0.00  0.00    -0.270 OA
ATOM     24  H   UNL     1      -2.447   6.552   2.166  0.00  0.00    +0.149 HD
BRANCH  21  25
ATOM     25  C   UNL     1      -3.187   4.935   3.326  0.00  0.00    +0.105 C 
BRANCH  25  26
ATOM     26  C   UNL     1      -2.243   5.426   4.426  0.00  0.00    -0.014 C 
ATOM     27  C   UNL     1      -2.688   6.812   4.898  0.00  0.00    +0.007 C 
BRANCH  26  28
ATOM     28  C   UNL     1      -2.280   4.450   5.603  0.00  0.00    -0.074 C 
BRANCH  28  29
ATOM     29  N   UNL     1      -1.301   4.892   6.618  0.00  0.00    +0.380 N 
ATOM     30  H   UNL     1      -1.423   5.898   6.784  0.00  0.00    -0.082 HD
BRANCH  29  32
ATOM     31  C   UNL     1      -2.756   4.753   8.578  0.00  0.00    -0.017 C 
ATOM     32  C   UNL     1      -1.524   4.165   7.886  0.00  0.00    -0.082 C 
ENDBRANCH  29  32
BRANCH  29  33
ATOM     33  C   UNL     1       0.074   4.649   6.132  0.00  0.00    -0.082 C 
ATOM     34  C   UNL     1       1.049   5.449   6.998  0.00  0.00    -0.017 C 
ENDBRANCH  29  33
ENDBRANCH  28  29
ENDBRANCH  26  28
ENDBRANCH  25  26
ENDBRANCH  21  25
ENDBRANCH   1  22
BRANCH   1  35
ATOM     35  O   UNL     1      -4.594   5.982  -1.143  0.00  0.00    -0.360 OA
ATOM     36  H   UNL     1      -4.470   5.053  -1.385  0.00  0.00    +0.213 HD
ENDBRANCH   1  35
TORSDOF 9
