REMARK  Name = ZINC02553674
REMARK  8 active torsions:
REMARK  status: ('A' for Active; 'I' for Inactive)
REMARK    1  A    between atoms: C_3  and  N_8
REMARK    2  A    between atoms: N_8  and  C_9
REMARK    3  A    between atoms: C_9  and  N_11
REMARK    4  A    between atoms: N_11  and  N_12
REMARK    5  A    between atoms: C_13  and  C_14
REMARK    6  A    between atoms: C_17  and  O_20
REMARK    7  A    between atoms: O_20  and  C_21
REMARK    8  A    between atoms: C_21  and  C_23
REMARK                            x       y       z     vdW  Elec       q    Type
REMARK                         _______ _______ _______ _____ _____    ______ ____
ROOT
ATOM      1  C   UNL     1       1.029   1.790   0.230  0.00  0.00    -0.005 A 
ATOM      2  C   UNL     1      -0.115   0.991   0.157  0.00  0.00    +0.013 A 
ATOM      3  C   UNL     1      -1.347   1.524   0.469  0.00  0.00    +0.047 A 
ATOM      4  C   UNL     1      -1.450   2.851   0.867  0.00  0.00    +0.132 A 
ATOM      5  C   UNL     1      -0.316   3.649   0.941  0.00  0.00    +0.047 A 
ATOM      6  C   UNL     1       0.919   3.125   0.625  0.00  0.00    +0.013 A 
ENDROOT
BRANCH   1   8
ATOM      7  N   UNL     1       3.410   1.968  -0.040  0.00  0.00    -0.188 NA
ATOM      8  C   UNL     1       2.348   1.225  -0.108  0.00  0.00    +0.138 C 
BRANCH   7   9
ATOM      9  N   UNL     1       4.663   1.432  -0.361  0.00  0.00    -0.218 N 
ATOM     10  H   UNL     1       4.738   0.504  -0.635  0.00  0.00    +0.176 HD
BRANCH   9  11
ATOM     11  C   UNL     1       5.765   2.204  -0.290  0.00  0.00    +0.154 C 
ATOM     12  S   UNL     1       7.297   1.548  -0.683  0.00  0.00    -0.017 S 
BRANCH  11  13
ATOM     13  N   UNL     1       5.662   3.493   0.090  0.00  0.00    -0.296 N 
ATOM     14  H   UNL     1       4.809   3.842   0.392  0.00  0.00    +0.154 HD
BRANCH  13  17
ATOM     15  C   UNL     1       8.126   6.052   1.036  0.00  0.00    +0.003 A 
ATOM     16  C   UNL     1       7.015   5.233   1.076  0.00  0.00    +0.023 A 
ATOM     17  C   UNL     1       6.784   4.327   0.050  0.00  0.00    +0.034 A 
ATOM     18  C   UNL     1       7.667   4.253  -1.020  0.00  0.00    +0.043 A 
ATOM     19  C   UNL     1       8.774   5.079  -1.057  0.00  0.00    +0.043 A 
ATOM     20  C   UNL     1       9.004   5.978  -0.030  0.00  0.00    +0.020 A 
ATOM     21 CL   UNL     1       9.879   4.989  -2.394  0.00  0.00    -0.083 Cl
ENDBRANCH  13  17
ENDBRANCH  11  13
ENDBRANCH   9  11
ENDBRANCH   7   9
ENDBRANCH   1   8
BRANCH   4  22
ATOM     22  O   UNL     1      -2.666   3.371   1.180  0.00  0.00    -0.422 OA
BRANCH  22  23
ATOM     23  C   UNL     1      -3.248   2.929   2.312  0.00  0.00    +0.344 C 
ATOM     24  O   UNL     1      -2.647   2.173   3.048  0.00  0.00    -0.245 OA
BRANCH  23  25
ATOM     25  C   UNL     1      -4.617   3.362   2.656  0.00  0.00    +0.059 A 
ATOM     26  C   UNL     1      -5.308   4.236   1.814  0.00  0.00    +0.016 A 
ATOM     27  C   UNL     1      -6.588   4.632   2.138  0.00  0.00    +0.016 A 
ATOM     28  C   UNL     1      -7.184   4.176   3.302  0.00  0.00    +0.018 A 
ATOM     29  C   UNL     1      -6.501   3.314   4.144  0.00  0.00    +0.016 A 
ATOM     30  C   UNL     1      -5.223   2.905   3.828  0.00  0.00    +0.016 A 
ATOM     31 BR   UNL     1      -8.937   4.732   3.744  0.00  0.00    -0.050 Br
ENDBRANCH  23  25
ENDBRANCH  22  23
ENDBRANCH   4  22
TORSDOF 8
