REMARK  Name = ZINC17289894
REMARK  20 active torsions:
REMARK  status: ('A' for Active; 'I' for Inactive)
REMARK    1  A    between atoms: C_1  and  C_2
REMARK    2  A    between atoms: C_2  and  C_3
REMARK    3  A    between atoms: C_3  and  C_19
REMARK    4  A    between atoms: C_4  and  C_5
REMARK    5  A    between atoms: C_4  and  C_7
REMARK    6  A    between atoms: C_5  and  C_6
REMARK    7  A    between atoms: C_10  and  O_18
REMARK    8  A    between atoms: C_11  and  C_13
REMARK    9  A    between atoms: C_13  and  N_73
REMARK   10  A    between atoms: C_14  and  C_15
REMARK   11  A    between atoms: C_14  and  N_73
REMARK   12  A    between atoms: C_16  and  C_17
REMARK   13  A    between atoms: C_16  and  N_73
REMARK   14  A    between atoms: C_22  and  O_30
REMARK   15  A    between atoms: C_23  and  C_25
REMARK   16  A    between atoms: C_25  and  N_75
REMARK   17  A    between atoms: C_26  and  C_27
REMARK   18  A    between atoms: C_26  and  N_75
REMARK   19  A    between atoms: C_28  and  C_29
REMARK   20  A    between atoms: C_28  and  N_75
REMARK                            x       y       z     vdW  Elec       q    Type
REMARK                         _______ _______ _______ _____ _____    ______ ____
ROOT
ATOM      1  C   UNL     1      -3.263  -7.099   0.194  0.00  0.00    -0.037 C 
ATOM      2  C   UNL     1      -2.272  -6.778  -0.654  0.00  0.00    -0.037 C 
ENDROOT
BRANCH   2   3
ATOM      3  C   UNL     1      -1.803  -5.384  -0.745  0.00  0.00    -0.021 A 
ATOM      4  C   UNL     1      -1.185  -4.778   0.353  0.00  0.00    +0.012 A 
ATOM      5  C   UNL     1      -0.749  -3.474   0.263  0.00  0.00    +0.046 A 
ATOM      6  C   UNL     1      -0.923  -2.762  -0.917  0.00  0.00    +0.118 A 
ATOM      7  C   UNL     1      -1.541  -3.357  -2.009  0.00  0.00    -0.022 A 
ATOM      8  C   UNL     1      -1.976  -4.663  -1.930  0.00  0.00    +0.013 A 
BRANCH   6   9
ATOM      9  O   UNL     1      -0.491  -1.476  -1.002  0.00  0.00    -0.507 OA
ATOM     10  H   UNL     1       0.420  -1.387  -1.312  0.00  0.00    +0.292 HD
ENDBRANCH   6   9
BRANCH   7  11
ATOM     11  C   UNL     1      -1.732  -2.577  -3.284  0.00  0.00    -0.039 C 
BRANCH  11  12
ATOM     12  N   UNL     1      -3.010  -1.839  -3.201  0.00  0.00    +0.382 N 
ATOM     13  H   UNL     1      -3.721  -2.451  -2.783  0.00  0.00    -0.081 HD
BRANCH  12  14
ATOM     14  C   UNL     1      -2.848  -0.641  -2.351  0.00  0.00    -0.082 C 
ATOM     15  C   UNL     1      -1.839   0.326  -2.974  0.00  0.00    -0.017 C 
ENDBRANCH  12  14
BRANCH  12  16
ATOM     16  C   UNL     1      -3.453  -1.442  -4.554  0.00  0.00    -0.082 C 
ATOM     17  C   UNL     1      -4.861  -0.852  -4.460  0.00  0.00    -0.017 C 
ENDBRANCH  12  16
ENDBRANCH  11  12
ENDBRANCH   7  11
ENDBRANCH   2   3
BRANCH   1  18
ATOM     18  C   UNL     1      -3.731  -8.493   0.285  0.00  0.00    -0.021 A 
ATOM     19  C   UNL     1      -2.875  -9.490   0.762  0.00  0.00    +0.012 A 
ATOM     20  C   UNL     1      -3.318 -10.793   0.846  0.00  0.00    +0.046 A 
ATOM     21  C   UNL     1      -4.612 -11.115   0.457  0.00  0.00    +0.118 A 
ATOM     22  C   UNL     1      -5.466 -10.128  -0.017  0.00  0.00    -0.022 A 
ATOM     23  C   UNL     1      -5.034  -8.822  -0.099  0.00  0.00    +0.013 A 
BRANCH  21  24
ATOM     24  O   UNL     1      -5.044 -12.400   0.542  0.00  0.00    -0.507 OA
ATOM     25  H   UNL     1      -5.454 -12.623   1.389  0.00  0.00    +0.292 HD
ENDBRANCH  21  24
BRANCH  22  26
ATOM     26  C   UNL     1      -6.869 -10.484  -0.437  0.00  0.00    -0.039 C 
BRANCH  26  27
ATOM     27  N   UNL     1      -6.841 -10.940  -1.843  0.00  0.00    +0.382 N 
ATOM     28  H   UNL     1      -6.206 -10.335  -2.377  0.00  0.00    -0.081 HD
BRANCH  27  29
ATOM     29  C   UNL     1      -6.350 -12.332  -1.913  0.00  0.00    -0.082 C 
ATOM     30  C   UNL     1      -7.309 -13.276  -1.184  0.00  0.00    -0.017 C 
ENDBRANCH  27  29
BRANCH  27  31
ATOM     31  C   UNL     1      -8.195 -10.851  -2.429  0.00  0.00    -0.082 C 
ATOM     32  C   UNL     1      -8.082 -10.982  -3.949  0.00  0.00    -0.017 C 
ENDBRANCH  27  31
ENDBRANCH  26  27
ENDBRANCH  22  26
ENDBRANCH   1  18
BRANCH   1  34
ATOM     33  C   UNL     1      -5.153  -5.502   0.359  0.00  0.00    +0.009 C 
ATOM     34  C   UNL     1      -3.896  -6.034   1.051  0.00  0.00    +0.032 C 
ENDBRANCH   1  34
BRANCH   2  35
ATOM     35  C   UNL     1      -1.639  -7.843  -1.511  0.00  0.00    +0.032 C 
ATOM     36  C   UNL     1      -2.314  -7.861  -2.884  0.00  0.00    +0.009 C 
ENDBRANCH   2  35
TORSDOF 14
