REMARK  Name = ZINC53517034
REMARK  6 active torsions:
REMARK  status: ('A' for Active; 'I' for Inactive)
REMARK    1  A    between atoms: C_1  and  C_2
REMARK    2  A    between atoms: C_7  and  N_8
REMARK    3  A    between atoms: N_11  and  C_14
REMARK    4  A    between atoms: C_14  and  C_16
REMARK    5  A    between atoms: C_14  and  C_17
REMARK    6  A    between atoms: N_19  and  C_20
REMARK                            x       y       z     vdW  Elec       q    Type
REMARK                         _______ _______ _______ _____ _____    ______ ____
ROOT
ATOM      1  C   UNL     1      -0.126   3.535   4.564  0.00  0.00    +0.140 C 
ATOM      2  C   UNL     1      -0.455   4.280   3.269  0.00  0.00    +0.034 C 
ENDROOT
BRANCH   1   6
ATOM      3  N   UNL     1       0.400  -0.251   2.831  0.00  0.00    -0.327 N 
ATOM      4  C   UNL     1      -0.947   0.078   3.320  0.00  0.00    +0.120 C 
ATOM      5  C   UNL     1      -1.060   1.601   3.446  0.00  0.00    +0.104 C 
ATOM      6  N   UNL     1       0.042   2.104   4.276  0.00  0.00    -0.289 NA
ATOM      7  C   UNL     1       1.344   1.843   3.649  0.00  0.00    +0.104 C 
ATOM      8  C   UNL     1       1.556   0.325   3.535  0.00  0.00    +0.120 C 
BRANCH   3  15
ATOM      9  C   UNL     1       0.512   0.927   0.245  0.00  0.00    +0.045 C 
ATOM     10  C   UNL     1       0.638  -0.560   0.450  0.00  0.00    -0.029 A 
ATOM     11  C   UNL     1       0.820  -1.395  -0.636  0.00  0.00    +0.006 A 
ATOM     12  C   UNL     1       0.935  -2.760  -0.450  0.00  0.00    +0.020 A 
ATOM     13  C   UNL     1       0.870  -3.295   0.825  0.00  0.00    +0.043 A 
ATOM     14  C   UNL     1       0.688  -2.465   1.915  0.00  0.00    +0.043 A 
ATOM     15  C   UNL     1       0.578  -1.093   1.731  0.00  0.00    +0.034 A 
ATOM     16 CL   UNL     1       1.016  -5.009   1.054  0.00  0.00    -0.083 Cl
ENDBRANCH   3  15
ENDBRANCH   1   6
BRANCH   1  17
ATOM     17  C   UNL     1      -1.250   3.721   5.550  0.00  0.00    +0.234 C 
ATOM     18  O   UNL     1      -2.013   2.807   5.779  0.00  0.00    -0.274 OA
ATOM     19  N   UNL     1      -1.407   4.903   6.178  0.00  0.00    -0.284 N 
ATOM     20  H   UNL     1      -0.845   5.657   5.939  0.00  0.00    +0.155 HD
BRANCH  19  21
ATOM     21  C   UNL     1      -2.380   5.043   7.176  0.00  0.00    +0.036 A 
ATOM     22  C   UNL     1      -3.041   6.255   7.335  0.00  0.00    +0.025 A 
ATOM     23  C   UNL     1      -4.001   6.399   8.316  0.00  0.00    +0.029 A 
ATOM     24  C   UNL     1      -4.309   5.331   9.146  0.00  0.00    +0.067 A 
ATOM     25  C   UNL     1      -3.647   4.112   8.988  0.00  0.00    +0.069 A 
ATOM     26  C   UNL     1      -2.688   3.969   7.998  0.00  0.00    +0.051 A 
ATOM     27  N   UNL     1      -4.163   3.246   9.949  0.00  0.00    -0.306 N 
ATOM     28  H   UNL     1      -3.896   2.323  10.084  0.00  0.00    +0.170 HD
ATOM     29  C   UNL     1      -5.096   3.907  10.660  0.00  0.00    +0.325 A 
ATOM     30  O   UNL     1      -5.740   3.437  11.579  0.00  0.00    -0.247 OA
ATOM     31  N   UNL     1      -5.207   5.168  10.200  0.00  0.00    -0.306 N 
ATOM     32  H   UNL     1      -5.809   5.846  10.543  0.00  0.00    +0.170 HD
ENDBRANCH  19  21
ENDBRANCH   1  17
TORSDOF 4
