REMARK  Name = ZINC11116802
REMARK  6 active torsions:
REMARK  status: ('A' for Active; 'I' for Inactive)
REMARK    1  A    between atoms: C_2  and  C_9
REMARK    2  A    between atoms: C_9  and  O_11
REMARK    3  A    between atoms: O_11  and  C_12
REMARK    4  A    between atoms: C_12  and  C_13
REMARK    5  A    between atoms: N_15  and  C_16
REMARK    6  A    between atoms: C_17  and  C_25
REMARK                            x       y       z     vdW  Elec       q    Type
REMARK                         _______ _______ _______ _____ _____    ______ ____
ROOT
ATOM      1  C   UNL     1       1.051   3.511   0.011  0.00  0.00    +0.255 C 
ATOM      2  O   UNL     1      -0.076   3.959   0.024  0.00  0.00    -0.272 OA
ATOM      3  N   UNL     1       2.108   4.346   0.005  0.00  0.00    -0.277 N 
ATOM      4  H   UNL     1       3.010   3.988  -0.005  0.00  0.00    +0.155 HD
ENDROOT
BRANCH   3   5
ATOM      5  C   UNL     1       1.908   5.718   0.015  0.00  0.00    +0.084 A 
ATOM      6  C   UNL     1       2.859   6.729   0.017  0.00  0.00    +0.068 A 
ATOM      7  C   UNL     1       2.382   8.101   0.024  0.00  0.00    -0.023 A 
ATOM      8  C   UNL     1       1.038   8.242   0.038  0.00  0.00    -0.004 A 
ATOM      9  S   UNL     1       0.409   6.587   0.034  0.00  0.00    -0.077 S 
ATOM     10  C   UNL     1       0.265   9.525   0.054  0.00  0.00    +0.043 C 
ATOM     11  C   UNL     1       1.225  10.663   0.430  0.00  0.00    +0.005 C 
ATOM     12  C   UNL     1       2.493  10.540  -0.420  0.00  0.00    +0.005 C 
ATOM     13  C   UNL     1       3.299   9.318   0.022  0.00  0.00    +0.037 C 
BRANCH   6  14
ATOM     14  C   UNL     1       4.293   6.423   0.008  0.00  0.00    +0.244 C 
ATOM     15  O   UNL     1       4.883   6.303  -1.050  0.00  0.00    -0.270 OA
ATOM     16  N   UNL     1       4.958   6.274   1.171  0.00  0.00    -0.325 N 
ATOM     17  H   UNL     1       4.487   6.369   2.014  0.00  0.00    +0.145 HD
ATOM     18  H   UNL     1       5.906   6.072   1.165  0.00  0.00    +0.145 HD
ENDBRANCH   6  14
ENDBRANCH   3   5
BRANCH   1  19
ATOM     19  C   UNL     1       1.268   2.020   0.001  0.00  0.00    +0.328 C 
BRANCH  19  20
ATOM     20  O   UNL     1      -0.016   1.343   0.009  0.00  0.00    -0.452 OA
BRANCH  20  21
ATOM     21  C   UNL     1       0.002  -0.004   0.002  0.00  0.00    +0.340 C 
ATOM     22  O   UNL     1       1.062  -0.597  -0.011  0.00  0.00    -0.245 OA
BRANCH  21  24
ATOM     23  C   UNL     1      -1.252  -2.156   0.002  0.00  0.00    +0.035 A 
ATOM     24  C   UNL     1      -1.267  -0.760   0.010  0.00  0.00    +0.062 A 
ATOM     25  C   UNL     1      -2.487  -0.082   0.031  0.00  0.00    +0.035 A 
ATOM     26  C   UNL     1      -3.670  -0.794   0.032  0.00  0.00    +0.043 A 
ATOM     27  C   UNL     1      -3.648  -2.178   0.025  0.00  0.00    +0.040 A 
ATOM     28  C   UNL     1      -2.441  -2.857   0.010  0.00  0.00    +0.043 A 
ATOM     29 CL   UNL     1      -2.424  -4.593   0.001  0.00  0.00    -0.083 Cl
ATOM     30 CL   UNL     1      -5.188   0.048   0.051  0.00  0.00    -0.083 Cl
ENDBRANCH  21  24
ENDBRANCH  20  21
ENDBRANCH  19  20
ENDBRANCH   1  19
TORSDOF 6
