REMARK  Name = ZINC20976281
REMARK  8 active torsions:
REMARK  status: ('A' for Active; 'I' for Inactive)
REMARK    1  A    between atoms: C_1  and  C_2
REMARK    2  A    between atoms: C_7  and  C_8
REMARK    3  A    between atoms: N_10  and  C_11
REMARK    4  A    between atoms: C_11  and  N_13
REMARK    5  A    between atoms: N_13  and  C_14
REMARK    6  A    between atoms: C_19  and  N_20
REMARK    7  A    between atoms: C_26  and  C_28
REMARK    8  A    between atoms: C_29  and  C_30
REMARK                            x       y       z     vdW  Elec       q    Type
REMARK                         _______ _______ _______ _____ _____    ______ ____
ROOT
ATOM      1  C   UNL     1       1.971   2.361   0.226  0.00  0.00    +0.055 A 
ATOM      2  C   UNL     1       3.161   1.653   0.146  0.00  0.00    +0.045 A 
ATOM      3  C   UNL     1       4.368   2.328   0.148  0.00  0.00    +0.043 A 
ATOM      4  C   UNL     1       4.393   3.709   0.230  0.00  0.00    +0.022 A 
ATOM      5  C   UNL     1       3.211   4.422   0.310  0.00  0.00    +0.026 A 
ATOM      6  C   UNL     1       1.996   3.753   0.303  0.00  0.00    +0.051 A 
ATOM      7 CL   UNL     1       5.857   1.440   0.048  0.00  0.00    -0.083 Cl
ENDROOT
BRANCH   6   8
ATOM      8  N   UNL     1       0.798   4.473   0.378  0.00  0.00    -0.325 N 
ATOM      9  C   UNL     1       0.619   5.322  -0.807  0.00  0.00    +0.124 C 
ATOM     10  C   UNL     1      -0.778   5.951  -0.774  0.00  0.00    +0.127 C 
ATOM     11  N   UNL     1      -0.951   6.639   0.515  0.00  0.00    -0.295 N 
ATOM     12  C   UNL     1      -0.656   5.891   1.747  0.00  0.00    +0.127 C 
ATOM     13  C   UNL     1       0.736   5.264   1.615  0.00  0.00    +0.124 C 
ATOM     14  C   UNL     1      -1.368   7.919   0.566  0.00  0.00    +0.240 C 
ATOM     15  O   UNL     1      -1.419   8.501   1.633  0.00  0.00    -0.271 OA
BRANCH  14  16
ATOM     16  C   UNL     1      -1.761   8.610  -0.664  0.00  0.00    +0.068 C 
ATOM     17  C   UNL     1      -2.073   9.921  -0.630  0.00  0.00    +0.013 C 
BRANCH  17  18
ATOM     18  C   UNL     1      -2.468  10.616  -1.866  0.00  0.00    -0.025 A 
ATOM     19  C   UNL     1      -2.514   9.921  -3.079  0.00  0.00    +0.008 A 
ATOM     20  C   UNL     1      -2.890  10.578  -4.232  0.00  0.00    +0.001 A 
ATOM     21  C   UNL     1      -3.210  11.924  -4.193  0.00  0.00    +0.000 A 
ATOM     22  C   UNL     1      -3.162  12.620  -2.997  0.00  0.00    +0.001 A 
ATOM     23  C   UNL     1      -2.793  11.976  -1.835  0.00  0.00    +0.008 A 
ENDBRANCH  17  18
ENDBRANCH  14  16
ENDBRANCH   6   8
BRANCH   1  24
ATOM     24  N   UNL     1       0.747   1.679   0.224  0.00  0.00    -0.295 N 
ATOM     25  H   UNL     1      -0.080   2.031   0.859  0.00  0.00    +0.154 HD
BRANCH  24  26
ATOM     26  C   UNL     1       0.582   0.593  -0.557  0.00  0.00    +0.141 C 
ATOM     27  S   UNL     1       1.837   0.096  -1.609  0.00  0.00    -0.018 S 
BRANCH  26  30
ATOM     28  C   UNL     1      -0.737  -1.189  -1.289  0.00  0.00    +0.250 C 
ATOM     29  O   UNL     1       0.154  -1.542  -2.036  0.00  0.00    -0.270 OA
ATOM     30  N   UNL     1      -0.572  -0.103  -0.509  0.00  0.00    -0.264 N 
ATOM     31  H   UNL     1      -1.379   0.216   0.168  0.00  0.00    +0.157 HD
BRANCH  28  38
ATOM     32  C   UNL     1      -1.007  -3.620  -2.835  0.00  0.00    +0.044 C 
ATOM     33  C   UNL     1      -2.144  -3.126  -1.978  0.00  0.00    -0.038 A 
ATOM     34  C   UNL     1      -3.327  -3.833  -1.923  0.00  0.00    +0.004 A 
ATOM     35  C   UNL     1      -4.371  -3.381  -1.136  0.00  0.00    +0.000 A 
ATOM     36  C   UNL     1      -4.237  -2.218  -0.399  0.00  0.00    +0.001 A 
ATOM     37  C   UNL     1      -3.058  -1.504  -0.440  0.00  0.00    +0.013 A 
ATOM     38  C   UNL     1      -2.002  -1.952  -1.236  0.00  0.00    +0.040 A 
ENDBRANCH  28  38
ENDBRANCH  26  30
ENDBRANCH  24  26
ENDBRANCH   1  24
TORSDOF 7
