REMARK  Name = ZINC59041406
REMARK  5 active torsions:
REMARK  status: ('A' for Active; 'I' for Inactive)
REMARK    1  A    between atoms: C_4  and  C_7
REMARK    2  A    between atoms: N_9  and  C_10
REMARK    3  A    between atoms: C_17  and  S_19
REMARK    4  A    between atoms: S_19  and  C_20
REMARK    5  A    between atoms: C_20  and  C_21
REMARK                            x       y       z     vdW  Elec       q    Type
REMARK                         _______ _______ _______ _____ _____    ______ ____
ROOT
ATOM      1  C   UNL     1       4.914  -2.755   0.032  0.00  0.00    +0.035 A 
ATOM      2  C   UNL     1       6.134  -2.091   0.130  0.00  0.00    +0.025 A 
ATOM      3  C   UNL     1       7.310  -2.771   0.206  0.00  0.00    +0.031 A 
ATOM      4  C   UNL     1       7.335  -4.184   0.190  0.00  0.00    +0.080 A 
ATOM      5  C   UNL     1       6.083  -4.832   0.090  0.00  0.00    +0.042 A 
ATOM      6  C   UNL     1       4.898  -4.145   0.018  0.00  0.00    +0.040 A 
ATOM      7  S   UNL     1       6.542  -6.548   0.101  0.00  0.00    -0.061 S 
ATOM      8  C   UNL     1       8.308  -6.309   0.233  0.00  0.00    +0.136 A 
ATOM      9  N   UNL     1       8.412  -5.000   0.258  0.00  0.00    -0.233 NA
ENDROOT
BRANCH   1  12
ATOM     10  C   UNL     1       2.681  -2.517  -0.757  0.00  0.00    +0.248 C 
ATOM     11  O   UNL     1       2.816  -3.533  -1.411  0.00  0.00    -0.270 OA
ATOM     12  N   UNL     1       3.717  -2.032  -0.045  0.00  0.00    -0.281 N 
ATOM     13  H   UNL     1       3.634  -1.182   0.415  0.00  0.00    +0.155 HD
BRANCH  10  17
ATOM     14  C   UNL     1      -1.054  -0.496  -0.718  0.00  0.00    +0.000 A 
ATOM     15  C   UNL     1      -0.905  -1.652  -1.464  0.00  0.00    +0.001 A 
ATOM     16  C   UNL     1       0.306  -2.313  -1.481  0.00  0.00    +0.013 A 
ATOM     17  C   UNL     1       1.381  -1.813  -0.744  0.00  0.00    +0.037 A 
ATOM     18  C   UNL     1       1.223  -0.647   0.006  0.00  0.00    +0.013 A 
ATOM     19  C   UNL     1       0.007   0.005   0.014  0.00  0.00    +0.001 A 
ENDBRANCH  10  17
ENDBRANCH   1  12
BRANCH   8  20
ATOM     20  S   UNL     1       9.584  -7.521   0.311  0.00  0.00    -0.089 S 
BRANCH  20  21
ATOM     21  C   UNL     1      11.109  -6.545   0.435  0.00  0.00    +0.172 C 
BRANCH  21  22
ATOM     22  C   UNL     1      12.294  -7.473   0.510  0.00  0.00    +0.229 C 
ATOM     23  O   UNL     1      12.127  -8.674   0.483  0.00  0.00    -0.275 OA
ATOM     24  N   UNL     1      13.540  -6.968   0.607  0.00  0.00    -0.264 N 
ATOM     25  C   UNL     1      14.630  -7.820   0.676  0.00  0.00    +0.165 A 
ATOM     26  N   UNL     1      14.651  -9.133   0.656  0.00  0.00    -0.225 NA
ATOM     27  C   UNL     1      15.798  -9.841   0.732  0.00  0.00    +0.080 A 
ATOM     28  C   UNL     1      15.958 -11.246   0.721  0.00  0.00    +0.029 A 
ATOM     29  C   UNL     1      17.205 -11.809   0.807  0.00  0.00    +0.002 A 
ATOM     30  C   UNL     1      18.347 -11.029   0.907  0.00  0.00    +0.001 A 
ATOM     31  C   UNL     1      18.228  -9.651   0.920  0.00  0.00    +0.017 A 
ATOM     32  C   UNL     1      16.983  -9.079   0.835  0.00  0.00    +0.041 A 
ATOM     33  S   UNL     1      16.365  -7.413   0.808  0.00  0.00    -0.052 S 
ATOM     34  H   UNL     1      13.673  -6.007   0.629  0.00  0.00    +0.157 HD
ENDBRANCH  21  22
ENDBRANCH  20  21
ENDBRANCH   8  20
TORSDOF 5
