REMARK  Name = ZINC62243126
REMARK  7 active torsions:
REMARK  status: ('A' for Active; 'I' for Inactive)
REMARK    1  A    between atoms: C_1  and  C_2
REMARK    2  A    between atoms: C_2  and  C_3
REMARK    3  A    between atoms: C_3  and  C_4
REMARK    4  A    between atoms: C_3  and  C_5
REMARK    5  A    between atoms: C_3  and  N_9
REMARK    6  A    between atoms: N_6  and  O_7
REMARK    7  A    between atoms: C_10  and  C_12
REMARK                            x       y       z     vdW  Elec       q    Type
REMARK                         _______ _______ _______ _____ _____    ______ ____
ROOT
ATOM      1  C   UNL     1      -1.433  -0.534   0.013  0.00  0.00    +0.090 C 
ATOM      2  C   UNL     1      -1.413  -2.059   0.130  0.00  0.00    +0.040 C 
ENDROOT
BRANCH   1   3
ATOM      3  C   UNL     1      -2.125  -0.137  -1.266  0.00  0.00    +0.155 C 
ATOM      4  N   UNL     1      -1.463   0.463  -2.199  0.00  0.00    -0.075 NA
ATOM      5  N   UNL     1      -3.462  -0.415  -1.440  0.00  0.00    -0.342 N 
ATOM      6  H   UNL     1      -3.959  -0.865  -0.740  0.00  0.00    +0.144 HD
ATOM      7  H   UNL     1      -3.907  -0.160  -2.264  0.00  0.00    +0.144 HD
BRANCH   4   8
ATOM      8  O   UNL     1      -2.112   0.835  -3.401  0.00  0.00    -0.408 OA
ATOM      9  H   UNL     1      -1.536   1.278  -4.039  0.00  0.00    +0.328 HD
ENDBRANCH   4   8
ENDBRANCH   1   3
BRANCH   1  10
ATOM     10  N   UNL     1      -2.155   0.035   1.154  0.00  0.00    -0.303 N 
ATOM     11  C   UNL     1      -1.716  -0.190   2.409  0.00  0.00    +0.219 C 
ATOM     12  O   UNL     1      -0.723  -0.862   2.592  0.00  0.00    -0.275 OA
ATOM     13  H   UNL     1      -2.949   0.572   1.007  0.00  0.00    +0.150 HD
BRANCH  11  14
ATOM     14  C   UNL     1      -2.458   0.395   3.583  0.00  0.00    +0.101 C 
ATOM     15  C   UNL     1      -1.758  -0.010   4.884  0.00  0.00    +0.017 C 
ATOM     16  C   UNL     1      -2.564   0.524   6.072  0.00  0.00    +0.029 C 
ATOM     17  C   UNL     1      -3.995  -0.014   5.990  0.00  0.00    +0.160 C 
ATOM     18  O   UNL     1      -4.577   0.372   4.744  0.00  0.00    -0.379 OA
ATOM     19  C   UNL     1      -3.893  -0.137   3.596  0.00  0.00    +0.172 C 
ENDBRANCH  11  14
ENDBRANCH   1  10
BRANCH   1  21
ATOM     20  C   UNL     1      -0.019   1.526   0.010  0.00  0.00    +0.006 C 
ATOM     21  C   UNL     1       0.002  -0.004   0.002  0.00  0.00    +0.030 C 
ENDBRANCH   1  21
TORSDOF 5
