REMARK  Name = ZINC22804595
REMARK  7 active torsions:
REMARK  status: ('A' for Active; 'I' for Inactive)
REMARK    1  A    between atoms: C_4  and  C_7
REMARK    2  A    between atoms: C_8  and  C_17
REMARK    3  A    between atoms: C_17  and  C_19
REMARK    4  A    between atoms: C_19  and  N_20
REMARK    5  A    between atoms: N_23  and  C_26
REMARK    6  A    between atoms: C_26  and  C_27
REMARK    7  A    between atoms: N_29  and  C_30
REMARK                            x       y       z     vdW  Elec       q    Type
REMARK                         _______ _______ _______ _____ _____    ______ ____
ROOT
ATOM      1  C   UNL     1       3.462   4.833   2.560  0.00  0.00    +0.164 C 
ENDROOT
BRANCH   1   2
ATOM      2  N   UNL     1       2.387   5.314   3.438  0.00  0.00    -0.299 NA
ATOM      3  C   UNL     1       1.391   6.082   2.678  0.00  0.00    +0.066 C 
ATOM      4  C   UNL     1       0.250   6.496   3.611  0.00  0.00    -0.063 C 
ATOM      5  N   UNL     1       0.793   7.294   4.719  0.00  0.00    +0.387 N 
ATOM      6  C   UNL     1       1.790   6.526   5.479  0.00  0.00    -0.063 C 
ATOM      7  C   UNL     1       2.930   6.112   4.546  0.00  0.00    +0.066 C 
ATOM      8  H   UNL     1       1.296   8.173   4.290  0.00  0.00    -0.081 HD
BRANCH   5   9
ATOM      9  C   UNL     1      -0.282   7.775   5.597  0.00  0.00    +0.019 C 
BRANCH   9  10
ATOM     10  C   UNL     1       0.273   8.793   6.560  0.00  0.00    +0.201 C 
ATOM     11  O   UNL     1       1.419   9.174   6.445  0.00  0.00    -0.278 OA
ATOM     12  N   UNL     1      -0.503   9.279   7.548  0.00  0.00    -0.286 N 
ATOM     13  H   UNL     1      -1.518   8.882   7.696  0.00  0.00    +0.155 HD
BRANCH  12  14
ATOM     14  C   UNL     1      -0.018  10.290   8.386  0.00  0.00    +0.052 A 
ATOM     15  C   UNL     1       1.331  10.333   8.715  0.00  0.00    +0.025 A 
ATOM     16  C   UNL     1       1.808  11.335   9.538  0.00  0.00    +0.002 A 
ATOM     17  C   UNL     1       0.942  12.288  10.044  0.00  0.00    +0.002 A 
ATOM     18  C   UNL     1      -0.402  12.244   9.724  0.00  0.00    +0.022 A 
ATOM     19  C   UNL     1      -0.885  11.248   8.896  0.00  0.00    +0.062 A 
ATOM     20 CL   UNL     1      -2.573  11.193   8.495  0.00  0.00    -0.082 Cl
ENDBRANCH  12  14
ENDBRANCH   9  10
ENDBRANCH   5   9
ENDBRANCH   1   2
BRANCH   1  21
ATOM     21  C   UNL     1       2.904   3.826   1.587  0.00  0.00    +0.180 C 
ATOM     22  O   UNL     1       1.725   3.537   1.622  0.00  0.00    -0.291 OA
BRANCH  21  24
ATOM     23  C   UNL     1       3.392   2.275  -0.326  0.00  0.00    +0.058 A 
ATOM     24  C   UNL     1       3.752   3.218   0.635  0.00  0.00    +0.052 A 
ATOM     25  C   UNL     1       5.198   3.451   0.459  0.00  0.00    +0.011 A 
ATOM     26  C   UNL     1       6.126   4.266   1.103  0.00  0.00    +0.011 A 
ATOM     27  C   UNL     1       7.440   4.265   0.688  0.00  0.00    +0.001 A 
ATOM     28  C   UNL     1       7.839   3.456  -0.366  0.00  0.00    +0.002 A 
ATOM     29  C   UNL     1       6.931   2.645  -1.012  0.00  0.00    +0.026 A 
ATOM     30  C   UNL     1       5.600   2.632  -0.608  0.00  0.00    +0.048 A 
ATOM     31  N   UNL     1       4.492   1.940  -1.056  0.00  0.00    -0.354 N 
ATOM     32  H   UNL     1       4.408   1.206  -1.871  0.00  0.00    +0.166 HD
BRANCH  23  36
ATOM     33  C   UNL     1      -0.513   0.712  -0.898  0.00  0.00    +0.000 A 
ATOM     34  C   UNL     1      -0.336   2.071  -0.711  0.00  0.00    +0.001 A 
ATOM     35  C   UNL     1       0.930   2.587  -0.525  0.00  0.00    +0.010 A 
ATOM     36  C   UNL     1       2.035   1.732  -0.525  0.00  0.00    -0.001 A 
ATOM     37  C   UNL     1       1.849   0.360  -0.714  0.00  0.00    +0.010 A 
ATOM     38  C   UNL     1       0.577  -0.141  -0.898  0.00  0.00    +0.001 A 
ENDBRANCH  23  36
ENDBRANCH  21  24
ENDBRANCH   1  21
TORSDOF 7
