REMARK  Name = ZINC58380368
REMARK  6 active torsions:
REMARK  status: ('A' for Active; 'I' for Inactive)
REMARK    1  A    between atoms: C_1  and  C_2
REMARK    2  A    between atoms: C_2  and  C_4
REMARK    3  A    between atoms: C_2  and  S_14
REMARK    4  A    between atoms: N_10  and  C_11
REMARK    5  A    between atoms: N_10  and  C_12
REMARK    6  A    between atoms: S_14  and  C_15
REMARK                            x       y       z     vdW  Elec       q    Type
REMARK                         _______ _______ _______ _____ _____    ______ ____
ROOT
ATOM      1  C   UNL     1       0.838  -0.561   1.153  0.00  0.00    +0.149 A 
ATOM      2  N   UNL     1       0.358  -0.372   2.369  0.00  0.00    -0.198 NA
ATOM      3  C   UNL     1       1.062  -0.755   3.432  0.00  0.00    +0.217 A 
ATOM      4  N   UNL     1       2.249  -1.327   3.268  0.00  0.00    -0.181 NA
ATOM      5  C   UNL     1       2.729  -1.516   2.044  0.00  0.00    +0.222 A 
ATOM      6  N   UNL     1       2.017  -1.135   0.986  0.00  0.00    -0.198 NA
ATOM      7  N   UNL     1       3.963  -2.110   1.869  0.00  0.00    -0.306 N 
ATOM      8  C   UNL     1       4.744  -2.533   3.034  0.00  0.00    +0.132 C 
ATOM      9  C   UNL     1       4.491  -2.317   0.519  0.00  0.00    +0.132 C 
ATOM     10  N   UNL     1       0.559  -0.556   4.701  0.00  0.00    -0.327 N 
ATOM     11  H   UNL     1      -0.308  -0.138   4.820  0.00  0.00    +0.145 HD
ATOM     12  H   UNL     1       1.073  -0.835   5.476  0.00  0.00    +0.145 HD
ENDROOT
BRANCH   1  14
ATOM     13  C   UNL     1       0.111   1.395  -0.187  0.00  0.00    +0.027 C 
ATOM     14  C   UNL     1       0.037  -0.127  -0.048  0.00  0.00    +0.118 C 
BRANCH  14  15
ATOM     15  S   UNL     1      -1.692  -0.633   0.164  0.00  0.00    -0.093 S 
BRANCH  15  16
ATOM     16  C   UNL     1      -2.447  -0.225  -1.375  0.00  0.00    +0.118 A 
ATOM     17  C   UNL     1      -3.563   0.604  -1.397  0.00  0.00    +0.036 A 
ATOM     18  C   UNL     1      -4.146   0.916  -2.613  0.00  0.00    +0.004 A 
ATOM     19  C   UNL     1      -3.591   0.386  -3.770  0.00  0.00    +0.021 A 
ATOM     20  C   UNL     1      -2.481  -0.431  -3.675  0.00  0.00    +0.134 A 
ATOM     21  N   UNL     1      -1.942  -0.708  -2.502  0.00  0.00    -0.134 N 
ATOM     22  O   UNL     1      -0.802  -1.544  -2.446  0.00  0.00    -0.163 OA
ENDBRANCH  15  16
ENDBRANCH  14  15
ENDBRANCH   1  14
TORSDOF 3
