REMARK  Name = ZINC14328929
REMARK  6 active torsions:
REMARK  status: ('A' for Active; 'I' for Inactive)
REMARK    1  A    between atoms: C_6  and  C_7
REMARK    2  A    between atoms: C_9  and  C_12
REMARK    3  A    between atoms: C_12  and  C_13
REMARK    4  A    between atoms: C_13  and  C_14
REMARK    5  A    between atoms: N_16  and  N_17
REMARK    6  A    between atoms: C_18  and  C_20
REMARK                            x       y       z     vdW  Elec       q    Type
REMARK                         _______ _______ _______ _____ _____    ______ ____
ROOT
ATOM      1  C   UNL     1      -2.471  -5.021  -1.445  0.00  0.00    +0.230 C 
ATOM      2  O   UNL     1      -2.782  -5.542  -0.395  0.00  0.00    -0.274 OA
ATOM      3  N   UNL     1      -2.838  -5.587  -2.612  0.00  0.00    -0.234 N 
ATOM      4  H   UNL     1      -2.589  -5.170  -3.452  0.00  0.00    +0.173 HD
ENDROOT
BRANCH   3   5
ATOM      5  N   UNL     1      -3.579  -6.775  -2.612  0.00  0.00    -0.230 N 
ATOM      6  C   UNL     1      -3.947  -7.341  -3.779  0.00  0.00    +0.267 C 
ATOM      7  O   UNL     1      -3.634  -6.819  -4.833  0.00  0.00    -0.268 OA
ATOM      8  H   UNL     1      -3.828  -7.192  -1.772  0.00  0.00    +0.173 HD
BRANCH   6   9
ATOM      9  C   UNL     1      -4.722  -8.585  -3.778  0.00  0.00    +0.076 A 
ATOM     10  C   UNL     1      -5.194  -9.319  -4.851  0.00  0.00    +0.024 A 
ATOM     11  C   UNL     1      -5.907 -10.482  -4.585  0.00  0.00    -0.036 A 
ATOM     12  C   UNL     1      -6.106 -10.785  -3.282  0.00  0.00    -0.006 A 
ATOM     13  S   UNL     1      -5.299  -9.553  -2.393  0.00  0.00    -0.088 S 
ATOM     14  C   UNL     1      -6.890 -11.957  -2.736  0.00  0.00    +0.043 C 
ATOM     15  C   UNL     1      -6.098 -13.231  -3.078  0.00  0.00    +0.005 C 
ATOM     16  C   UNL     1      -6.323 -13.617  -4.521  0.00  0.00    +0.001 C 
ATOM     17  C   UNL     1      -5.675 -12.738  -5.559  0.00  0.00    +0.005 C 
ATOM     18  C   UNL     1      -6.398 -11.399  -5.711  0.00  0.00    +0.036 C 
ENDBRANCH   6   9
ENDBRANCH   3   5
BRANCH   1  19
ATOM     19  C   UNL     1      -1.673  -3.743  -1.445  0.00  0.00    +0.107 C 
BRANCH  19  20
ATOM     20  C   UNL     1      -1.390  -3.318  -0.003  0.00  0.00    +0.108 C 
BRANCH  20  23
ATOM     21  C   UNL     1       0.002  -0.004   0.002  0.00  0.00    +0.202 A 
ATOM     22  N   UNL     1      -1.075  -0.821   0.008  0.00  0.00    -0.191 NA
ATOM     23  C   UNL     1      -0.593  -2.039  -0.003  0.00  0.00    +0.228 A 
ATOM     24  O   UNL     1       0.740  -1.934  -0.015  0.00  0.00    -0.338 OA
ATOM     25  N   UNL     1       1.064  -0.765  -0.018  0.00  0.00    -0.056 NA
BRANCH  21  31
ATOM     26  C   UNL     1      -1.226   2.182   0.020  0.00  0.00    +0.031 A 
ATOM     27  C   UNL     1      -1.200   3.562   0.032  0.00  0.00    +0.111 A 
ATOM     28  N   UNL     1      -0.055   4.217   0.025  0.00  0.00    -0.263 NA
ATOM     29  C   UNL     1       1.107   3.593   0.011  0.00  0.00    +0.111 A 
ATOM     30  C   UNL     1       1.171   2.214   0.003  0.00  0.00    +0.031 A 
ATOM     31  C   UNL     1      -0.018   1.481   0.010  0.00  0.00    +0.025 A 
ENDBRANCH  21  31
ENDBRANCH  20  23
ENDBRANCH  19  20
ENDBRANCH   1  19
TORSDOF 6
