REMARK  Name = ZINC18193973
REMARK  6 active torsions:
REMARK  status: ('A' for Active; 'I' for Inactive)
REMARK    1  A    between atoms: C_1  and  N_2
REMARK    2  A    between atoms: C_3  and  S_16
REMARK    3  A    between atoms: N_4  and  C_5
REMARK    4  A    between atoms: C_9  and  C_11
REMARK    5  A    between atoms: S_16  and  C_17
REMARK    6  A    between atoms: N_22  and  C_25
REMARK                            x       y       z     vdW  Elec       q    Type
REMARK                         _______ _______ _______ _____ _____    ______ ____
ROOT
ATOM      1  C   UNL     1      -2.117  -3.149   0.811  0.00  0.00    +0.127 C 
ATOM      2  N   UNL     1      -1.050  -2.228   1.211  0.00  0.00    -0.327 N 
ATOM      3  C   UNL     1      -1.354  -0.933   1.553  0.00  0.00    +0.155 C 
ATOM      4  N   UNL     1      -0.391  -0.053   1.713  0.00  0.00    -0.226 NA
ATOM      5  H   UNL     1      -0.130  -2.533   1.234  0.00  0.00    +0.148 HD
ENDROOT
BRANCH   4   6
ATOM      6  C   UNL     1      -0.697   1.269   1.905  0.00  0.00    +0.067 A 
ATOM      7  C   UNL     1      -1.119   2.054   0.831  0.00  0.00    +0.029 A 
ATOM      8  C   UNL     1      -1.425   3.384   1.032  0.00  0.00    +0.022 A 
ATOM      9  C   UNL     1      -1.313   3.941   2.295  0.00  0.00    +0.053 A 
ATOM     10  C   UNL     1      -0.894   3.167   3.364  0.00  0.00    +0.075 A 
ATOM     11  C   UNL     1      -0.592   1.834   3.178  0.00  0.00    +0.041 A 
ATOM     12 CL   UNL     1      -1.700   5.615   2.539  0.00  0.00    -0.083 Cl
BRANCH  10  13
ATOM     13  C   UNL     1      -0.774   3.781   4.735  0.00  0.00    +0.419 C 
ATOM     14  F   UNL     1      -0.336   2.811   5.643  0.00  0.00    -0.166 F 
ATOM     15  F   UNL     1       0.148   4.833   4.696  0.00  0.00    -0.166 F 
ATOM     16  F   UNL     1      -2.021   4.269   5.138  0.00  0.00    -0.166 F 
ENDBRANCH  10  13
ENDBRANCH   4   6
BRANCH   3  17
ATOM     17  S   UNL     1      -3.034  -0.451   1.776  0.00  0.00    -0.077 S 
BRANCH  17  18
ATOM     18  C   UNL     1      -3.804  -1.896   2.557  0.00  0.00    +0.149 C 
ATOM     19  C   UNL     1      -5.015  -1.470   3.412  0.00  0.00    +0.120 C 
ATOM     20  C   UNL     1      -4.631  -1.901   4.810  0.00  0.00    +0.228 C 
ATOM     21  O   UNL     1      -5.311  -1.753   5.803  0.00  0.00    -0.275 OA
ATOM     22  N   UNL     1      -3.421  -2.473   4.778  0.00  0.00    -0.209 N 
ATOM     23  C   UNL     1      -2.862  -2.526   3.559  0.00  0.00    +0.240 C 
ATOM     24  O   UNL     1      -1.776  -3.000   3.301  0.00  0.00    -0.274 OA
BRANCH  22  25
ATOM     25  C   UNL     1      -2.789  -2.977   5.924  0.00  0.00    +0.047 A 
ATOM     26  C   UNL     1      -3.303  -4.097   6.564  0.00  0.00    +0.044 A 
ATOM     27  C   UNL     1      -2.678  -4.592   7.694  0.00  0.00    +0.044 A 
ATOM     28  C   UNL     1      -1.543  -3.973   8.186  0.00  0.00    +0.040 A 
ATOM     29  C   UNL     1      -1.029  -2.857   7.549  0.00  0.00    +0.044 A 
ATOM     30  C   UNL     1      -1.647  -2.362   6.416  0.00  0.00    +0.044 A 
ATOM     31 CL   UNL     1       0.396  -2.084   8.169  0.00  0.00    -0.083 Cl
ATOM     32 CL   UNL     1      -3.320  -5.992   8.496  0.00  0.00    -0.083 Cl
ENDBRANCH  22  25
ENDBRANCH  17  18
ENDBRANCH   3  17
TORSDOF 5
