REMARK  Name = ZINC14166455
REMARK  7 active torsions:
REMARK  status: ('A' for Active; 'I' for Inactive)
REMARK    1  A    between atoms: C_4  and  S_7
REMARK    2  A    between atoms: S_7  and  N_10
REMARK    3  A    between atoms: N_10  and  C_11
REMARK    4  A    between atoms: N_10  and  C_22
REMARK    5  A    between atoms: C_11  and  C_12
REMARK    6  A    between atoms: N_14  and  C_15
REMARK    7  A    between atoms: C_25  and  N_28
REMARK                            x       y       z     vdW  Elec       q    Type
REMARK                         _______ _______ _______ _____ _____    ______ ____
ROOT
ATOM      1  N   UNL     1       4.269  -1.154  -1.220  0.00  0.00    -0.194 N 
ENDROOT
BRANCH   1   2
ATOM      2  C   UNL     1       4.577  -2.083  -2.216  0.00  0.00    +0.052 A 
ATOM      3  C   UNL     1       5.902  -2.328  -2.554  0.00  0.00    +0.027 A 
ATOM      4  C   UNL     1       6.204  -3.252  -3.535  0.00  0.00    +0.034 A 
ATOM      5  C   UNL     1       5.188  -3.923  -4.190  0.00  0.00    +0.126 A 
ATOM      6  C   UNL     1       3.867  -3.677  -3.861  0.00  0.00    +0.034 A 
ATOM      7  C   UNL     1       3.559  -2.759  -2.876  0.00  0.00    +0.027 A 
BRANCH   5   8
ATOM      8  N   UNL     1       5.514  -4.908  -5.245  0.00  0.00    +0.056 N 
ATOM      9  O   UNL     1       4.620  -5.501  -5.823  0.00  0.00    -0.126 OA
ATOM     10  O   UNL     1       6.677  -5.126  -5.537  0.00  0.00    -0.126 OA
ENDBRANCH   5   8
ENDBRANCH   1   2
BRANCH   1  11
ATOM     11  S   UNL     1       4.801  -1.394   0.330  0.00  0.00    +0.075 S 
ATOM     12  O   UNL     1       4.976  -2.796   0.486  0.00  0.00    -0.150 OA
ATOM     13  O   UNL     1       3.948  -0.634   1.174  0.00  0.00    -0.150 OA
BRANCH  11  17
ATOM     14  C   UNL     1       8.917   0.465   0.635  0.00  0.00    +0.000 A 
ATOM     15  C   UNL     1       8.786  -0.888   0.383  0.00  0.00    +0.002 A 
ATOM     16  C   UNL     1       7.529  -1.455   0.289  0.00  0.00    +0.029 A 
ATOM     17  C   UNL     1       6.403  -0.670   0.449  0.00  0.00    +0.109 A 
ATOM     18  C   UNL     1       6.533   0.682   0.701  0.00  0.00    +0.029 A 
ATOM     19  C   UNL     1       7.790   1.250   0.794  0.00  0.00    +0.002 A 
ENDBRANCH  11  17
ENDBRANCH   1  11
BRANCH   1  20
ATOM     20  C   UNL     1       3.475   0.034  -1.546  0.00  0.00    +0.227 C 
BRANCH  20  21
ATOM     21  C   UNL     1       4.382   1.116  -2.072  0.00  0.00    +0.236 C 
ATOM     22  O   UNL     1       5.575   0.915  -2.166  0.00  0.00    -0.274 OA
ATOM     23  N   UNL     1       3.869   2.307  -2.439  0.00  0.00    -0.284 N 
ATOM     24  H   UNL     1       2.909   2.446  -2.426  0.00  0.00    +0.155 HD
BRANCH  23  25
ATOM     25  C   UNL     1       4.720   3.343  -2.839  0.00  0.00    +0.034 A 
ATOM     26  C   UNL     1       4.407   4.660  -2.528  0.00  0.00    +0.023 A 
ATOM     27  C   UNL     1       5.252   5.680  -2.920  0.00  0.00    +0.003 A 
ATOM     28  C   UNL     1       6.403   5.393  -3.629  0.00  0.00    +0.015 A 
ATOM     29  C   UNL     1       6.716   4.082  -3.945  0.00  0.00    +0.020 A 
ATOM     30  C   UNL     1       5.877   3.057  -3.551  0.00  0.00    +0.038 A 
ATOM     31 BR   UNL     1       8.292   3.694  -4.915  0.00  0.00    -0.050 Br
ENDBRANCH  23  25
ENDBRANCH  20  21
ENDBRANCH   1  20
TORSDOF 7
