REMARK  Name = ZINC08599849
REMARK  6 active torsions:
REMARK  status: ('A' for Active; 'I' for Inactive)
REMARK    1  A    between atoms: C_6  and  N_7
REMARK    2  A    between atoms: C_8  and  C_10
REMARK    3  A    between atoms: C_10  and  C_11
REMARK    4  A    between atoms: N_15  and  C_29
REMARK    5  A    between atoms: N_18  and  C_19
REMARK    6  A    between atoms: C_19  and  C_20
REMARK                            x       y       z     vdW  Elec       q    Type
REMARK                         _______ _______ _______ _____ _____    ______ ____
ROOT
ATOM      1  C   UNL     1      -1.987  -4.305   0.055  0.00  0.00    +0.173 C 
ATOM      2  C   UNL     1      -3.279  -5.097   0.097  0.00  0.00    +0.248 C 
ATOM      3  O   UNL     1      -4.102  -5.109   0.987  0.00  0.00    -0.273 OA
ATOM      4  N   UNL     1      -3.324  -5.783  -1.062  0.00  0.00    -0.193 N 
ATOM      5  C   UNL     1      -2.250  -5.537  -1.823  0.00  0.00    +0.317 C 
ATOM      6  O   UNL     1      -2.066  -6.040  -2.914  0.00  0.00    -0.252 OA
ATOM      7  N   UNL     1      -1.395  -4.670  -1.243  0.00  0.00    -0.269 N 
ENDROOT
BRANCH   4   8
ATOM      8  C   UNL     1      -4.366  -6.648  -1.427  0.00  0.00    +0.046 A 
ATOM      9  C   UNL     1      -4.264  -7.411  -2.582  0.00  0.00    +0.027 A 
ATOM     10  C   UNL     1      -5.291  -8.263  -2.938  0.00  0.00    +0.040 A 
ATOM     11  C   UNL     1      -6.422  -8.356  -2.145  0.00  0.00    +0.124 A 
ATOM     12  C   UNL     1      -6.525  -7.595  -0.992  0.00  0.00    +0.040 A 
ATOM     13  C   UNL     1      -5.498  -6.747  -0.629  0.00  0.00    +0.027 A 
ATOM     14  F   UNL     1      -7.426  -9.189  -2.496  0.00  0.00    -0.205 F 
ENDBRANCH   4   8
BRANCH   1  15
ATOM     15  C   UNL     1      -2.274  -2.803   0.112  0.00  0.00    +0.128 C 
BRANCH  15  17
ATOM     16  N   UNL     1      -3.175  -1.183   1.749  0.00  0.00    -0.285 N 
ATOM     17  C   UNL     1      -2.740  -2.433   1.497  0.00  0.00    +0.219 C 
ATOM     18  O   UNL     1      -2.723  -3.260   2.384  0.00  0.00    -0.275 OA
ATOM     19  H   UNL     1      -3.252  -0.540   1.026  0.00  0.00    +0.155 HD
BRANCH  16  25
ATOM     20  C   UNL     1      -3.260   0.479   3.501  0.00  0.00    +0.025 A 
ATOM     21  C   UNL     1      -3.598   0.843   4.789  0.00  0.00    +0.022 A 
ATOM     22  C   UNL     1      -4.192  -0.076   5.636  0.00  0.00    +0.041 A 
ATOM     23  C   UNL     1      -4.449  -1.362   5.194  0.00  0.00    +0.022 A 
ATOM     24  C   UNL     1      -4.112  -1.731   3.907  0.00  0.00    +0.025 A 
ATOM     25  C   UNL     1      -3.517  -0.811   3.055  0.00  0.00    +0.033 A 
ATOM     26 CL   UNL     1      -4.615   0.385   7.256  0.00  0.00    -0.084 Cl
ENDBRANCH  16  25
ENDBRANCH  15  17
ENDBRANCH   1  15
BRANCH   7  27
ATOM     27  C   UNL     1      -0.127  -4.185  -1.794  0.00  0.00    +0.145 C 
BRANCH  27  28
ATOM     28  C   UNL     1       0.971  -5.164  -1.467  0.00  0.00    -0.026 A 
ATOM     29  C   UNL     1       1.688  -5.028  -0.293  0.00  0.00    +0.009 A 
ATOM     30  C   UNL     1       2.696  -5.924   0.013  0.00  0.00    +0.050 A 
ATOM     31  C   UNL     1       2.989  -6.961  -0.858  0.00  0.00    +0.166 A 
ATOM     32  C   UNL     1       2.266  -7.098  -2.041  0.00  0.00    +0.167 A 
ATOM     33  C   UNL     1       1.254  -6.200  -2.337  0.00  0.00    +0.054 A 
ATOM     34  O   UNL     1       2.740  -8.184  -2.718  0.00  0.00    -0.453 OA
ATOM     35  C   UNL     1       4.027  -8.467  -2.139  0.00  0.00    +0.466 C 
ATOM     36  O   UNL     1       3.916  -7.961  -0.795  0.00  0.00    -0.453 OA
ENDBRANCH  27  28
ENDBRANCH   7  27
TORSDOF 6
