REMARK  Name = ZINC44067167
REMARK  6 active torsions:
REMARK  status: ('A' for Active; 'I' for Inactive)
REMARK    1  A    between atoms: C_3  and  N_12
REMARK    2  A    between atoms: C_6  and  C_7
REMARK    3  A    between atoms: C_7  and  S_8
REMARK    4  A    between atoms: S_8  and  N_11
REMARK    5  A    between atoms: C_13  and  C_15
REMARK    6  A    between atoms: C_17  and  N_22
REMARK                            x       y       z     vdW  Elec       q    Type
REMARK                         _______ _______ _______ _____ _____    ______ ____
ROOT
ATOM      1  N   UNL     1       3.583   2.123  -0.021  0.00  0.00    -0.281 N 
ATOM      2  C   UNL     1       3.627   3.374   0.478  0.00  0.00    +0.250 C 
ATOM      3  O   UNL     1       2.647   3.848   1.017  0.00  0.00    -0.270 OA
ATOM      4  H   UNL     1       4.387   1.716  -0.382  0.00  0.00    +0.155 HD
ENDROOT
BRANCH   2   5
ATOM      5  C   UNL     1       4.868   4.169   0.370  0.00  0.00    +0.057 A 
ATOM      6  C   UNL     1       5.995   3.630  -0.254  0.00  0.00    +0.047 A 
ATOM      7  C   UNL     1       7.149   4.378  -0.352  0.00  0.00    +0.127 A 
ATOM      8  C   UNL     1       7.194   5.660   0.167  0.00  0.00    +0.034 A 
ATOM      9  C   UNL     1       6.083   6.202   0.786  0.00  0.00    +0.023 A 
ATOM     10  C   UNL     1       4.917   5.466   0.886  0.00  0.00    +0.053 A 
ATOM     11 CL   UNL     1       3.520   6.150   1.658  0.00  0.00    -0.083 Cl
BRANCH   7  12
ATOM     12  N   UNL     1       8.344   3.807  -1.013  0.00  0.00    +0.056 N 
ATOM     13  O   UNL     1       8.307   2.687  -1.466  0.00  0.00    -0.126 OA
ATOM     14  O   UNL     1       9.357   4.461  -1.100  0.00  0.00    -0.126 OA
ENDBRANCH   7  12
ENDBRANCH   2   5
BRANCH   1  17
ATOM     15  C   UNL     1      -0.013   1.375  -0.180  0.00  0.00    +0.007 A 
ATOM     16  C   UNL     1       1.174   2.081  -0.183  0.00  0.00    +0.023 A 
ATOM     17  C   UNL     1       2.380   1.411  -0.019  0.00  0.00    +0.034 A 
ATOM     18  C   UNL     1       2.387   0.032   0.148  0.00  0.00    +0.023 A 
ATOM     19  C   UNL     1       1.196  -0.668   0.150  0.00  0.00    +0.007 A 
ATOM     20  C   UNL     1      -0.002   0.003  -0.014  0.00  0.00    -0.025 A 
BRANCH  20  21
ATOM     21  C   UNL     1      -1.299  -0.765  -0.011  0.00  0.00    +0.219 C 
BRANCH  21  22
ATOM     22  S   UNL     1      -1.702  -1.277  -1.704  0.00  0.00    +0.031 S 
ATOM     23  O   UNL     1      -2.013  -0.140  -2.498  0.00  0.00    -0.158 OA
ATOM     24  O   UNL     1      -0.767  -2.245  -2.159  0.00  0.00    -0.158 OA
BRANCH  22  25
ATOM     25  N   UNL     1      -3.132  -2.101  -1.570  0.00  0.00    -0.208 NA
ATOM     26  H   UNL     1      -3.551  -2.208  -0.702  0.00  0.00    +0.144 HD
ATOM     27  H   UNL     1      -3.552  -2.477  -2.360  0.00  0.00    +0.144 HD
ENDBRANCH  22  25
ENDBRANCH  21  22
ENDBRANCH  20  21
ENDBRANCH   1  17
TORSDOF 6
