REMARK  Name = ZINC28467112
REMARK  8 active torsions:
REMARK  status: ('A' for Active; 'I' for Inactive)
REMARK    1  A    between atoms: C_1  and  O_2
REMARK    2  A    between atoms: O_2  and  C_3
REMARK    3  A    between atoms: C_6  and  C_9
REMARK    4  A    between atoms: C_9  and  C_11
REMARK    5  A    between atoms: C_13  and  C_25
REMARK    6  A    between atoms: C_19  and  C_20
REMARK    7  A    between atoms: C_19  and  O_24
REMARK    8  A    between atoms: C_28  and  C_31
REMARK                            x       y       z     vdW  Elec       q    Type
REMARK                         _______ _______ _______ _____ _____    ______ ____
ROOT
ATOM      1  C   UNL     1      -0.752   2.117   1.277  0.00  0.00    +0.144 C 
ATOM      2  C   UNL     1      -2.182   1.568   1.235  0.00  0.00    +0.117 C 
ATOM      3  N   UNL     1      -2.837   2.028   0.010  0.00  0.00    -0.319 N 
ATOM      4  C   UNL     1      -2.135   2.283  -1.104  0.00  0.00    +0.133 C 
ATOM      5  S   UNL     1      -2.972   2.805  -2.503  0.00  0.00    -0.019 S 
ATOM      6  N   UNL     1      -0.800   2.147  -1.165  0.00  0.00    -0.291 N 
ATOM      7  C   UNL     1      -0.029   1.694  -0.007  0.00  0.00    +0.241 C 
ATOM      8  H   UNL     1      -3.928   2.171  -0.010  0.00  0.00    +0.148 HD
ATOM      9  H   UNL     1      -0.287   2.384  -2.109  0.00  0.00    +0.151 HD
ENDROOT
BRANCH   2  10
ATOM     10  C   UNL     1      -2.143   0.062   1.251  0.00  0.00    -0.026 A 
ATOM     11  C   UNL     1      -2.765  -0.654   0.243  0.00  0.00    +0.007 A 
ATOM     12  C   UNL     1      -2.730  -2.033   0.248  0.00  0.00    +0.019 A 
ATOM     13  C   UNL     1      -2.073  -2.707   1.280  0.00  0.00    +0.052 A 
ATOM     14  C   UNL     1      -1.452  -1.979   2.296  0.00  0.00    +0.019 A 
ATOM     15  C   UNL     1      -1.491  -0.600   2.276  0.00  0.00    +0.007 A 
BRANCH  13  16
ATOM     16  C   UNL     1      -2.037  -4.138   1.295  0.00  0.00    +0.099 C 
ATOM     17  N   UNL     1      -2.008  -5.274   1.307  0.00  0.00    -0.191 NA
ENDBRANCH  13  16
ENDBRANCH   2  10
BRANCH   7  18
ATOM     18  C   UNL     1       1.364   2.326  -0.041  0.00  0.00    +0.436 C 
ATOM     19  F   UNL     1       2.075   1.829  -1.139  0.00  0.00    -0.166 F 
ATOM     20  F   UNL     1       1.244   3.715  -0.154  0.00  0.00    -0.166 F 
ATOM     21  F   UNL     1       2.048   2.011   1.138  0.00  0.00    -0.166 F 
ENDBRANCH   7  18
BRANCH   1  22
ATOM     22  C   UNL     1      -0.790   3.621   1.364  0.00  0.00    +0.173 C 
ATOM     23  O   UNL     1      -0.918   4.284   0.356  0.00  0.00    -0.292 OA
BRANCH  22  27
ATOM     24  C   UNL     1      -0.447   5.534   5.127  0.00  0.00    +0.120 A 
ATOM     25  C   UNL     1      -0.697   6.289   3.986  0.00  0.00    +0.046 A 
ATOM     26  C   UNL     1      -0.809   5.675   2.765  0.00  0.00    +0.015 A 
ATOM     27  C   UNL     1      -0.671   4.285   2.668  0.00  0.00    +0.018 A 
ATOM     28  C   UNL     1      -0.425   3.528   3.821  0.00  0.00    +0.015 A 
ATOM     29  C   UNL     1      -0.309   4.153   5.036  0.00  0.00    +0.046 A 
BRANCH  24  31
ATOM     30  C   UNL     1      -0.079   5.312   7.463  0.00  0.00    +0.277 C 
ATOM     31  O   UNL     1      -0.336   6.147   6.332  0.00  0.00    -0.495 OA
ENDBRANCH  24  31
ENDBRANCH  22  27
ENDBRANCH   1  22
BRANCH   7  32
ATOM     32  O   UNL     1       0.091   0.271  -0.040  0.00  0.00    -0.364 OA
ATOM     33  H   UNL     1       0.586  -0.220  -0.891  0.00  0.00    +0.212 HD
ENDBRANCH   7  32
TORSDOF 7
