REMARK  Name = ZINC09316985
REMARK  6 active torsions:
REMARK  status: ('A' for Active; 'I' for Inactive)
REMARK    1  A    between atoms: C_5  and  N_7
REMARK    2  A    between atoms: C_8  and  C_10
REMARK    3  A    between atoms: C_17  and  C_20
REMARK    4  A    between atoms: C_18  and  N_19
REMARK    5  A    between atoms: C_20  and  C_22
REMARK    6  A    between atoms: C_25  and  N_28
REMARK                            x       y       z     vdW  Elec       q    Type
REMARK                         _______ _______ _______ _____ _____    ______ ____
ROOT
ATOM      1  C   UNL     1       2.075   4.216   0.039  0.00  0.00    +0.083 A 
ATOM      2  C   UNL     1       1.039   3.253   0.037  0.00  0.00    +0.061 A 
ATOM      3  C   UNL     1       1.070   1.853  -0.002  0.00  0.00    +0.027 A 
ATOM      4  C   UNL     1      -0.104   1.156   0.007  0.00  0.00    +0.003 A 
ATOM      5  C   UNL     1      -1.317   1.854   0.049  0.00  0.00    +0.018 A 
ATOM      6  C   UNL     1      -1.323   3.207   0.092  0.00  0.00    +0.092 A 
ATOM      7  N   UNL     1      -0.156   3.910   0.083  0.00  0.00    -0.311 N 
ATOM      8  C   UNL     1       0.085   5.276   0.115  0.00  0.00    +0.116 A 
ATOM      9  C   UNL     1       1.462   5.484   0.088  0.00  0.00    +0.067 A 
ENDROOT
BRANCH   1  11
ATOM     10  N   UNL     1       4.201   3.792   1.146  0.00  0.00    -0.279 N 
ATOM     11  C   UNL     1       3.512   3.947  -0.002  0.00  0.00    +0.252 C 
ATOM     12  O   UNL     1       4.086   3.863  -1.073  0.00  0.00    -0.270 OA
ATOM     13  H   UNL     1       3.759   3.922   1.999  0.00  0.00    +0.155 HD
BRANCH  10  18
ATOM     14  C   UNL     1       7.707   3.576   0.053  0.00  0.00    +0.002 A 
ATOM     15  C   UNL     1       8.236   2.750   1.028  0.00  0.00    +0.003 A 
ATOM     16  C   UNL     1       7.429   2.268   2.043  0.00  0.00    +0.040 A 
ATOM     17  C   UNL     1       6.090   2.611   2.086  0.00  0.00    +0.144 A 
ATOM     18  C   UNL     1       5.556   3.442   1.106  0.00  0.00    +0.069 A 
ATOM     19  C   UNL     1       6.369   3.918   0.087  0.00  0.00    +0.026 A 
ATOM     20  F   UNL     1       5.302   2.140   3.077  0.00  0.00    -0.204 F 
ENDBRANCH  10  18
ENDBRANCH   1  11
BRANCH   9  21
ATOM     21  N   UNL     1       2.109   6.709   0.106  0.00  0.00    -0.356 N 
ATOM     22  H   UNL     1       1.597   7.526   0.213  0.00  0.00    +0.142 HD
ATOM     23  H   UNL     1       3.073   6.750   0.011  0.00  0.00    +0.142 HD
ENDBRANCH   9  21
BRANCH   8  24
ATOM     24  C   UNL     1      -0.898   6.284   0.165  0.00  0.00    +0.212 C 
ATOM     25  O   UNL     1      -1.364   6.627   1.238  0.00  0.00    -0.285 OA
BRANCH  24  26
ATOM     26  C   UNL     1      -1.366   6.925  -1.084  0.00  0.00    +0.024 A 
ATOM     27  C   UNL     1      -0.909   6.466  -2.320  0.00  0.00    +0.014 A 
ATOM     28  C   UNL     1      -1.353   7.064  -3.481  0.00  0.00    +0.033 A 
ATOM     29  C   UNL     1      -2.240   8.125  -3.421  0.00  0.00    +0.126 A 
ATOM     30  C   UNL     1      -2.692   8.588  -2.198  0.00  0.00    +0.033 A 
ATOM     31  C   UNL     1      -2.260   7.995  -1.030  0.00  0.00    +0.014 A 
BRANCH  29  32
ATOM     32  N   UNL     1      -2.708   8.766  -4.671  0.00  0.00    +0.056 N 
ATOM     33  O   UNL     1      -3.489   9.700  -4.621  0.00  0.00    -0.126 OA
ATOM     34  O   UNL     1      -2.312   8.360  -5.749  0.00  0.00    -0.126 OA
ENDBRANCH  29  32
ENDBRANCH  24  26
ENDBRANCH   8  24
TORSDOF 6
