REMARK  Name = ZINC41006946
REMARK  7 active torsions:
REMARK  status: ('A' for Active; 'I' for Inactive)
REMARK    1  A    between atoms: C_1  and  C_2
REMARK    2  A    between atoms: C_2  and  O_38
REMARK    3  A    between atoms: C_6  and  C_29
REMARK    4  A    between atoms: C_8  and  C_21
REMARK    5  A    between atoms: C_10  and  C_12
REMARK    6  A    between atoms: N_14  and  C_15
REMARK    7  A    between atoms: N_31  and  C_32
REMARK                            x       y       z     vdW  Elec       q    Type
REMARK                         _______ _______ _______ _____ _____    ______ ____
ROOT
ATOM      1  C   UNL     1      -0.806   1.026   1.207  0.00  0.00    +0.042 C 
ATOM      2  C   UNL     1      -0.329  -0.334   0.693  0.00  0.00    +0.082 C 
ATOM      3  C   UNL     1       0.851  -0.134  -0.264  0.00  0.00    +0.110 C 
ATOM      4  C   UNL     1       2.015   0.432   0.520  0.00  0.00    +0.148 C 
ATOM      5  O   UNL     1       2.592   1.423   0.141  0.00  0.00    -0.296 OA
ATOM      6  C   UNL     1       2.436  -0.274   1.789  0.00  0.00    +0.149 C 
ATOM      7  C   UNL     1       1.198  -0.469   2.672  0.00  0.00    +0.055 C 
ATOM      8  C   UNL     1       0.116  -1.198   1.874  0.00  0.00    +0.116 C 
ENDROOT
BRANCH   7   9
ATOM      9  C   UNL     1       1.568  -1.287   3.882  0.00  0.00    -0.006 A 
ATOM     10  C   UNL     1       2.832  -1.840   3.984  0.00  0.00    +0.046 A 
ATOM     11  C   UNL     1       3.171  -2.591   5.096  0.00  0.00    +0.020 A 
ATOM     12  C   UNL     1       2.247  -2.789   6.104  0.00  0.00    +0.003 A 
ATOM     13  C   UNL     1       0.984  -2.237   6.003  0.00  0.00    +0.020 A 
ATOM     14  C   UNL     1       0.646  -1.481   4.894  0.00  0.00    +0.046 A 
ATOM     15 CL   UNL     1      -0.938  -0.781   4.771  0.00  0.00    -0.083 Cl
ATOM     16 CL   UNL     1       3.993  -1.591   2.717  0.00  0.00    -0.083 Cl
ENDBRANCH   7   9
BRANCH   8  17
ATOM     17  C   UNL     1       0.665  -2.504   1.361  0.00  0.00    +0.224 C 
ATOM     18  O   UNL     1       1.801  -2.832   1.631  0.00  0.00    -0.275 OA
ATOM     19  N   UNL     1      -0.105  -3.307   0.601  0.00  0.00    -0.285 N 
ATOM     20  H   UNL     1      -0.984  -3.010   0.319  0.00  0.00    +0.155 HD
BRANCH  19  21
ATOM     21  C   UNL     1       0.364  -4.569   0.218  0.00  0.00    +0.033 A 
ATOM     22  C   UNL     1       1.728  -4.798   0.100  0.00  0.00    +0.023 A 
ATOM     23  C   UNL     1       2.188  -6.045  -0.277  0.00  0.00    +0.002 A 
ATOM     24  C   UNL     1       1.290  -7.064  -0.537  0.00  0.00    +0.000 A 
ATOM     25  C   UNL     1      -0.069  -6.839  -0.421  0.00  0.00    +0.002 A 
ATOM     26  C   UNL     1      -0.535  -5.596  -0.038  0.00  0.00    +0.023 A 
ENDBRANCH  19  21
ENDBRANCH   8  17
BRANCH   6  27
ATOM     27  C   UNL     1       3.456   0.562   2.519  0.00  0.00    +0.228 C 
ATOM     28  O   UNL     1       3.227   0.952   3.644  0.00  0.00    -0.275 OA
ATOM     29  N   UNL     1       4.622   0.875   1.921  0.00  0.00    -0.285 N 
ATOM     30  H   UNL     1       4.801   0.572   1.017  0.00  0.00    +0.155 HD
BRANCH  29  31
ATOM     31  C   UNL     1       5.576   1.639   2.604  0.00  0.00    +0.033 A 
ATOM     32  C   UNL     1       6.897   1.215   2.658  0.00  0.00    +0.023 A 
ATOM     33  C   UNL     1       7.836   1.971   3.333  0.00  0.00    +0.002 A 
ATOM     34  C   UNL     1       7.461   3.148   3.955  0.00  0.00    +0.000 A 
ATOM     35  C   UNL     1       6.145   3.572   3.903  0.00  0.00    +0.002 A 
ATOM     36  C   UNL     1       5.203   2.824   3.224  0.00  0.00    +0.023 A 
ENDBRANCH  29  31
ENDBRANCH   6  27
BRANCH   2  37
ATOM     37  O   UNL     1      -1.398  -0.984   0.003  0.00  0.00    -0.388 OA
ATOM     38  H   UNL     1      -1.730  -0.492  -0.760  0.00  0.00    +0.210 HD
ENDBRANCH   2  37
TORSDOF 6
