REMARK  Name = ZINC28632463
REMARK  11 active torsions:
REMARK  status: ('A' for Active; 'I' for Inactive)
REMARK    1  A    between atoms: C_1  and  C_2
REMARK    2  A    between atoms: C_2  and  C_3
REMARK    3  A    between atoms: C_2  and  C_4
REMARK    4  A    between atoms: C_2  and  C_5
REMARK    5  A    between atoms: C_8  and  C_11
REMARK    6  A    between atoms: C_14  and  C_16
REMARK    7  A    between atoms: N_18  and  N_19
REMARK    8  A    between atoms: C_20  and  C_21
REMARK    9  A    between atoms: C_23  and  O_29
REMARK   10  A    between atoms: C_24  and  O_28
REMARK   11  A    between atoms: O_29  and  C_30
REMARK                            x       y       z     vdW  Elec       q    Type
REMARK                         _______ _______ _______ _____ _____    ______ ____
ROOT
ATOM      1  C   UNL     1      -1.431   3.266   1.524  0.00  0.00    +0.236 C 
ATOM      2  O   UNL     1      -0.753   4.013   0.850  0.00  0.00    -0.274 OA
ATOM      3  N   UNL     1      -1.427   3.379   2.866  0.00  0.00    -0.207 N 
ATOM      4  H   UNL     1      -2.042   2.702   3.477  0.00  0.00    +0.177 HD
ENDROOT
BRANCH   1   7
ATOM      5  C   UNL     1      -2.239   2.134  -0.670  0.00  0.00    +0.032 C 
ATOM      6  C   UNL     1      -1.553   1.054   0.169  0.00  0.00    +0.022 C 
ATOM      7  C   UNL     1      -2.278   2.212   0.859  0.00  0.00    +0.085 C 
BRANCH   5  11
ATOM      8  C   UNL     1      -5.852   1.069  -2.685  0.00  0.00    -0.042 A 
ATOM      9  C   UNL     1      -5.250   2.286  -2.943  0.00  0.00    +0.004 A 
ATOM     10  C   UNL     1      -4.081   2.631  -2.291  0.00  0.00    +0.004 A 
ATOM     11  C   UNL     1      -3.514   1.758  -1.381  0.00  0.00    -0.044 A 
ATOM     12  C   UNL     1      -4.113   0.539  -1.127  0.00  0.00    +0.004 A 
ATOM     13  C   UNL     1      -5.284   0.196  -1.776  0.00  0.00    +0.004 A 
BRANCH   8  15
ATOM     14  C   UNL     1      -6.882   0.672  -4.905  0.00  0.00    +0.015 C 
ATOM     15  C   UNL     1      -7.127   0.693  -3.395  0.00  0.00    -0.013 C 
ATOM     16  C   UNL     1      -7.579  -0.694  -2.933  0.00  0.00    +0.015 C 
ATOM     17  C   UNL     1      -8.214   1.719  -3.069  0.00  0.00    +0.015 C 
ENDBRANCH   8  15
ENDBRANCH   5  11
ENDBRANCH   1   7
BRANCH   3  18
ATOM     18  N   UNL     1      -0.639   4.359   3.485  0.00  0.00    -0.188 NA
ATOM     19  C   UNL     1      -0.542   4.393   4.778  0.00  0.00    +0.138 C 
BRANCH  19  20
ATOM     20  C   UNL     1      -0.833   3.184   5.571  0.00  0.00    -0.000 A 
ATOM     21  C   UNL     1      -1.011   3.280   6.954  0.00  0.00    +0.059 A 
ATOM     22  C   UNL     1      -1.284   2.144   7.693  0.00  0.00    +0.163 A 
ATOM     23  C   UNL     1      -1.383   0.907   7.059  0.00  0.00    +0.177 A 
ATOM     24  C   UNL     1      -1.206   0.811   5.686  0.00  0.00    +0.087 A 
ATOM     25  C   UNL     1      -0.939   1.942   4.941  0.00  0.00    +0.033 A 
ATOM     26 CL   UNL     1      -1.330  -0.733   4.902  0.00  0.00    -0.080 Cl
BRANCH  23  27
ATOM     27  O   UNL     1      -1.652  -0.208   7.788  0.00  0.00    -0.502 OA
ATOM     28  H   UNL     1      -1.730  -1.186   7.289  0.00  0.00    +0.292 HD
ENDBRANCH  23  27
BRANCH  22  29
ATOM     29  O   UNL     1      -1.457   2.234   9.039  0.00  0.00    -0.491 OA
ATOM     30  C   UNL     1      -1.343   3.534   9.622  0.00  0.00    +0.277 C 
ENDBRANCH  22  29
ENDBRANCH  19  20
ENDBRANCH   3  18
TORSDOF 7
