REMARK  Name = ZINC39636525
REMARK  7 active torsions:
REMARK  status: ('A' for Active; 'I' for Inactive)
REMARK    1  A    between atoms: C_1  and  C_2
REMARK    2  A    between atoms: C_5  and  C_36
REMARK    3  A    between atoms: C_6  and  C_8
REMARK    4  A    between atoms: C_8  and  N_9
REMARK    5  A    between atoms: C_10  and  C_12
REMARK    6  A    between atoms: C_23  and  C_25
REMARK    7  A    between atoms: C_27  and  C_32
REMARK                            x       y       z     vdW  Elec       q    Type
REMARK                         _______ _______ _______ _____ _____    ______ ____
ROOT
ATOM      1  C   UNL     1       2.627  -4.882   3.964  0.00  0.00    +0.100 C 
ATOM      2  C   UNL     1       3.395  -5.785   2.973  0.00  0.00    +0.121 C 
ATOM      3  N   UNL     1       4.220  -6.667   3.831  0.00  0.00    -0.296 N 
ATOM      4  C   UNL     1       3.340  -6.994   4.978  0.00  0.00    +0.115 C 
ATOM      5  C   UNL     1       2.593  -5.679   5.279  0.00  0.00    -0.004 C 
ATOM      6  C   UNL     1       3.308  -4.907   6.384  0.00  0.00    -0.010 C 
ATOM      7  C   UNL     1       3.211  -5.694   7.694  0.00  0.00    -0.082 C 
ATOM      8  N   UNL     1       1.799  -5.894   8.044  0.00  0.00    +0.379 N 
ATOM      9  C   UNL     1       1.142  -6.716   7.021  0.00  0.00    -0.082 C 
ATOM     10  C   UNL     1       1.151  -5.973   5.682  0.00  0.00    -0.010 C 
ATOM     11  C   UNL     1       5.486  -7.079   3.618  0.00  0.00    +0.247 C 
ATOM     12  O   UNL     1       6.125  -6.621   2.691  0.00  0.00    -0.270 OA
ATOM     13  H   UNL     1       1.738  -6.358   8.937  0.00  0.00    -0.086 HD
ATOM     14  H   UNL     1       1.338  -4.998   8.101  0.00  0.00    -0.086 HD
ENDROOT
BRANCH  11  15
ATOM     15  C   UNL     1       6.096  -8.087   4.511  0.00  0.00    +0.040 A 
ATOM     16  C   UNL     1       7.485  -8.202   4.591  0.00  0.00    +0.025 A 
ATOM     17  C   UNL     1       8.049  -9.144   5.426  0.00  0.00    +0.058 A 
ATOM     18  C   UNL     1       7.242  -9.974   6.184  0.00  0.00    +0.050 A 
ATOM     19  C   UNL     1       5.863  -9.866   6.109  0.00  0.00    +0.125 A 
ATOM     20  C   UNL     1       5.286  -8.922   5.280  0.00  0.00    +0.051 A 
ATOM     21  F   UNL     1       5.082 -10.681   6.851  0.00  0.00    -0.205 F 
BRANCH  17  22
ATOM     22  C   UNL     1       9.549  -9.269   5.514  0.00  0.00    +0.418 C 
ATOM     23  F   UNL     1      10.029  -8.427   6.522  0.00  0.00    -0.166 F 
ATOM     24  F   UNL     1       9.890 -10.593   5.809  0.00  0.00    -0.166 F 
ATOM     25  F   UNL     1      10.119  -8.902   4.290  0.00  0.00    -0.166 F 
ENDBRANCH  17  22
ENDBRANCH  11  15
BRANCH   1  27
ATOM     26  N   UNL     1       0.601  -3.476   3.775  0.00  0.00    -0.311 N 
ATOM     27  C   UNL     1       1.227  -4.629   3.467  0.00  0.00    +0.218 C 
ATOM     28  O   UNL     1       0.664  -5.463   2.791  0.00  0.00    -0.275 OA
ATOM     29  H   UNL     1       1.052  -2.809   4.317  0.00  0.00    +0.149 HD
BRANCH  26  30
ATOM     30  C   UNL     1      -0.760  -3.230   3.292  0.00  0.00    +0.139 C 
BRANCH  30  36
ATOM     31  C   UNL     1      -3.397  -0.446   6.509  0.00  0.00    +0.044 C 
ATOM     32  C   UNL     1      -2.489  -0.548   5.311  0.00  0.00    -0.050 A 
ATOM     33  C   UNL     1      -2.084   0.598   4.651  0.00  0.00    +0.003 A 
ATOM     34  C   UNL     1      -1.251   0.505   3.552  0.00  0.00    +0.004 A 
ATOM     35  C   UNL     1      -0.822  -0.734   3.112  0.00  0.00    -0.046 A 
ATOM     36  C   UNL     1      -1.227  -1.879   3.772  0.00  0.00    -0.027 A 
ATOM     37  C   UNL     1      -2.056  -1.786   4.874  0.00  0.00    +0.008 A 
ATOM     38  C   UNL     1       0.085  -0.836   1.913  0.00  0.00    +0.044 C 
ENDBRANCH  30  36
ENDBRANCH  26  30
ENDBRANCH   1  27
TORSDOF 5
