REMARK  Name = ZINC22578216
REMARK  8 active torsions:
REMARK  status: ('A' for Active; 'I' for Inactive)
REMARK    1  A    between atoms: C_1  and  C_2
REMARK    2  A    between atoms: C_2  and  C_3
REMARK    3  A    between atoms: C_9  and  C_11
REMARK    4  A    between atoms: C_11  and  C_13
REMARK    5  A    between atoms: C_11  and  N_20
REMARK    6  A    between atoms: N_23  and  C_26
REMARK    7  A    between atoms: C_26  and  C_27
REMARK    8  A    between atoms: C_27  and  O_28
REMARK                            x       y       z     vdW  Elec       q    Type
REMARK                         _______ _______ _______ _____ _____    ______ ____
ROOT
ATOM      1  C   UNL     1      -1.901   4.016   2.259  0.00  0.00    +0.006 C 
ENDROOT
BRANCH   1   8
ATOM      2  C   UNL     1      -7.625   2.460   2.870  0.00  0.00    +0.152 A 
ATOM      3  N   UNL     1      -6.721   1.484   2.825  0.00  0.00    -0.205 NA
ATOM      4  C   UNL     1      -5.531   2.003   2.690  0.00  0.00    +0.199 A 
ATOM      5  N   UNL     1      -5.628   3.360   2.642  0.00  0.00    -0.170 N 
ATOM      6  N   UNL     1      -7.019   3.612   2.764  0.00  0.00    -0.146 NA
ATOM      7  C   UNL     1      -4.460   4.070   2.501  0.00  0.00    +0.282 A 
ATOM      8  C   UNL     1      -3.284   3.437   2.416  0.00  0.00    +0.050 A 
ATOM      9  S   UNL     1      -3.784   1.726   2.528  0.00  0.00    -0.050 S 
ATOM     10  O   UNL     1      -4.499   5.429   2.447  0.00  0.00    -0.265 OA
BRANCH   2  12
ATOM     11  C   UNL     1      -9.478   2.261   4.505  0.00  0.00    +0.012 C 
ATOM     12  C   UNL     1      -9.111   2.266   3.020  0.00  0.00    +0.075 C 
ENDBRANCH   2  12
ENDBRANCH   1   8
BRANCH   1  13
ATOM     13  C   UNL     1      -1.138   3.850   3.548  0.00  0.00    -0.056 A 
ATOM     14  C   UNL     1      -0.664   2.604   3.915  0.00  0.00    +0.004 A 
ATOM     15  C   UNL     1       0.040   2.452   5.094  0.00  0.00    +0.020 A 
ATOM     16  C   UNL     1       0.262   3.545   5.913  0.00  0.00    +0.041 A 
ATOM     17  C   UNL     1      -0.218   4.790   5.549  0.00  0.00    +0.020 A 
ATOM     18  C   UNL     1      -0.917   4.942   4.366  0.00  0.00    +0.004 A 
ATOM     19 CL   UNL     1       1.141   3.353   7.398  0.00  0.00    -0.084 Cl
ENDBRANCH   1  13
BRANCH   1  20
ATOM     20  N   UNL     1      -1.195   3.314   1.179  0.00  0.00    +0.389 N 
ATOM     21  C   UNL     1      -1.916   3.448  -0.095  0.00  0.00    -0.062 C 
ATOM     22  C   UNL     1      -1.193   2.640  -1.175  0.00  0.00    +0.066 C 
ATOM     23  N   UNL     1       0.189   3.122  -1.301  0.00  0.00    -0.304 NA
ATOM     24  C   UNL     1       0.910   2.988  -0.028  0.00  0.00    +0.066 C 
ATOM     25  C   UNL     1       0.187   3.797   1.052  0.00  0.00    -0.062 C 
ATOM     26  H   UNL     1      -1.160   2.246   1.438  0.00  0.00    -0.080 HD
BRANCH  23  27
ATOM     27  C   UNL     1       0.895   2.421  -2.382  0.00  0.00    +0.112 C 
BRANCH  27  28
ATOM     28  C   UNL     1       1.285   1.019  -1.910  0.00  0.00    +0.171 C 
BRANCH  28  29
ATOM     29  O   UNL     1       0.105   0.242  -1.694  0.00  0.00    -0.394 OA
ATOM     30  H   UNL     1       0.187  -0.799  -1.350  0.00  0.00    +0.209 HD
ENDBRANCH  28  29
ENDBRANCH  27  28
ENDBRANCH  23  27
ENDBRANCH   1  20
TORSDOF 7
