REMARK  Name = ZINC59331726
REMARK  7 active torsions:
REMARK  status: ('A' for Active; 'I' for Inactive)
REMARK    1  A    between atoms: C_1  and  C_2
REMARK    2  A    between atoms: N_7  and  C_10
REMARK    3  A    between atoms: C_15  and  N_16
REMARK    4  A    between atoms: N_16  and  C_17
REMARK    5  A    between atoms: C_17  and  N_19
REMARK    6  A    between atoms: C_20  and  C_22
REMARK    7  A    between atoms: C_25  and  C_27
REMARK                            x       y       z     vdW  Elec       q    Type
REMARK                         _______ _______ _______ _____ _____    ______ ____
ROOT
ATOM      1  C   UNL     1      -2.300  -2.264  -5.268  0.00  0.00    +0.141 C 
ATOM      2  S   UNL     1      -2.211  -2.373  -6.974  0.00  0.00    -0.018 S 
ENDROOT
BRANCH   1   3
ATOM      3  N   UNL     1      -3.438  -1.846  -4.678  0.00  0.00    -0.261 N 
ATOM      4  C   UNL     1      -4.505  -1.514  -5.432  0.00  0.00    +0.285 C 
ATOM      5  O   UNL     1      -4.441  -1.592  -6.645  0.00  0.00    -0.266 OA
ATOM      6  H   UNL     1      -3.489  -1.784  -3.712  0.00  0.00    +0.157 HD
BRANCH   4   7
ATOM      7  C   UNL     1      -5.741  -1.060  -4.792  0.00  0.00    +0.190 A 
ATOM      8  C   UNL     1      -6.902  -0.697  -5.440  0.00  0.00    +0.055 A 
ATOM      9  C   UNL     1      -7.820  -0.334  -4.450  0.00  0.00    +0.051 A 
ATOM     10  C   UNL     1      -7.194  -0.487  -3.246  0.00  0.00    +0.137 A 
ATOM     11  O   UNL     1      -5.944  -0.930  -3.464  0.00  0.00    -0.450 OA
BRANCH  10  12
ATOM     12  C   UNL     1      -7.792  -0.216  -1.923  0.00  0.00    +0.037 A 
ATOM     13  C   UNL     1      -8.448   0.994  -1.685  0.00  0.00    +0.033 A 
ATOM     14  C   UNL     1      -9.005   1.240  -0.446  0.00  0.00    +0.042 A 
ATOM     15  C   UNL     1      -8.915   0.291   0.559  0.00  0.00    +0.021 A 
ATOM     16  C   UNL     1      -8.268  -0.909   0.329  0.00  0.00    +0.022 A 
ATOM     17  C   UNL     1      -7.711  -1.172  -0.907  0.00  0.00    +0.052 A 
ATOM     18 CL   UNL     1      -6.904  -2.682  -1.195  0.00  0.00    -0.083 Cl
ATOM     19 CL   UNL     1      -9.820   2.744  -0.147  0.00  0.00    -0.084 Cl
ENDBRANCH  10  12
ENDBRANCH   4   7
ENDBRANCH   1   3
BRANCH   1  20
ATOM     20  N   UNL     1      -1.234  -2.595  -4.514  0.00  0.00    -0.295 N 
ATOM     21  H   UNL     1      -1.304  -2.594  -3.546  0.00  0.00    +0.154 HD
BRANCH  20  27
ATOM     22  C   UNL     1       1.173  -2.376  -4.687  0.00  0.00    +0.051 A 
ATOM     23  C   UNL     1       2.368  -2.728  -5.296  0.00  0.00    +0.025 A 
ATOM     24  C   UNL     1       2.372  -3.635  -6.339  0.00  0.00    +0.002 A 
ATOM     25  C   UNL     1       1.186  -4.193  -6.780  0.00  0.00    +0.002 A 
ATOM     26  C   UNL     1      -0.011  -3.847  -6.179  0.00  0.00    +0.025 A 
ATOM     27  C   UNL     1      -0.023  -2.943  -5.128  0.00  0.00    +0.054 A 
BRANCH  22  34
ATOM     28  C   UNL     1      -0.195   2.401  -0.950  0.00  0.00    +0.109 C 
ATOM     29  C   UNL     1      -0.036   0.929  -0.669  0.00  0.00    +0.213 C 
ATOM     30  O   UNL     1       0.088   0.539   0.472  0.00  0.00    -0.276 OA
ATOM     31  N   UNL     1      -0.030   0.045  -1.687  0.00  0.00    -0.299 N 
ATOM     32  C   UNL     1      -0.173   0.504  -3.076  0.00  0.00    +0.126 C 
ATOM     33  C   UNL     1       1.018  -0.020  -3.890  0.00  0.00    +0.124 C 
ATOM     34  N   UNL     1       1.167  -1.459  -3.631  0.00  0.00    -0.325 N 
ATOM     35  C   UNL     1       1.310  -1.917  -2.241  0.00  0.00    +0.124 C 
ATOM     36  C   UNL     1       0.125  -1.393  -1.429  0.00  0.00    +0.126 C 
ENDBRANCH  22  34
ENDBRANCH  20  27
ENDBRANCH   1  20
TORSDOF 6
