REMARK  Name = ZINC36206764
REMARK  19 active torsions:
REMARK  status: ('A' for Active; 'I' for Inactive)
REMARK    1  A    between atoms: C_1  and  C_2
REMARK    2  A    between atoms: C_8  and  C_20
REMARK    3  A    between atoms: C_12  and  C_13
REMARK    4  A    between atoms: C_13  and  O_15
REMARK    5  A    between atoms: O_15  and  C_16
REMARK    6  A    between atoms: C_16  and  C_17
REMARK    7  A    between atoms: C_17  and  O_18
REMARK    8  A    between atoms: O_18  and  C_19
REMARK    9  A    between atoms: C_20  and  N_21
REMARK   10  A    between atoms: N_21  and  C_22
REMARK   11  A    between atoms: N_21  and  C_32
REMARK   12  A    between atoms: C_22  and  C_23
REMARK   13  A    between atoms: C_23  and  C_25
REMARK   14  A    between atoms: C_23  and  O_31
REMARK   15  A    between atoms: C_25  and  O_26
REMARK   16  A    between atoms: O_26  and  C_27
REMARK   17  A    between atoms: C_27  and  C_28
REMARK   18  A    between atoms: C_27  and  C_29
REMARK   19  A    between atoms: C_27  and  C_30
REMARK                            x       y       z     vdW  Elec       q    Type
REMARK                         _______ _______ _______ _____ _____    ______ ____
ROOT
ATOM      1  C   UNL     1      -3.575   1.190  -1.047  0.00  0.00    +0.046 C 
ATOM      2  C   UNL     1      -3.339  -0.298  -1.013  0.00  0.00    -0.015 A 
ATOM      3  C   UNL     1      -2.531  -0.901  -1.979  0.00  0.00    +0.076 A 
ATOM      4  C   UNL     1      -1.812  -0.282  -3.116  0.00  0.00    +0.260 A 
ATOM      5  O   UNL     1      -1.876   0.918  -3.317  0.00  0.00    -0.267 OA
ATOM      6  N   UNL     1      -1.085  -1.080  -3.922  0.00  0.00    -0.312 N 
ATOM      7  H   UNL     1      -0.608  -0.691  -4.672  0.00  0.00    +0.170 HD
ATOM      8  C   UNL     1      -1.007  -2.416  -3.708  0.00  0.00    +0.094 A 
ATOM      9  N   UNL     1      -1.627  -2.994  -2.715  0.00  0.00    -0.229 NA
ATOM     10  C   UNL     1      -2.370  -2.301  -1.861  0.00  0.00    +0.116 A 
ATOM     11  S   UNL     1      -3.340  -2.704  -0.430  0.00  0.00    -0.062 S 
ATOM     12  C   UNL     1      -3.909  -1.060  -0.034  0.00  0.00    +0.102 A 
ENDROOT
BRANCH  12  13
ATOM     13  C   UNL     1      -4.776  -0.633   1.067  0.00  0.00    +0.346 C 
ATOM     14  O   UNL     1      -5.070   0.540   1.190  0.00  0.00    -0.244 OA
BRANCH  13  15
ATOM     15  O   UNL     1      -5.248  -1.542   1.945  0.00  0.00    -0.458 OA
BRANCH  15  16
ATOM     16  C   UNL     1      -6.088  -1.056   2.994  0.00  0.00    +0.260 C 
BRANCH  16  17
ATOM     17  C   UNL     1      -6.522  -2.224   3.882  0.00  0.00    +0.200 C 
BRANCH  17  18
ATOM     18  O   UNL     1      -5.378  -2.774   4.538  0.00  0.00    -0.380 OA
ATOM     19  C   UNL     1      -5.675  -3.877   5.397  0.00  0.00    +0.194 C 
ENDBRANCH  17  18
ENDBRANCH  16  17
ENDBRANCH  15  16
ENDBRANCH  13  15
ENDBRANCH  12  13
BRANCH   8  20
ATOM     20  C   UNL     1      -0.179  -3.260  -4.643  0.00  0.00    -0.003 C 
BRANCH  20  21
ATOM     21  N   UNL     1      -0.097  -4.631  -4.122  0.00  0.00    +0.388 N 
ATOM     22  H   UNL     1      -0.972  -4.878  -3.686  0.00  0.00    -0.081 HD
BRANCH  21  23
ATOM     23  C   UNL     1       0.985  -4.715  -3.132  0.00  0.00    -0.068 C 
ATOM     24  C   UNL     1       2.316  -4.363  -3.799  0.00  0.00    -0.015 C 
ATOM     25  C   UNL     1       3.442  -4.451  -2.768  0.00  0.00    -0.002 C 
ATOM     26  C   UNL     1       3.168  -3.468  -1.628  0.00  0.00    -0.000 C 
ATOM     27  C   UNL     1       1.837  -3.819  -0.961  0.00  0.00    -0.002 C 
ATOM     28  C   UNL     1       0.710  -3.732  -1.992  0.00  0.00    -0.015 C 
ENDBRANCH  21  23
BRANCH  21  29
ATOM     29  C   UNL     1       0.178  -5.559  -5.227  0.00  0.00    -0.044 C 
BRANCH  29  30
ATOM     30  C   UNL     1       0.161  -6.996  -4.703  0.00  0.00    +0.124 C 
BRANCH  30  31
ATOM     31  O   UNL     1      -1.118  -7.279  -4.131  0.00  0.00    -0.391 OA
ATOM     32  H   UNL     1      -1.854  -7.193  -4.752  0.00  0.00    +0.210 HD
ENDBRANCH  30  31
BRANCH  30  33
ATOM     33  C   UNL     1       0.428  -7.964  -5.858  0.00  0.00    +0.189 C 
BRANCH  33  34
ATOM     34  O   UNL     1       0.527  -9.296  -5.350  0.00  0.00    -0.372 OA
BRANCH  34  35
ATOM     35  C   UNL     1       0.777 -10.283  -6.353  0.00  0.00    +0.061 C 
ATOM     36  C   UNL     1       2.098  -9.969  -7.059  0.00  0.00    +0.041 C 
ATOM     37  C   UNL     1       0.864 -11.663  -5.699  0.00  0.00    +0.041 C 
ATOM     38  C   UNL     1      -0.362 -10.273  -7.374  0.00  0.00    +0.041 C 
ENDBRANCH  34  35
ENDBRANCH  33  34
ENDBRANCH  30  33
ENDBRANCH  29  30
ENDBRANCH  21  29
ENDBRANCH  20  21
ENDBRANCH   8  20
TORSDOF 14
