REMARK  Name = ZINC08691569
REMARK  9 active torsions:
REMARK  status: ('A' for Active; 'I' for Inactive)
REMARK    1  A    between atoms: C_1  and  C_2
REMARK    2  A    between atoms: C_2  and  C_3
REMARK    3  A    between atoms: C_2  and  C_4
REMARK    4  A    between atoms: C_4  and  N_5
REMARK    5  A    between atoms: C_13  and  C_25
REMARK    6  A    between atoms: C_13  and  C_29
REMARK    7  A    between atoms: C_15  and  C_17
REMARK    8  A    between atoms: C_17  and  C_18
REMARK    9  A    between atoms: C_18  and  C_19
REMARK                            x       y       z     vdW  Elec       q    Type
REMARK                         _______ _______ _______ _____ _____    ______ ____
ROOT
ATOM      1  N   UNL     1      -0.995  -1.797   0.217  0.00  0.00    -0.279 N 
ATOM      2  C   UNL     1      -1.135  -2.692   1.257  0.00  0.00    +0.127 A 
ATOM      3  C   UNL     1      -1.160  -4.045   0.974  0.00  0.00    +0.098 A 
ATOM      4  C   UNL     1      -1.016  -4.475  -0.350  0.00  0.00    +0.262 A 
ATOM      5  N   UNL     1      -0.863  -3.558  -1.328  0.00  0.00    -0.275 N 
ATOM      6  C   UNL     1      -0.865  -2.244  -1.046  0.00  0.00    +0.331 A 
ATOM      7  O   UNL     1      -0.740  -1.441  -1.951  0.00  0.00    -0.246 OA
ATOM      8  O   UNL     1      -1.027  -5.665  -0.617  0.00  0.00    -0.267 OA
ATOM      9  C   UNL     1      -1.358  -5.033   2.096  0.00  0.00    +0.258 C 
ATOM     10  N   UNL     1      -0.885  -4.400   3.338  0.00  0.00    -0.310 N 
ATOM     11  C   UNL     1      -1.158  -3.080   3.538  0.00  0.00    +0.074 C 
ATOM     12  N   UNL     1      -1.257  -2.262   2.525  0.00  0.00    -0.333 N 
ATOM     13  H   UNL     1      -1.422  -1.321   2.692  0.00  0.00    +0.168 HD
ATOM     14  H   UNL     1      -0.755  -3.851  -2.247  0.00  0.00    +0.173 HD
ATOM     15  H   UNL     1      -0.390  -4.910   3.998  0.00  0.00    +0.149 HD
ENDROOT
BRANCH   9  16
ATOM     16  C   UNL     1      -2.843  -5.380   2.224  0.00  0.00    +0.424 C 
ATOM     17  F   UNL     1      -3.295  -5.945   1.027  0.00  0.00    -0.168 F 
ATOM     18  F   UNL     1      -3.019  -6.296   3.267  0.00  0.00    -0.168 F 
ATOM     19  F   UNL     1      -3.572  -4.218   2.497  0.00  0.00    -0.168 F 
ENDBRANCH   9  16
BRANCH   9  20
ATOM     20  C   UNL     1      -0.549  -6.301   1.819  0.00  0.00    +0.424 C 
ATOM     21  F   UNL     1       0.730  -5.951   1.374  0.00  0.00    -0.168 F 
ATOM     22  F   UNL     1      -0.444  -7.053   2.995  0.00  0.00    -0.168 F 
ATOM     23  F   UNL     1      -1.194  -7.060   0.837  0.00  0.00    -0.168 F 
ENDBRANCH   9  20
BRANCH   1  24
ATOM     24  C   UNL     1      -0.994  -0.357   0.487  0.00  0.00    +0.131 C 
BRANCH  24  26
ATOM     25  C   UNL     1       0.457   1.634   0.905  0.00  0.00    +0.009 C 
ATOM     26  C   UNL     1       0.439   0.112   0.747  0.00  0.00    +0.003 C 
ATOM     27  C   UNL     1       0.965  -0.540   2.027  0.00  0.00    +0.009 C 
ENDBRANCH  24  26
ENDBRANCH   1  24
BRANCH  11  28
ATOM     28  C   UNL     1      -1.349  -2.561   4.940  0.00  0.00    +0.070 C 
BRANCH  28  29
ATOM     29  C   UNL     1      -0.001  -2.106   5.503  0.00  0.00    +0.011 C 
BRANCH  29  30
ATOM     30  C   UNL     1      -0.195  -1.579   6.926  0.00  0.00    -0.011 C 
ATOM     31  C   UNL     1      -1.064  -0.320   6.890  0.00  0.00    +0.003 C 
ATOM     32  C   UNL     1      -1.257   0.207   8.313  0.00  0.00    +0.000 C 
ATOM     33  C   UNL     1       0.105   0.546   8.921  0.00  0.00    +0.000 C 
ATOM     34  C   UNL     1       0.974  -0.713   8.958  0.00  0.00    +0.000 C 
ATOM     35  C   UNL     1       1.168  -1.240   7.535  0.00  0.00    +0.003 C 
ENDBRANCH  29  30
ENDBRANCH  28  29
ENDBRANCH  11  28
TORSDOF 7
