REMARK  Name = ZINC09366081
REMARK  5 active torsions:
REMARK  status: ('A' for Active; 'I' for Inactive)
REMARK    1  A    between atoms: C_3  and  C_6
REMARK    2  A    between atoms: C_15  and  C_17
REMARK    3  A    between atoms: C_17  and  N_56
REMARK    4  A    between atoms: C_20  and  C_23
REMARK    5  A    between atoms: N_25  and  C_26
REMARK                            x       y       z     vdW  Elec       q    Type
REMARK                         _______ _______ _______ _____ _____    ______ ____
ROOT
ATOM      1  C   UNL     1      -0.028   1.526   0.004  0.00  0.00    -0.078 C 
ATOM      2  C   UNL     1       0.000  -0.004   0.001  0.00  0.00    -0.006 C 
ATOM      3  C   UNL     1       0.732  -0.493  -1.252  0.00  0.00    +0.072 C 
ATOM      4  C   UNL     1       2.144   0.098  -1.272  0.00  0.00    -0.006 C 
ATOM      5  C   UNL     1       2.054   1.625  -1.232  0.00  0.00    -0.078 C 
ATOM      6  N   UNL     1       1.361   2.032   0.010  0.00  0.00    +0.384 N 
ATOM      7  H   UNL     1       1.858   1.632   0.815  0.00  0.00    -0.081 HD
ENDROOT
BRANCH   3   8
ATOM      8  C   UNL     1       0.815  -1.998  -1.232  0.00  0.00    +0.220 C 
ATOM      9  O   UNL     1       0.337  -2.619  -0.306  0.00  0.00    -0.275 OA
ATOM     10  N   UNL     1       1.421  -2.653  -2.241  0.00  0.00    -0.285 N 
ATOM     11  H   UNL     1       1.744  -2.162  -3.013  0.00  0.00    +0.155 HD
BRANCH  10  12
ATOM     12  C   UNL     1       1.585  -4.043  -2.176  0.00  0.00    +0.037 A 
ATOM     13  C   UNL     1       0.610  -4.829  -1.577  0.00  0.00    +0.027 A 
ATOM     14  C   UNL     1       0.770  -6.200  -1.513  0.00  0.00    +0.051 A 
ATOM     15  C   UNL     1       1.904  -6.794  -2.044  0.00  0.00    +0.166 A 
ATOM     16  C   UNL     1       2.883  -6.007  -2.646  0.00  0.00    +0.168 A 
ATOM     17  C   UNL     1       2.719  -4.634  -2.716  0.00  0.00    +0.072 A 
ATOM     18  O   UNL     1       3.887  -6.821  -3.085  0.00  0.00    -0.453 OA
ATOM     19  C   UNL     1       3.324  -8.146  -3.113  0.00  0.00    +0.466 C 
ATOM     20  O   UNL     1       2.294  -8.101  -2.108  0.00  0.00    -0.453 OA
ENDBRANCH  10  12
ENDBRANCH   3   8
BRANCH   6  21
ATOM     21  C   UNL     1       1.362   3.504   0.128  0.00  0.00    -0.003 C 
BRANCH  21  31
ATOM     22  C   UNL     1       6.780   5.071   0.961  0.00  0.00    +0.010 A 
ATOM     23  C   UNL     1       7.630   4.013   0.966  0.00  0.00    +0.057 A 
ATOM     24  S   UNL     1       6.555   2.618   0.696  0.00  0.00    -0.076 S 
ATOM     25  C   UNL     1       5.005   3.475   0.584  0.00  0.00    +0.116 A 
ATOM     26  C   UNL     1       5.357   4.824   0.758  0.00  0.00    +0.080 A 
ATOM     27  C   UNL     1       4.273   5.757   0.711  0.00  0.00    +0.260 A 
ATOM     28  O   UNL     1       4.479   6.951   0.851  0.00  0.00    -0.267 OA
ATOM     29  N   UNL     1       3.024   5.298   0.509  0.00  0.00    -0.312 N 
ATOM     30  H   UNL     1       2.286   5.927   0.477  0.00  0.00    +0.170 HD
ATOM     31  C   UNL     1       2.777   3.972   0.351  0.00  0.00    +0.094 A 
ATOM     32  N   UNL     1       3.744   3.096   0.394  0.00  0.00    -0.229 NA
BRANCH  22  35
ATOM     33  C   UNL     1       8.455   8.264   2.112  0.00  0.00    +0.008 A 
ATOM     34  C   UNL     1       8.112   6.929   2.136  0.00  0.00    +0.016 A 
ATOM     35  C   UNL     1       7.286   6.445   1.157  0.00  0.00    +0.021 A 
ATOM     36  S   UNL     1       6.972   7.909   0.184  0.00  0.00    -0.097 S 
ATOM     37  C   UNL     1       7.958   9.058   1.131  0.00  0.00    +0.046 A 
ENDBRANCH  22  35
ENDBRANCH  21  31
ENDBRANCH   6  21
TORSDOF 5
