REMARK  Name = ZINC13678961
REMARK  7 active torsions:
REMARK  status: ('A' for Active; 'I' for Inactive)
REMARK    1  A    between atoms: C_1  and  O_2
REMARK    2  A    between atoms: O_2  and  C_3
REMARK    3  A    between atoms: C_3  and  C_5
REMARK    4  A    between atoms: C_10  and  N_11
REMARK    5  A    between atoms: C_12  and  C_14
REMARK    6  A    between atoms: N_17  and  S_25
REMARK    7  A    between atoms: S_25  and  C_28
REMARK                            x       y       z     vdW  Elec       q    Type
REMARK                         _______ _______ _______ _____ _____    ______ ____
ROOT
ATOM      1  C   UNL     1       3.907  -2.199   0.321  0.00  0.00    +0.278 C 
ATOM      2  C   UNL     1       3.143  -2.783   1.518  0.00  0.00    +0.186 C 
ATOM      3  N   UNL     1       3.313  -4.246   1.482  0.00  0.00    -0.195 N 
ATOM      4  C   UNL     1       4.587  -4.748   1.173  0.00  0.00    +0.093 A 
ATOM      5  C   UNL     1       4.880  -6.084   1.397  0.00  0.00    +0.028 A 
ATOM      6  C   UNL     1       6.134  -6.576   1.084  0.00  0.00    +0.002 A 
ATOM      7  C   UNL     1       7.093  -5.737   0.550  0.00  0.00    +0.004 A 
ATOM      8  C   UNL     1       6.806  -4.403   0.326  0.00  0.00    +0.047 A 
ATOM      9  C   UNL     1       5.552  -3.901   0.637  0.00  0.00    +0.144 A 
ATOM     10  O   UNL     1       5.280  -2.587   0.417  0.00  0.00    -0.476 OA
ENDROOT
BRANCH   1  12
ATOM     11  N   UNL     1       2.610  -0.099   0.162  0.00  0.00    -0.282 N 
ATOM     12  C   UNL     1       3.805  -0.695   0.342  0.00  0.00    +0.260 C 
ATOM     13  O   UNL     1       4.798  -0.022   0.521  0.00  0.00    -0.271 OA
ATOM     14  H   UNL     1       1.805  -0.636   0.096  0.00  0.00    +0.155 HD
BRANCH  11  20
ATOM     15  C   UNL     1       1.422   1.968   0.598  0.00  0.00    +0.080 A 
ATOM     16  C   UNL     1       1.353   3.360   0.496  0.00  0.00    +0.017 A 
ATOM     17  C   UNL     1       2.376   4.056  -0.109  0.00  0.00    +0.001 A 
ATOM     18  C   UNL     1       3.470   3.382  -0.628  0.00  0.00    +0.002 A 
ATOM     19  C   UNL     1       3.550   2.007  -0.540  0.00  0.00    +0.024 A 
ATOM     20  C   UNL     1       2.531   1.289   0.072  0.00  0.00    +0.048 A 
BRANCH  15  21
ATOM     21  C   UNL     1       0.334   1.217   1.250  0.00  0.00    +0.341 C 
ATOM     22  O   UNL     1       0.351   0.002   1.254  0.00  0.00    -0.245 OA
BRANCH  21  24
ATOM     23  C   UNL     1      -1.723   1.075   2.454  0.00  0.00    +0.280 C 
ATOM     24  O   UNL     1      -0.683   1.879   1.837  0.00  0.00    -0.464 OA
ENDBRANCH  21  24
ENDBRANCH  15  21
ENDBRANCH  11  20
ENDBRANCH   1  12
BRANCH   3  25
ATOM     25  S   UNL     1       2.044  -5.263   1.796  0.00  0.00    +0.075 S 
ATOM     26  O   UNL     1       0.858  -4.532   1.516  0.00  0.00    -0.150 OA
ATOM     27  O   UNL     1       2.346  -6.498   1.161  0.00  0.00    -0.150 OA
BRANCH  25  28
ATOM     28  C   UNL     1       2.044  -5.576   3.530  0.00  0.00    +0.109 A 
ATOM     29  C   UNL     1       2.755  -6.647   4.039  0.00  0.00    +0.030 A 
ATOM     30  C   UNL     1       2.760  -6.890   5.399  0.00  0.00    +0.022 A 
ATOM     31  C   UNL     1       2.044  -6.068   6.251  0.00  0.00    +0.041 A 
ATOM     32  C   UNL     1       1.329  -4.999   5.741  0.00  0.00    +0.022 A 
ATOM     33  C   UNL     1       1.329  -4.754   4.381  0.00  0.00    +0.030 A 
ATOM     34 CL   UNL     1       2.045  -6.376   7.960  0.00  0.00    -0.084 Cl
ENDBRANCH  25  28
ENDBRANCH   3  25
TORSDOF 6
