REMARK  Name = ZINC12581062
REMARK  6 active torsions:
REMARK  status: ('A' for Active; 'I' for Inactive)
REMARK    1  A    between atoms: C_7  and  C_11
REMARK    2  A    between atoms: N_12  and  N_13
REMARK    3  A    between atoms: C_14  and  C_16
REMARK    4  A    between atoms: C_16  and  C_17
REMARK    5  A    between atoms: C_17  and  C_18
REMARK    6  A    between atoms: N_20  and  C_21
REMARK                            x       y       z     vdW  Elec       q    Type
REMARK                         _______ _______ _______ _____ _____    ______ ____
ROOT
ATOM      1  N   UNL     1       4.927   1.112   0.003  0.00  0.00    -0.207 N 
ATOM      2  C   UNL     1       3.751   1.771   0.011  0.00  0.00    +0.233 C 
ATOM      3  O   UNL     1       3.735   2.984   0.022  0.00  0.00    -0.274 OA
ATOM      4  H   UNL     1       4.940   0.142  -0.005  0.00  0.00    +0.177 HD
ENDROOT
BRANCH   1   6
ATOM      5  C   UNL     1       7.265   1.194  -0.002  0.00  0.00    +0.140 C 
ATOM      6  N   UNL     1       6.131   1.829   0.006  0.00  0.00    -0.188 NA
BRANCH   5  13
ATOM      7  C   UNL     1       8.261   5.770   0.035  0.00  0.00    +0.001 A 
ATOM      8  C   UNL     1       9.627   6.014   0.035  0.00  0.00    +0.002 A 
ATOM      9  C   UNL     1      10.526   4.970   0.024  0.00  0.00    +0.026 A 
ATOM     10  C   UNL     1      10.066   3.657   0.013  0.00  0.00    +0.047 A 
ATOM     11  C   UNL     1       8.682   3.412   0.014  0.00  0.00    +0.008 A 
ATOM     12  C   UNL     1       7.785   4.478   0.025  0.00  0.00    +0.010 A 
ATOM     13  C   UNL     1       8.530   1.946   0.002  0.00  0.00    +0.020 A 
ATOM     14  C   UNL     1       9.786   1.425   0.001  0.00  0.00    +0.093 A 
ATOM     15  N   UNL     1      10.702   2.434   0.001  0.00  0.00    -0.360 N 
ATOM     16  H   UNL     1      11.664   2.310  -0.002  0.00  0.00    +0.165 HD
ENDBRANCH   5  13
ENDBRANCH   1   6
BRANCH   2  17
ATOM     17  C   UNL     1       2.456   1.000   0.008  0.00  0.00    +0.107 C 
BRANCH  17  18
ATOM     18  C   UNL     1       1.280   1.979   0.019  0.00  0.00    +0.105 C 
BRANCH  18  19
ATOM     19  C   UNL     1      -0.015   1.208   0.015  0.00  0.00    +0.218 C 
ATOM     20  O   UNL     1       0.001  -0.005   0.005  0.00  0.00    -0.275 OA
ATOM     21  N   UNL     1      -1.191   1.867   0.018  0.00  0.00    -0.284 N 
ATOM     22  H   UNL     1      -1.205   2.834   0.092  0.00  0.00    +0.155 HD
BRANCH  21  23
ATOM     23  C   UNL     1      -2.392   1.155  -0.086  0.00  0.00    +0.052 A 
ATOM     24  C   UNL     1      -2.510  -0.099   0.499  0.00  0.00    +0.026 A 
ATOM     25  C   UNL     1      -3.696  -0.799   0.395  0.00  0.00    +0.022 A 
ATOM     26  C   UNL     1      -4.766  -0.253  -0.291  0.00  0.00    +0.042 A 
ATOM     27  C   UNL     1      -4.652   0.996  -0.876  0.00  0.00    +0.041 A 
ATOM     28  C   UNL     1      -3.470   1.704  -0.770  0.00  0.00    +0.064 A 
ATOM     29 CL   UNL     1      -3.329   3.274  -1.497  0.00  0.00    -0.082 Cl
ATOM     30 CL   UNL     1      -6.255  -1.136  -0.420  0.00  0.00    -0.083 Cl
ENDBRANCH  21  23
ENDBRANCH  18  19
ENDBRANCH  17  18
ENDBRANCH   2  17
TORSDOF 6
