REMARK  Name = ZINC20830252
REMARK  11 active torsions:
REMARK  status: ('A' for Active; 'I' for Inactive)
REMARK    1  A    between atoms: C_4  and  C_7
REMARK    2  A    between atoms: C_7  and  C_8
REMARK    3  A    between atoms: C_8  and  C_9
REMARK    4  A    between atoms: C_12  and  S_15
REMARK    5  A    between atoms: N_13  and  N_14
REMARK    6  A    between atoms: S_15  and  C_16
REMARK    7  A    between atoms: C_16  and  C_17
REMARK    8  A    between atoms: C_17  and  C_18
REMARK    9  A    between atoms: N_20  and  C_21
REMARK   10  A    between atoms: C_24  and  S_27
REMARK   11  A    between atoms: S_27  and  N_30
REMARK                            x       y       z     vdW  Elec       q    Type
REMARK                         _______ _______ _______ _____ _____    ______ ____
ROOT
ATOM      1  C   UNL     1      11.290  -3.962  -1.587  0.00  0.00    +0.107 C 
ENDROOT
BRANCH   1   2
ATOM      2  C   UNL     1      11.646  -5.426  -1.590  0.00  0.00    +0.218 C 
ATOM      3  O   UNL     1      10.769  -6.263  -1.577  0.00  0.00    -0.275 OA
ATOM      4  N   UNL     1      12.939  -5.805  -1.607  0.00  0.00    -0.285 N 
ATOM      5  H   UNL     1      13.733  -5.048  -1.696  0.00  0.00    +0.155 HD
BRANCH   4   6
ATOM      6  C   UNL     1      13.272  -7.161  -1.513  0.00  0.00    +0.033 A 
ATOM      7  C   UNL     1      14.421  -7.550  -0.835  0.00  0.00    +0.025 A 
ATOM      8  C   UNL     1      14.743  -8.889  -0.738  0.00  0.00    +0.030 A 
ATOM      9  C   UNL     1      13.931  -9.842  -1.325  0.00  0.00    +0.106 A 
ATOM     10  C   UNL     1      12.790  -9.457  -2.006  0.00  0.00    +0.030 A 
ATOM     11  C   UNL     1      12.458  -8.120  -2.101  0.00  0.00    +0.025 A 
BRANCH   9  12
ATOM     12  S   UNL     1      14.350 -11.549  -1.206  0.00  0.00    +0.061 S 
ATOM     13  O   UNL     1      15.170 -11.686  -0.054  0.00  0.00    -0.153 OA
ATOM     14  O   UNL     1      13.140 -12.277  -1.370  0.00  0.00    -0.153 OA
BRANCH  12  15
ATOM     15  N   UNL     1      15.302 -11.912  -2.511  0.00  0.00    -0.172 NA
ATOM     16  C   UNL     1      14.710 -12.383  -3.773  0.00  0.00    +0.137 C 
ATOM     17  C   UNL     1      15.278 -11.529  -4.917  0.00  0.00    +0.177 C 
ATOM     18  O   UNL     1      16.706 -11.538  -4.844  0.00  0.00    -0.377 OA
ATOM     19  C   UNL     1      17.235 -10.960  -3.649  0.00  0.00    +0.177 C 
ATOM     20  C   UNL     1      16.766 -11.779  -2.441  0.00  0.00    +0.137 C 
ENDBRANCH  12  15
ENDBRANCH   9  12
ENDBRANCH   4   6
ENDBRANCH   1   2
BRANCH   1  21
ATOM     21  C   UNL     1       9.768  -3.807  -1.565  0.00  0.00    +0.086 C 
BRANCH  21  22
ATOM     22  S   UNL     1       9.341  -2.048  -1.562  0.00  0.00    -0.084 S 
BRANCH  22  26
ATOM     23  C   UNL     1       5.457  -1.683  -1.508  0.00  0.00    +0.151 A 
ATOM     24  N   UNL     1       5.619  -2.976  -1.509  0.00  0.00    -0.132 NA
ATOM     25  N   UNL     1       6.871  -3.264  -1.526  0.00  0.00    -0.121 NA
ATOM     26  C   UNL     1       7.582  -2.161  -1.537  0.00  0.00    +0.208 A 
ATOM     27  N   UNL     1       6.702  -1.117  -1.531  0.00  0.00    -0.228 N 
BRANCH  27  28
ATOM     28  N   UNL     1       7.002   0.215  -1.542  0.00  0.00    -0.295 N 
ATOM     29  H   UNL     1       8.053   0.542  -1.561  0.00  0.00    +0.163 HD
ATOM     30  H   UNL     1       6.194   0.962  -1.532  0.00  0.00    +0.163 HD
ENDBRANCH  27  28
BRANCH  23  31
ATOM     31  C   UNL     1       4.142  -0.947  -1.491  0.00  0.00    +0.082 C 
BRANCH  31  32
ATOM     32  C   UNL     1       3.716  -0.697  -0.043  0.00  0.00    +0.043 C 
BRANCH  32  36
ATOM     33  C   UNL     1      -0.011   1.389   0.005  0.00  0.00    +0.000 A 
ATOM     34  C   UNL     1       1.176   2.096  -0.012  0.00  0.00    +0.000 A 
ATOM     35  C   UNL     1       2.383   1.421  -0.027  0.00  0.00    +0.003 A 
ATOM     36  C   UNL     1       2.401   0.039  -0.026  0.00  0.00    -0.047 A 
ATOM     37  C   UNL     1       1.214  -0.668  -0.009  0.00  0.00    +0.003 A 
ATOM     38  C   UNL     1       0.007   0.007   0.006  0.00  0.00    +0.000 A 
ENDBRANCH  32  36
ENDBRANCH  31  32
ENDBRANCH  23  31
ENDBRANCH  22  26
ENDBRANCH  21  22
ENDBRANCH   1  21
TORSDOF 11
