REMARK  Name = ZINC08605238
REMARK  11 active torsions:
REMARK  status: ('A' for Active; 'I' for Inactive)
REMARK    1  A    between atoms: C_1  and  C_2
REMARK    2  A    between atoms: C_2  and  C_3
REMARK    3  A    between atoms: N_5  and  C_16
REMARK    4  A    between atoms: C_16  and  C_17
REMARK    5  A    between atoms: N_19  and  C_20
REMARK    6  A    between atoms: C_23  and  N_27
REMARK    7  A    between atoms: C_25  and  C_26
REMARK    8  A    between atoms: N_27  and  C_28
REMARK    9  A    between atoms: N_27  and  C_30
REMARK   10  A    between atoms: C_28  and  C_29
REMARK   11  A    between atoms: C_30  and  C_31
REMARK                            x       y       z     vdW  Elec       q    Type
REMARK                         _______ _______ _______ _____ _____    ______ ____
ROOT
ATOM      1  C   UNL     1      -5.159   1.236   1.465  0.00  0.00    +0.239 C 
ATOM      2  O   UNL     1      -4.570   0.702   2.381  0.00  0.00    -0.273 OA
ATOM      3  N   UNL     1      -6.126   2.140   1.720  0.00  0.00    -0.284 N 
ATOM      4  H   UNL     1      -6.541   2.625   0.990  0.00  0.00    +0.155 HD
ENDROOT
BRANCH   3   5
ATOM      5  C   UNL     1      -6.529   2.379   3.038  0.00  0.00    +0.036 A 
ATOM      6  C   UNL     1      -6.359   1.398   4.007  0.00  0.00    +0.025 A 
ATOM      7  C   UNL     1      -6.758   1.637   5.307  0.00  0.00    +0.023 A 
ATOM      8  C   UNL     1      -7.329   2.851   5.645  0.00  0.00    +0.014 A 
ATOM      9  C   UNL     1      -7.500   3.829   4.683  0.00  0.00    +0.026 A 
ATOM     10  C   UNL     1      -7.096   3.599   3.382  0.00  0.00    -0.028 A 
ATOM     11  C   UNL     1      -7.277   4.668   2.336  0.00  0.00    +0.046 C 
BRANCH   8  12
ATOM     12  N   UNL     1      -7.733   3.089   6.962  0.00  0.00    -0.394 NA
ATOM     13  H   UNL     1      -8.124   4.016   7.031  0.00  0.00    +0.126 HD
BRANCH  12  14
ATOM     14  C   UNL     1      -8.747   2.099   7.350  0.00  0.00    +0.081 C 
ATOM     15  C   UNL     1      -9.279   2.434   8.745  0.00  0.00    +0.022 C 
ENDBRANCH  12  14
BRANCH  12  16
ATOM     16  C   UNL     1      -6.573   2.979   7.857  0.00  0.00    +0.081 C 
ATOM     17  C   UNL     1      -5.572   4.089   7.534  0.00  0.00    +0.022 C 
ENDBRANCH  12  16
ENDBRANCH   8  12
ENDBRANCH   3   5
BRANCH   1  18
ATOM     18  C   UNL     1      -4.811   0.887   0.041  0.00  0.00    +0.243 C 
BRANCH  18  21
ATOM     19  C   UNL     1      -1.424  -0.540   0.002  0.00  0.00    +0.135 A 
ATOM     20  N   UNL     1      -2.403   0.299   0.011  0.00  0.00    -0.154 NA
ATOM     21  N   UNL     1      -3.739  -0.111   0.030  0.00  0.00    -0.217 N 
ATOM     22  C   UNL     1      -4.043  -1.429   0.040  0.00  0.00    +0.292 A 
ATOM     23  O   UNL     1      -5.202  -1.805   0.057  0.00  0.00    -0.264 OA
ATOM     24  C   UNL     1      -2.937  -2.389   0.030  0.00  0.00    +0.116 A 
ATOM     25  N   UNL     1      -1.640  -1.903   0.005  0.00  0.00    -0.291 N 
ATOM     26  C   UNL     1      -0.754  -2.976  -0.007  0.00  0.00    +0.063 A 
ATOM     27  C   UNL     1       0.632  -3.193  -0.027  0.00  0.00    +0.034 A 
ATOM     28  C   UNL     1       1.120  -4.450  -0.033  0.00  0.00    +0.048 A 
ATOM     29  S   UNL     1      -0.361  -5.445  -0.011  0.00  0.00    -0.095 S 
ATOM     30  C   UNL     1      -1.550  -4.128   0.006  0.00  0.00    +0.038 A 
ATOM     31  C   UNL     1      -2.888  -3.763   0.036  0.00  0.00    +0.048 A 
BRANCH  19  33
ATOM     32  C   UNL     1      -0.029   1.510  -0.020  0.00  0.00    +0.012 C 
ATOM     33  C   UNL     1      -0.010  -0.020  -0.020  0.00  0.00    +0.073 C 
ENDBRANCH  19  33
ENDBRANCH  18  21
ENDBRANCH   1  18
TORSDOF 7
