REMARK  Name = ZINC39121550
REMARK  2 active torsions:
REMARK  status: ('A' for Active; 'I' for Inactive)
REMARK    1  A    between atoms: C_1  and  N_2
REMARK    2  A    between atoms: C_10  and  N_14
REMARK                            x       y       z     vdW  Elec       q    Type
REMARK                         _______ _______ _______ _____ _____    ______ ____
ROOT
ATOM      1  C   UNL     1      -0.018   1.461   0.010  0.00  0.00    +0.152 C 
ATOM      2  N   UNL     1       0.002  -0.004   0.002  0.00  0.00    -0.311 N 
ATOM      3  C   UNL     1       0.006  -0.667  -1.170  0.00  0.00    +0.252 A 
ATOM      4  O   UNL     1      -0.008  -0.039  -2.215  0.00  0.00    -0.268 OA
ATOM      5  C   UNL     1       0.025  -2.076  -1.207  0.00  0.00    +0.071 A 
ATOM      6  C   UNL     1       0.041  -2.792  -0.055  0.00  0.00    +0.015 A 
ATOM      7  C   UNL     1       0.037  -2.105   1.186  0.00  0.00    +0.002 A 
ATOM      8  C   UNL     1       0.023  -0.697   1.196  0.00  0.00    +0.054 A 
ATOM      9  C   UNL     1       0.025  -0.020   2.408  0.00  0.00    +0.052 A 
ATOM     10  C   UNL     1       0.046  -0.735   3.595  0.00  0.00    +0.062 A 
ATOM     11  C   UNL     1       0.066  -2.132   3.580  0.00  0.00    +0.145 A 
ATOM     12  C   UNL     1       0.052  -2.812   2.397  0.00  0.00    +0.050 A 
ATOM     13  F   UNL     1       0.086  -2.815   4.745  0.00  0.00    -0.204 F 
ENDROOT
BRANCH  10  14
ATOM     14  N   UNL     1       0.047  -0.056   4.812  0.00  0.00    -0.356 N 
ATOM     15  H   UNL     1       0.034   0.914   4.826  0.00  0.00    +0.142 HD
ATOM     16  H   UNL     1       0.062  -0.553   5.644  0.00  0.00    +0.142 HD
ENDBRANCH  10  14
TORSDOF 1
