REMARK  Name = ZINC64042827
REMARK  10 active torsions:
REMARK  status: ('A' for Active; 'I' for Inactive)
REMARK    1  A    between atoms: C_1  and  C_2
REMARK    2  A    between atoms: C_2  and  C_4
REMARK    3  A    between atoms: C_7  and  S_10
REMARK    4  A    between atoms: S_10  and  N_13
REMARK    5  A    between atoms: N_13  and  C_14
REMARK    6  A    between atoms: C_14  and  C_15
REMARK    7  A    between atoms: C_18  and  C_21
REMARK    8  A    between atoms: N_23  and  C_24
REMARK    9  A    between atoms: C_24  and  C_25
REMARK   10  A    between atoms: C_25  and  C_26
REMARK                            x       y       z     vdW  Elec       q    Type
REMARK                         _______ _______ _______ _____ _____    ______ ____
ROOT
ATOM      1  C   UNL     1       3.692  -4.393  -5.608  0.00  0.00    -0.032 A 
ATOM      2  C   UNL     1       3.716  -5.527  -6.401  0.00  0.00    +0.006 A 
ATOM      3  C   UNL     1       4.852  -5.847  -7.116  0.00  0.00    +0.013 A 
ATOM      4  C   UNL     1       5.977  -5.024  -7.039  0.00  0.00    +0.037 A 
ATOM      5  C   UNL     1       5.945  -3.882  -6.238  0.00  0.00    +0.013 A 
ATOM      6  C   UNL     1       4.802  -3.570  -5.532  0.00  0.00    +0.006 A 
ENDROOT
BRANCH   4   7
ATOM      7  C   UNL     1       7.197  -5.362  -7.803  0.00  0.00    +0.244 C 
ATOM      8  O   UNL     1       7.222  -6.358  -8.500  0.00  0.00    -0.270 OA
ATOM      9  N   UNL     1       8.281  -4.566  -7.727  0.00  0.00    -0.311 N 
ATOM     10  H   UNL     1       8.262  -3.771  -7.171  0.00  0.00    +0.149 HD
BRANCH   9  11
ATOM     11  C   UNL     1       9.491  -4.900  -8.483  0.00  0.00    +0.109 C 
BRANCH  11  12
ATOM     12  C   UNL     1      10.565  -3.843  -8.222  0.00  0.00    +0.052 C 
BRANCH  12  13
ATOM     13  C   UNL     1      11.808  -4.187  -9.001  0.00  0.00    -0.040 C 
ATOM     14  C   UNL     1      12.161  -3.717 -10.219  0.00  0.00    -0.001 A 
ATOM     15  C   UNL     1      11.518  -2.781 -11.148  0.00  0.00    +0.010 A 
ATOM     16  C   UNL     1      12.127  -2.499 -12.322  0.00  0.00    +0.001 A 
ATOM     17  C   UNL     1      13.355  -3.077 -12.673  0.00  0.00    +0.002 A 
ATOM     18  C   UNL     1      14.007  -3.945 -11.871  0.00  0.00    +0.026 A 
ATOM     19  C   UNL     1      13.458  -4.313 -10.612  0.00  0.00    +0.043 A 
ATOM     20  N   UNL     1      13.890  -5.120  -9.674  0.00  0.00    -0.380 N 
ATOM     21  C   UNL     1      12.918  -5.123  -8.575  0.00  0.00    +0.144 C 
ATOM     22  H   UNL     1      14.716  -5.628  -9.700  0.00  0.00    +0.160 HD
ENDBRANCH  12  13
ENDBRANCH  11  12
ENDBRANCH   9  11
ENDBRANCH   4   7
BRANCH   1  23
ATOM     23  C   UNL     1       2.448  -4.049  -4.830  0.00  0.00    +0.141 C 
BRANCH  23  24
ATOM     24  N   UNL     1       1.576  -3.205  -5.650  0.00  0.00    -0.186 NA
ATOM     25  H   UNL     1       1.925  -2.779  -6.449  0.00  0.00    +0.148 HD
BRANCH  24  26
ATOM     26  S   UNL     1      -0.005  -2.978  -5.214  0.00  0.00    +0.059 S 
ATOM     27  O   UNL     1      -0.542  -4.266  -4.946  0.00  0.00    -0.153 OA
ATOM     28  O   UNL     1      -0.571  -2.102  -6.179  0.00  0.00    -0.153 OA
BRANCH  26  32
ATOM     29  C   UNL     1      -0.000  -0.733  -1.276  0.00  0.00    +0.017 A 
ATOM     30  C   UNL     1      -0.015  -0.031  -2.486  0.00  0.00    +0.013 A 
ATOM     31  C   UNL     1      -0.017  -0.721  -3.679  0.00  0.00    +0.029 A 
ATOM     32  C   UNL     1      -0.003  -2.105  -3.683  0.00  0.00    +0.105 A 
ATOM     33  C   UNL     1       0.011  -2.807  -2.490  0.00  0.00    +0.029 A 
ATOM     34  C   UNL     1       0.019  -2.131  -1.288  0.00  0.00    +0.013 A 
BRANCH  29  36
ATOM     35  C   UNL     1      -0.018   1.503   0.010  0.00  0.00    +0.091 C 
ATOM     36  C   UNL     1       0.002  -0.004   0.002  0.00  0.00    +0.160 C 
ATOM     37  O   UNL     1       0.020  -0.616   1.049  0.00  0.00    -0.292 OA
ENDBRANCH  29  36
ENDBRANCH  26  32
ENDBRANCH  24  26
ENDBRANCH  23  24
ENDBRANCH   1  23
TORSDOF 9
