REMARK  Name = ZINC63830707
REMARK  7 active torsions:
REMARK  status: ('A' for Active; 'I' for Inactive)
REMARK    1  A    between atoms: C_1  and  C_2
REMARK    2  A    between atoms: C_2  and  C_4
REMARK    3  A    between atoms: C_2  and  N_17
REMARK    4  A    between atoms: N_17  and  C_18
REMARK    5  A    between atoms: C_18  and  C_19
REMARK    6  A    between atoms: C_19  and  C_21
REMARK    7  A    between atoms: C_19  and  C_27
REMARK                            x       y       z     vdW  Elec       q    Type
REMARK                         _______ _______ _______ _____ _____    ______ ____
ROOT
ATOM      1  N   UNL     1       0.813  -0.499   1.128  0.00  0.00    +0.387 N 
ATOM      2  H   UNL     1       0.466  -0.099   1.987  0.00  0.00    -0.085 HD
ATOM      3  H   UNL     1       0.753  -1.505   1.177  0.00  0.00    -0.085 HD
ENDROOT
BRANCH   1   5
ATOM      4  C   UNL     1      -0.005   1.516   0.001  0.00  0.00    -0.004 C 
ATOM      5  C   UNL     1       0.006  -0.014   0.001  0.00  0.00    +0.013 C 
BRANCH   5   6
ATOM      6  C   UNL     1      -1.405  -0.526   0.137  0.00  0.00    +0.206 C 
ATOM      7  O   UNL     1      -1.842  -0.818   1.230  0.00  0.00    -0.277 OA
ATOM      8  N   UNL     1      -2.182  -0.659  -0.957  0.00  0.00    -0.262 N 
ATOM      9  C   UNL     1      -1.645  -0.413  -2.304  0.00  0.00    +0.209 C 
ATOM     10  C   UNL     1      -2.664   0.356  -3.105  0.00  0.00    +0.235 C 
ATOM     11  O   UNL     1      -2.294   1.103  -3.987  0.00  0.00    -0.274 OA
ATOM     12  N   UNL     1      -3.981   0.224  -2.855  0.00  0.00    -0.283 N 
ATOM     13  C   UNL     1      -4.433  -0.592  -1.813  0.00  0.00    +0.055 A 
ATOM     14  C   UNL     1      -3.527  -1.044  -0.847  0.00  0.00    +0.058 A 
ATOM     15  C   UNL     1      -3.957  -1.850   0.191  0.00  0.00    +0.025 A 
ATOM     16  C   UNL     1      -5.290  -2.216   0.270  0.00  0.00    +0.002 A 
ATOM     17  C   UNL     1      -6.188  -1.778  -0.686  0.00  0.00    +0.002 A 
ATOM     18  C   UNL     1      -5.766  -0.960  -1.727  0.00  0.00    +0.025 A 
ATOM     19  H   UNL     1      -4.623   0.700  -3.405  0.00  0.00    +0.155 HD
ENDBRANCH   5   6
ENDBRANCH   1   5
BRANCH   1  20
ATOM     20  C   UNL     1       2.214  -0.101   0.934  0.00  0.00    -0.069 C 
BRANCH  20  21
ATOM     21  C   UNL     1       3.055  -0.605   2.109  0.00  0.00    +0.030 C 
BRANCH  21  22
ATOM     22  C   UNL     1       4.509  -0.304   1.851  0.00  0.00    -0.036 C 
ATOM     23  C   UNL     1       5.519  -1.198   1.755  0.00  0.00    -0.001 A 
ATOM     24  C   UNL     1       5.565  -2.662   1.858  0.00  0.00    +0.010 A 
ATOM     25  C   UNL     1       6.753  -3.292   1.714  0.00  0.00    +0.001 A 
ATOM     26  C   UNL     1       7.938  -2.585   1.469  0.00  0.00    +0.002 A 
ATOM     27  C   UNL     1       7.976  -1.240   1.362  0.00  0.00    +0.026 A 
ATOM     28  C   UNL     1       6.784  -0.475   1.496  0.00  0.00    +0.043 A 
ATOM     29  N   UNL     1       6.565   0.816   1.434  0.00  0.00    -0.380 N 
ATOM     30  C   UNL     1       5.132   1.057   1.642  0.00  0.00    +0.145 C 
ATOM     31  H   UNL     1       7.236   1.498   1.274  0.00  0.00    +0.160 HD
ENDBRANCH  21  22
BRANCH  21  32
ATOM     32  C   UNL     1       2.615   0.085   3.374  0.00  0.00    -0.042 A 
ATOM     33  C   UNL     1       2.689   1.462   3.472  0.00  0.00    +0.004 A 
ATOM     34  C   UNL     1       2.286   2.096   4.633  0.00  0.00    +0.000 A 
ATOM     35  C   UNL     1       1.809   1.352   5.696  0.00  0.00    +0.000 A 
ATOM     36  C   UNL     1       1.734  -0.025   5.598  0.00  0.00    +0.000 A 
ATOM     37  C   UNL     1       2.133  -0.658   4.436  0.00  0.00    +0.004 A 
ENDBRANCH  21  32
ENDBRANCH  20  21
ENDBRANCH   1  20
TORSDOF 6
