REMARK  Name = ZINC23995710
REMARK  6 active torsions:
REMARK  status: ('A' for Active; 'I' for Inactive)
REMARK    1  A    between atoms: C_1  and  C_2
REMARK    2  A    between atoms: C_2  and  C_4
REMARK    3  A    between atoms: C_9  and  N_10
REMARK    4  A    between atoms: C_11  and  C_13
REMARK    5  A    between atoms: C_14  and  C_15
REMARK    6  A    between atoms: C_19  and  N_21
REMARK                            x       y       z     vdW  Elec       q    Type
REMARK                         _______ _______ _______ _____ _____    ______ ____
ROOT
ATOM      1  N   UNL     1       0.188  -0.157  -0.061  0.00  0.00    -0.281 N 
ATOM      2  C   UNL     1      -0.891  -0.961   0.009  0.00  0.00    +0.241 C 
ATOM      3  O   UNL     1      -2.009  -0.480   0.019  0.00  0.00    -0.270 OA
ATOM      4  H   UNL     1       1.193  -0.592  -0.164  0.00  0.00    +0.155 HD
ENDROOT
BRANCH   1  10
ATOM      5  C   UNL     1       0.992   2.070  -0.589  0.00  0.00    +0.042 A 
ATOM      6  C   UNL     1       0.824   3.461  -0.525  0.00  0.00    +0.062 A 
ATOM      7  C   UNL     1      -0.278   3.992   0.108  0.00  0.00    +0.167 A 
ATOM      8  C   UNL     1      -1.231   3.149   0.689  0.00  0.00    +0.168 A 
ATOM      9  C   UNL     1      -1.075   1.773   0.625  0.00  0.00    +0.073 A 
ATOM     10  C   UNL     1       0.031   1.225  -0.004  0.00  0.00    +0.048 A 
ATOM     11  O   UNL     1      -2.210   3.918   1.243  0.00  0.00    -0.453 OA
ATOM     12  C   UNL     1      -1.646   5.237   1.360  0.00  0.00    +0.466 C 
ATOM     13  O   UNL     1      -0.668   5.287   0.305  0.00  0.00    -0.453 OA
BRANCH   5  15
ATOM     14  C   UNL     1       3.248   2.406  -1.781  0.00  0.00    +0.091 C 
ATOM     15  C   UNL     1       2.162   1.500  -1.260  0.00  0.00    +0.162 C 
ATOM     16  O   UNL     1       2.257   0.298  -1.398  0.00  0.00    -0.292 OA
ENDBRANCH   5  15
ENDBRANCH   1  10
BRANCH   2  17
ATOM     17  C   UNL     1      -0.718  -2.413   0.072  0.00  0.00    +0.068 C 
ATOM     18  C   UNL     1      -1.798  -3.218   0.142  0.00  0.00    +0.013 C 
BRANCH  18  19
ATOM     19  C   UNL     1      -1.624  -4.678   0.205  0.00  0.00    -0.023 A 
ATOM     20  C   UNL     1      -0.341  -5.234   0.194  0.00  0.00    +0.009 A 
ATOM     21  C   UNL     1      -0.186  -6.602   0.254  0.00  0.00    +0.023 A 
ATOM     22  C   UNL     1      -1.297  -7.426   0.325  0.00  0.00    +0.071 A 
ATOM     23  C   UNL     1      -2.571  -6.883   0.337  0.00  0.00    +0.145 A 
ATOM     24  C   UNL     1      -2.741  -5.516   0.284  0.00  0.00    +0.042 A 
ATOM     25 CL   UNL     1      -1.093  -9.149   0.400  0.00  0.00    -0.081 Cl
BRANCH  23  26
ATOM     26  N   UNL     1      -3.753  -7.771   0.413  0.00  0.00    +0.058 N 
ATOM     27  O   UNL     1      -4.874  -7.295   0.424  0.00  0.00    -0.126 OA
ATOM     28  O   UNL     1      -3.604  -8.979   0.466  0.00  0.00    -0.126 OA
ENDBRANCH  23  26
ENDBRANCH  18  19
ENDBRANCH   2  17
TORSDOF 5
