REMARK  Name = ZINC12497996
REMARK  6 active torsions:
REMARK  status: ('A' for Active; 'I' for Inactive)
REMARK    1  A    between atoms: C_1  and  O_2
REMARK    2  A    between atoms: O_2  and  C_3
REMARK    3  A    between atoms: C_3  and  C_5
REMARK    4  A    between atoms: C_5  and  C_32
REMARK    5  A    between atoms: C_10  and  C_12
REMARK    6  A    between atoms: N_19  and  C_22
REMARK                            x       y       z     vdW  Elec       q    Type
REMARK                         _______ _______ _______ _____ _____    ______ ____
ROOT
ATOM      1  C   UNL     1      -1.505   8.856  -0.265  0.00  0.00    +0.070 C 
ATOM      2  C   UNL     1      -0.930   7.647   0.452  0.00  0.00    +0.090 C 
ATOM      3  C   UNL     1       0.493   7.622  -0.217  0.00  0.00    +0.078 C 
ATOM      4  C   UNL     1       0.908   9.029  -0.146  0.00  0.00    -0.019 C 
ATOM      5  C   UNL     1       0.947   6.288   0.078  0.00  0.00    +0.229 C 
ATOM      6  O   UNL     1       2.086   5.926   0.282  0.00  0.00    -0.275 OA
ATOM      7  N   UNL     1      -0.186   5.514   0.077  0.00  0.00    -0.210 N 
ATOM      8  C   UNL     1      -1.334   6.255   0.083  0.00  0.00    +0.229 C 
ATOM      9  O   UNL     1      -2.455   5.864  -0.161  0.00  0.00    -0.275 OA
ATOM     10  N   UNL     1      -0.346   9.751  -0.526  0.00  0.00    +0.398 N 
ATOM     11  H   UNL     1      -0.436  10.606   0.035  0.00  0.00    -0.083 HD
ATOM     12  H   UNL     1      -0.316   9.997  -1.522  0.00  0.00    -0.083 HD
ENDROOT
BRANCH   7  13
ATOM     13  C   UNL     1      -0.168   4.110   0.076  0.00  0.00    +0.048 A 
ATOM     14  C   UNL     1      -1.361   3.401   0.081  0.00  0.00    +0.028 A 
ATOM     15  C   UNL     1      -1.344   2.019   0.085  0.00  0.00    +0.051 A 
ATOM     16  C   UNL     1      -0.136   1.337   0.075  0.00  0.00    +0.162 A 
ATOM     17  C   UNL     1       1.060   2.046   0.068  0.00  0.00    +0.164 A 
ATOM     18  C   UNL     1       1.042   3.432   0.070  0.00  0.00    +0.073 A 
ATOM     19  O   UNL     1       2.255   1.394   0.058  0.00  0.00    -0.485 OA
ATOM     20  C   UNL     1       2.238   0.013   0.435  0.00  0.00    +0.270 C 
ATOM     21  C   UNL     1       1.080  -0.671  -0.303  0.00  0.00    +0.270 C 
ATOM     22  O   UNL     1      -0.139  -0.024   0.078  0.00  0.00    -0.485 OA
ENDBRANCH   7  13
BRANCH   1  23
ATOM     23  C   UNL     1      -2.144   8.434  -1.563  0.00  0.00    -0.047 A 
ATOM     24  C   UNL     1      -1.434   8.525  -2.745  0.00  0.00    +0.003 A 
ATOM     25  C   UNL     1      -2.019   8.134  -3.935  0.00  0.00    +0.000 A 
ATOM     26  C   UNL     1      -3.318   7.662  -3.944  0.00  0.00    +0.000 A 
ATOM     27  C   UNL     1      -4.030   7.576  -2.763  0.00  0.00    +0.000 A 
ATOM     28  C   UNL     1      -3.443   7.962  -1.572  0.00  0.00    +0.003 A 
ENDBRANCH   1  23
BRANCH   4  29
ATOM     29  C   UNL     1       2.014   9.310  -1.131  0.00  0.00    -0.023 A 
ATOM     30  C   UNL     1       3.336   9.502  -0.899  0.00  0.00    +0.009 A 
ATOM     31  C   UNL     1       4.176   9.745  -1.969  0.00  0.00    +0.008 A 
ATOM     32  C   UNL     1       3.652   9.795  -3.218  0.00  0.00    +0.045 A 
ATOM     33  S   UNL     1       1.922   9.486  -2.905  0.00  0.00    -0.103 S 
ENDBRANCH   4  29
BRANCH   1  34
ATOM     34  C   UNL     1      -2.516   9.548   0.611  0.00  0.00    +0.301 C 
ATOM     35  O   UNL     1      -3.094   8.929   1.473  0.00  0.00    -0.252 OA
BRANCH  34  37
ATOM     36  C   UNL     1      -3.761  11.455   1.315  0.00  0.00    +0.280 C 
ATOM     37  O   UNL     1      -2.776  10.853   0.434  0.00  0.00    -0.469 OA
ENDBRANCH  34  37
ENDBRANCH   1  34
TORSDOF 5
