REMARK  Name = ZINC63737698
REMARK  8 active torsions:
REMARK  status: ('A' for Active; 'I' for Inactive)
REMARK    1  A    between atoms: C_1  and  C_2
REMARK    2  A    between atoms: C_2  and  C_3
REMARK    3  A    between atoms: N_5  and  C_6
REMARK    4  A    between atoms: C_9  and  C_12
REMARK    5  A    between atoms: C_14  and  C_22
REMARK    6  A    between atoms: N_24  and  C_25
REMARK    7  A    between atoms: C_25  and  C_26
REMARK    8  A    between atoms: C_30  and  C_32
REMARK                            x       y       z     vdW  Elec       q    Type
REMARK                         _______ _______ _______ _____ _____    ______ ____
ROOT
ATOM      1  C   UNL     1       3.139  -3.842  -6.207  0.00  0.00    +0.072 A 
ATOM      2  C   UNL     1       3.149  -5.230  -6.415  0.00  0.00    +0.042 A 
ATOM      3  C   UNL     1       3.701  -5.740  -7.581  0.00  0.00    +0.048 A 
ATOM      4  C   UNL     1       4.250  -4.781  -8.540  0.00  0.00    +0.013 A 
ATOM      5  C   UNL     1       4.827  -5.200  -9.744  0.00  0.00    +0.011 A 
ATOM      6  C   UNL     1       5.326  -4.273 -10.610  0.00  0.00    +0.001 A 
ATOM      7  C   UNL     1       5.269  -2.913 -10.311  0.00  0.00    +0.002 A 
ATOM      8  C   UNL     1       4.715  -2.472  -9.149  0.00  0.00    +0.028 A 
ATOM      9  C   UNL     1       4.189  -3.399  -8.231  0.00  0.00    +0.072 A 
ATOM     10  N   UNL     1       3.634  -2.996  -7.086  0.00  0.00    -0.247 NA
ENDROOT
BRANCH   1  14
ATOM     11  C   UNL     1       1.437  -2.316  -2.622  0.00  0.00    +0.033 A 
ATOM     12  C   UNL     1       1.966  -1.442  -3.565  0.00  0.00    +0.024 A 
ATOM     13  C   UNL     1       2.518  -1.935  -4.728  0.00  0.00    +0.012 A 
ATOM     14  C   UNL     1       2.546  -3.310  -4.958  0.00  0.00    +0.000 A 
ATOM     15  C   UNL     1       2.014  -4.184  -4.010  0.00  0.00    +0.012 A 
ATOM     16  C   UNL     1       1.468  -3.688  -2.846  0.00  0.00    +0.024 A 
BRANCH  11  19
ATOM     17  C   UNL     1       0.203  -0.648  -1.461  0.00  0.00    +0.217 C 
ATOM     18  O   UNL     1       0.151   0.007  -2.481  0.00  0.00    -0.275 OA
ATOM     19  N   UNL     1       0.877  -1.814  -1.444  0.00  0.00    -0.286 N 
ATOM     20  H   UNL     1       0.975  -2.306  -0.613  0.00  0.00    +0.155 HD
BRANCH  17  22
ATOM     21  C   UNL     1      -1.172   1.180  -0.503  0.00  0.00    +0.013 C 
ATOM     22  C   UNL     1      -0.486  -0.157  -0.214  0.00  0.00    +0.093 C 
ENDBRANCH  17  22
ENDBRANCH  11  19
ENDBRANCH   1  14
BRANCH   3  23
ATOM     23  C   UNL     1       3.734  -7.196  -7.844  0.00  0.00    +0.245 C 
ATOM     24  O   UNL     1       4.309  -7.623  -8.826  0.00  0.00    -0.270 OA
ATOM     25  N   UNL     1       3.127  -8.048  -6.995  0.00  0.00    -0.307 N 
ATOM     26  H   UNL     1       2.668  -7.707  -6.211  0.00  0.00    +0.149 HD
BRANCH  25  27
ATOM     27  C   UNL     1       3.160  -9.489  -7.255  0.00  0.00    +0.139 C 
BRANCH  27  28
ATOM     28  C   UNL     1       2.413 -10.214  -6.165  0.00  0.00    -0.007 C 
ATOM     29  C   UNL     1       1.140 -10.615  -6.166  0.00  0.00    +0.137 C 
ATOM     30  N   UNL     1       0.830 -11.233  -5.005  0.00  0.00    -0.162 NA
ATOM     31  N   UNL     1       1.760 -11.302  -4.197  0.00  0.00    -0.180 NA
ATOM     32  C   UNL     1       2.936 -10.663  -4.812  0.00  0.00    +0.154 C 
ATOM     33  C   UNL     1       3.392  -9.462  -3.981  0.00  0.00    +0.039 C 
ENDBRANCH  27  28
ENDBRANCH  25  27
ENDBRANCH   3  23
TORSDOF 6
