REMARK  Name = ZINC01261489
REMARK  3 active torsions:
REMARK  status: ('A' for Active; 'I' for Inactive)
REMARK    1  A    between atoms: C_4  and  C_7
REMARK    2  A    between atoms: N_13  and  N_14
REMARK    3  A    between atoms: C_15  and  C_16
REMARK                            x       y       z     vdW  Elec       q    Type
REMARK                         _______ _______ _______ _____ _____    ______ ____
ROOT
ATOM      1  C   UNL     1      -4.369   6.622  -1.139  0.00  0.00    +0.184 A 
ATOM      2  N   UNL     1      -5.456   7.221  -0.739  0.00  0.00    -0.152 NA
ATOM      3  N   UNL     1      -5.519   7.118   0.657  0.00  0.00    -0.253 N 
ATOM      4  H   UNL     1      -6.219   7.472   1.227  0.00  0.00    +0.191 HD
ATOM      5  C   UNL     1      -4.432   6.431   1.064  0.00  0.00    +0.197 A 
ATOM      6  S   UNL     1      -4.038   6.026   2.680  0.00  0.00    -0.010 S 
ATOM      7  N   UNL     1      -3.709   6.123  -0.032  0.00  0.00    -0.188 N 
ENDROOT
BRANCH   1  11
ATOM      8  C   UNL     1      -3.071   6.266  -5.169  0.00  0.00    +0.000 A 
ATOM      9  C   UNL     1      -4.373   6.643  -4.896  0.00  0.00    +0.001 A 
ATOM     10  C   UNL     1      -4.801   6.760  -3.589  0.00  0.00    +0.011 A 
ATOM     11  C   UNL     1      -3.917   6.498  -2.543  0.00  0.00    +0.021 A 
ATOM     12  C   UNL     1      -2.602   6.124  -2.825  0.00  0.00    +0.011 A 
ATOM     13  C   UNL     1      -2.189   6.005  -4.136  0.00  0.00    +0.001 A 
ENDBRANCH   1  11
BRANCH   7  14
ATOM     14  N   UNL     1      -2.501   5.414  -0.046  0.00  0.00    -0.171 NA
ATOM     15  C   UNL     1      -1.372   6.051   0.045  0.00  0.00    +0.142 C 
BRANCH  15  16
ATOM     16  C   UNL     1      -0.104   5.307   0.030  0.00  0.00    +0.002 A 
ATOM     17  C   UNL     1       1.113   5.978   0.014  0.00  0.00    +0.010 A 
ATOM     18  C   UNL     1       2.308   5.273  -0.001  0.00  0.00    +0.001 A 
ATOM     19  C   UNL     1       2.339   3.912   0.000  0.00  0.00    +0.008 A 
ATOM     20  C   UNL     1       1.147   3.168   0.016  0.00  0.00    -0.017 A 
ATOM     21  C   UNL     1      -0.097   3.845   0.032  0.00  0.00    -0.009 A 
ATOM     22  C   UNL     1      -1.286   3.107   0.048  0.00  0.00    +0.009 A 
ATOM     23  C   UNL     1      -1.234   1.745   0.042  0.00  0.00    +0.001 A 
ATOM     24  C   UNL     1      -0.012   1.076   0.032  0.00  0.00    +0.001 A 
ATOM     25  C   UNL     1       1.163   1.762   0.017  0.00  0.00    +0.008 A 
ENDBRANCH  15  16
ENDBRANCH   7  14
TORSDOF 3
