REMARK  Name = ZINC23248978
REMARK  10 active torsions:
REMARK  status: ('A' for Active; 'I' for Inactive)
REMARK    1  A    between atoms: C_1  and  C_2
REMARK    2  A    between atoms: C_7  and  C_8
REMARK    3  A    between atoms: C_8  and  N_9
REMARK    4  A    between atoms: N_12  and  C_15
REMARK    5  A    between atoms: C_15  and  C_16
REMARK    6  A    between atoms: N_18  and  N_19
REMARK    7  A    between atoms: C_22  and  C_26
REMARK    8  A    between atoms: C_22  and  C_27
REMARK    9  A    between atoms: C_27  and  C_28
REMARK   10  A    between atoms: C_28  and  C_29
REMARK                            x       y       z     vdW  Elec       q    Type
REMARK                         _______ _______ _______ _____ _____    ______ ____
ROOT
ATOM      1  C   UNL     1      -4.948   1.668   6.282  0.00  0.00    +0.244 C 
ATOM      2  O   UNL     1      -3.901   1.787   6.882  0.00  0.00    -0.273 OA
ATOM      3  N   UNL     1      -6.093   2.126   6.827  0.00  0.00    -0.223 N 
ATOM      4  H   UNL     1      -6.931   2.030   6.347  0.00  0.00    +0.174 HD
ENDROOT
BRANCH   3   5
ATOM      5  N   UNL     1      -6.073   2.739   8.087  0.00  0.00    -0.137 N 
ATOM      6  C   UNL     1      -6.502   2.151   9.221  0.00  0.00    +0.263 C 
ATOM      7  O   UNL     1      -6.961   1.036   9.340  0.00  0.00    -0.271 OA
ATOM      8  C   UNL     1      -6.292   3.176  10.318  0.00  0.00    +0.112 C 
ATOM      9  N   UNL     1      -5.714   4.330   9.607  0.00  0.00    -0.284 N 
ATOM     10  C   UNL     1      -5.620   3.977   8.313  0.00  0.00    +0.326 C 
ATOM     11  O   UNL     1      -5.178   4.704   7.444  0.00  0.00    -0.251 OA
ATOM     12  C   UNL     1      -5.314   2.647  11.369  0.00  0.00    +0.041 C 
ATOM     13  H   UNL     1      -5.449   5.178   9.998  0.00  0.00    +0.151 HD
BRANCH   8  14
ATOM     14  C   UNL     1      -7.625   3.555  10.964  0.00  0.00    +0.040 C 
BRANCH  14  15
ATOM     15  C   UNL     1      -7.400   4.678  11.979  0.00  0.00    +0.038 C 
BRANCH  15  16
ATOM     16  C   UNL     1      -8.714   5.051  12.615  0.00  0.00    -0.047 A 
ATOM     17  C   UNL     1      -9.505   6.032  12.045  0.00  0.00    +0.003 A 
ATOM     18  C   UNL     1     -10.710   6.374  12.629  0.00  0.00    +0.000 A 
ATOM     19  C   UNL     1     -11.125   5.736  13.783  0.00  0.00    +0.000 A 
ATOM     20  C   UNL     1     -10.334   4.755  14.353  0.00  0.00    +0.000 A 
ATOM     21  C   UNL     1      -9.131   4.410  13.766  0.00  0.00    +0.003 A 
ENDBRANCH  15  16
ENDBRANCH  14  15
ENDBRANCH   8  14
ENDBRANCH   3   5
BRANCH   1  22
ATOM     22  C   UNL     1      -4.970   1.009   4.927  0.00  0.00    +0.182 C 
BRANCH  22  26
ATOM     23  N   UNL     1      -1.342   0.478   2.824  0.00  0.00    +0.384 N 
ATOM     24  C   UNL     1      -2.189  -0.701   3.048  0.00  0.00    -0.063 C 
ATOM     25  C   UNL     1      -3.617  -0.251   3.362  0.00  0.00    +0.066 C 
ATOM     26  N   UNL     1      -3.607   0.601   4.559  0.00  0.00    -0.298 NA
ATOM     27  C   UNL     1      -2.743   1.774   4.358  0.00  0.00    +0.066 C 
ATOM     28  C   UNL     1      -1.322   1.307   4.036  0.00  0.00    -0.063 C 
ATOM     29  H   UNL     1      -1.712   1.016   2.055  0.00  0.00    -0.081 HD
BRANCH  23  30
ATOM     30  C   UNL     1       0.025   0.045   2.504  0.00  0.00    -0.043 C 
BRANCH  30  37
ATOM     31  C   UNL     1      -0.018   1.503   0.010  0.00  0.00    +0.044 C 
ATOM     32  C   UNL     1       0.002  -0.004   0.002  0.00  0.00    -0.049 A 
ATOM     33  C   UNL     1       0.006  -0.689  -1.199  0.00  0.00    +0.003 A 
ATOM     34  C   UNL     1       0.025  -2.071  -1.207  0.00  0.00    +0.000 A 
ATOM     35  C   UNL     1       0.040  -2.768  -0.013  0.00  0.00    +0.000 A 
ATOM     36  C   UNL     1       0.037  -2.084   1.188  0.00  0.00    +0.002 A 
ATOM     37  C   UNL     1       0.023  -0.702   1.195  0.00  0.00    -0.061 A 
ENDBRANCH  30  37
ENDBRANCH  23  30
ENDBRANCH  22  26
ENDBRANCH   1  22
TORSDOF 8
