REMARK  Name = ZINC28818340
REMARK  5 active torsions:
REMARK  status: ('A' for Active; 'I' for Inactive)
REMARK    1  A    between atoms: C_1  and  C_2
REMARK    2  A    between atoms: C_12  and  C_14
REMARK    3  A    between atoms: C_16  and  S_23
REMARK    4  A    between atoms: C_19  and  N_20
REMARK    5  A    between atoms: S_23  and  C_24
REMARK                            x       y       z     vdW  Elec       q    Type
REMARK                         _______ _______ _______ _____ _____    ______ ____
ROOT
ATOM      1  C   UNL     1       1.082   1.104  -1.880  0.00  0.00    +0.044 C 
ATOM      2  C   UNL     1       0.912  -0.372  -1.629  0.00  0.00    -0.049 A 
ATOM      3  C   UNL     1       0.515  -1.216  -2.656  0.00  0.00    +0.005 A 
ATOM      4  C   UNL     1       0.353  -2.562  -2.455  0.00  0.00    +0.029 A 
ATOM      5  C   UNL     1       0.589  -3.136  -1.184  0.00  0.00    +0.080 A 
ATOM      6  C   UNL     1       0.993  -2.246  -0.162  0.00  0.00    +0.041 A 
ATOM      7  C   UNL     1       1.158  -0.900  -0.375  0.00  0.00    +0.020 A 
ATOM      8  S   UNL     1       1.180  -3.331   1.232  0.00  0.00    -0.052 S 
ATOM      9  C   UNL     1       0.725  -4.846   0.401  0.00  0.00    +0.166 A 
ATOM     10  N   UNL     1       0.477  -4.432  -0.820  0.00  0.00    -0.225 NA
ATOM     11  N   UNL     1       0.654  -6.130   0.913  0.00  0.00    -0.261 N 
ATOM     12  C   UNL     1       0.286  -7.154   0.117  0.00  0.00    +0.252 C 
ATOM     13  O   UNL     1       0.018  -6.950  -1.050  0.00  0.00    -0.270 OA
ATOM     14  H   UNL     1       0.868  -6.293   1.845  0.00  0.00    +0.157 HD
ENDROOT
BRANCH  12  15
ATOM     15  C   UNL     1       0.210  -8.525   0.665  0.00  0.00    +0.068 A 
ATOM     16  C   UNL     1       1.314  -9.085   1.307  0.00  0.00    +0.030 A 
ATOM     17  C   UNL     1       1.234 -10.371   1.819  0.00  0.00    +0.008 A 
ATOM     18  C   UNL     1       0.056 -11.098   1.690  0.00  0.00    +0.017 A 
ATOM     19  C   UNL     1      -1.038 -10.543   1.053  0.00  0.00    +0.034 A 
ATOM     20  C   UNL     1      -0.970  -9.262   0.546  0.00  0.00    +0.138 A 
BRANCH  20  21
ATOM     21  N   UNL     1      -2.147  -8.670  -0.130  0.00  0.00    +0.057 N 
ATOM     22  O   UNL     1      -3.126  -9.347  -0.343  0.00  0.00    -0.126 OA
ATOM     23  O   UNL     1      -2.130  -7.510  -0.469  0.00  0.00    -0.126 OA
ENDBRANCH  20  21
BRANCH  17  24
ATOM     24  S   UNL     1       2.626 -11.085   2.631  0.00  0.00    -0.129 S 
ATOM     25  C   UNL     1       2.052 -12.736   3.114  0.00  0.00    +0.090 C 
ENDBRANCH  17  24
ENDBRANCH  12  15
TORSDOF 3
