REMARK  Name = ZINC39920678
REMARK  9 active torsions:
REMARK  status: ('A' for Active; 'I' for Inactive)
REMARK    1  A    between atoms: C_1  and  C_2
REMARK    2  A    between atoms: C_7  and  O_8
REMARK    3  A    between atoms: O_8  and  C_9
REMARK    4  A    between atoms: C_9  and  C_10
REMARK    5  A    between atoms: N_12  and  N_13
REMARK    6  A    between atoms: C_14  and  C_26
REMARK    7  A    between atoms: C_29  and  N_32
REMARK    8  A    between atoms: N_32  and  C_33
REMARK    9  A    between atoms: N_32  and  C_34
REMARK                            x       y       z     vdW  Elec       q    Type
REMARK                         _______ _______ _______ _____ _____    ______ ____
ROOT
ATOM      1  N   UNL     1       0.066   0.412   7.134  0.00  0.00    -0.191 N 
ATOM      2  C   UNL     1       1.303   0.604   7.890  0.00  0.00    +0.212 C 
ATOM      3  N   UNL     1       1.339   1.950   8.474  0.00  0.00    -0.320 N 
ATOM      4  C   UNL     1       0.192   2.438   9.089  0.00  0.00    +0.041 A 
ATOM      5  C   UNL     1       0.249   3.340  10.137  0.00  0.00    +0.025 A 
ATOM      6  C   UNL     1      -0.922   3.791  10.716  0.00  0.00    +0.017 A 
ATOM      7  C   UNL     1      -2.153   3.348  10.255  0.00  0.00    +0.019 A 
ATOM      8  C   UNL     1      -2.227   2.450   9.209  0.00  0.00    +0.030 A 
ATOM      9  C   UNL     1      -1.054   1.988   8.617  0.00  0.00    +0.060 A 
ATOM     10  C   UNL     1      -1.075   1.040   7.489  0.00  0.00    +0.267 C 
ATOM     11  O   UNL     1      -2.109   0.822   6.888  0.00  0.00    -0.268 OA
ATOM     12 BR   UNL     1      -3.741   3.979  11.064  0.00  0.00    -0.050 Br
ATOM     13  H   UNL     1       2.146   2.487   8.433  0.00  0.00    +0.148 HD
ENDROOT
BRANCH   2  14
ATOM     14  C   UNL     1       1.376  -0.418   8.995  0.00  0.00    -0.008 A 
ATOM     15  C   UNL     1       0.785  -1.658   8.828  0.00  0.00    +0.009 A 
ATOM     16  C   UNL     1       0.850  -2.597   9.838  0.00  0.00    +0.023 A 
ATOM     17  C   UNL     1       1.510  -2.296  11.023  0.00  0.00    +0.029 A 
ATOM     18  C   UNL     1       2.103  -1.050  11.187  0.00  0.00    +0.023 A 
ATOM     19  C   UNL     1       2.039  -0.117  10.170  0.00  0.00    +0.009 A 
BRANCH  17  20
ATOM     20  N   UNL     1       1.578  -3.243  12.047  0.00  0.00    -0.336 N 
ATOM     21  C   UNL     1       0.952  -4.556  11.873  0.00  0.00    +0.129 C 
ATOM     22  C   UNL     1       2.274  -2.924  13.296  0.00  0.00    +0.129 C 
ENDBRANCH  17  20
ENDBRANCH   2  14
BRANCH   1  25
ATOM     23  C   UNL     1       0.047   0.090   4.775  0.00  0.00    +0.267 C 
ATOM     24  O   UNL     1       0.030   1.294   4.625  0.00  0.00    -0.271 OA
ATOM     25  N   UNL     1       0.066  -0.433   6.017  0.00  0.00    -0.227 N 
ATOM     26  H   UNL     1       0.080  -1.396   6.137  0.00  0.00    +0.173 HD
BRANCH  23  27
ATOM     27  C   UNL     1       0.048  -0.820   3.574  0.00  0.00    +0.326 C 
BRANCH  27  28
ATOM     28  O   UNL     1       0.025  -0.033   2.381  0.00  0.00    -0.482 OA
BRANCH  28  35
ATOM     29  C   UNL     1      -0.018   1.503   0.010  0.00  0.00    +0.047 C 
ATOM     30  C   UNL     1       0.002  -0.004   0.002  0.00  0.00    -0.009 A 
ATOM     31  C   UNL     1       0.006  -0.689  -1.198  0.00  0.00    +0.007 A 
ATOM     32  C   UNL     1       0.024  -2.071  -1.206  0.00  0.00    +0.000 A 
ATOM     33  C   UNL     1       0.039  -2.772  -0.014  0.00  0.00    +0.004 A 
ATOM     34  C   UNL     1       0.036  -2.092   1.188  0.00  0.00    +0.046 A 
ATOM     35  C   UNL     1       0.023  -0.705   1.199  0.00  0.00    +0.124 A 
ENDBRANCH  28  35
ENDBRANCH  27  28
ENDBRANCH  23  27
ENDBRANCH   1  25
TORSDOF 6
