REMARK  Name = ZINC64044578
REMARK  12 active torsions:
REMARK  status: ('A' for Active; 'I' for Inactive)
REMARK    1  A    between atoms: C_1  and  C_2
REMARK    2  A    between atoms: C_2  and  N_3
REMARK    3  A    between atoms: N_3  and  C_4
REMARK    4  A    between atoms: N_3  and  S_6
REMARK    5  A    between atoms: C_4  and  C_5
REMARK    6  A    between atoms: S_6  and  C_9
REMARK    7  A    between atoms: C_13  and  C_15
REMARK    8  A    between atoms: N_17  and  C_18
REMARK    9  A    between atoms: C_18  and  C_20
REMARK   10  A    between atoms: C_18  and  C_30
REMARK   11  A    between atoms: C_20  and  C_21
REMARK   12  A    between atoms: N_32  and  N_33
REMARK                            x       y       z     vdW  Elec       q    Type
REMARK                         _______ _______ _______ _____ _____    ______ ____
ROOT
ATOM      1  C   UNL     1       2.384   3.709  -7.926  0.00  0.00    +0.165 C 
ENDROOT
BRANCH   1   4
ATOM      2  C   UNL     1       1.827   2.224  -6.076  0.00  0.00    +0.245 C 
ATOM      3  O   UNL     1       2.804   1.558  -6.356  0.00  0.00    -0.270 OA
ATOM      4  N   UNL     1       1.529   3.321  -6.801  0.00  0.00    -0.300 N 
ATOM      5  H   UNL     1       0.749   3.853  -6.578  0.00  0.00    +0.150 HD
BRANCH   2  10
ATOM      6  C   UNL     1       0.460   0.336  -3.131  0.00  0.00    +0.106 A 
ATOM      7  C   UNL     1      -0.652   1.097  -2.816  0.00  0.00    +0.028 A 
ATOM      8  C   UNL     1      -0.960   2.224  -3.557  0.00  0.00    +0.003 A 
ATOM      9  C   UNL     1      -0.159   2.595  -4.618  0.00  0.00    +0.013 A 
ATOM     10  C   UNL     1       0.964   1.832  -4.941  0.00  0.00    +0.039 A 
ATOM     11  C   UNL     1       1.272   0.700  -4.185  0.00  0.00    +0.041 A 
BRANCH   6  12
ATOM     12  S   UNL     1       0.843  -1.097  -2.180  0.00  0.00    +0.061 S 
ATOM     13  O   UNL     1       1.629  -1.939  -3.013  0.00  0.00    -0.153 OA
ATOM     14  O   UNL     1      -0.375  -1.531  -1.591  0.00  0.00    -0.153 OA
BRANCH  12  15
ATOM     15  N   UNL     1       1.824  -0.612  -0.937  0.00  0.00    -0.177 NA
BRANCH  15  17
ATOM     16  C   UNL     1       1.084   1.333   0.348  0.00  0.00    +0.022 C 
ATOM     17  C   UNL     1       1.237  -0.189   0.337  0.00  0.00    +0.106 C 
ENDBRANCH  15  17
BRANCH  15  18
ATOM     18  C   UNL     1       3.278  -0.605  -1.112  0.00  0.00    +0.106 C 
ATOM     19  C   UNL     1       3.862  -1.914  -0.576  0.00  0.00    +0.022 C 
ENDBRANCH  15  18
ENDBRANCH  12  15
ENDBRANCH   6  12
ENDBRANCH   2  10
ENDBRANCH   1   4
BRANCH   1  20
ATOM     20  C   UNL     1       1.561   4.448  -8.950  0.00  0.00    +0.251 C 
ATOM     21  O   UNL     1       0.377   4.631  -8.759  0.00  0.00    -0.272 OA
ATOM     22  N   UNL     1       2.141   4.904 -10.079  0.00  0.00    -0.227 N 
ATOM     23  H   UNL     1       3.087   4.758 -10.231  0.00  0.00    +0.175 HD
BRANCH  22  24
ATOM     24  N   UNL     1       1.376   5.591 -11.031  0.00  0.00    -0.295 N 
ATOM     25  C   UNL     1       1.933   6.029 -12.114  0.00  0.00    +0.085 C 
ATOM     26  C   UNL     1       3.393   5.862 -12.475  0.00  0.00    +0.072 C 
ATOM     27  C   UNL     1       3.450   6.157 -13.990  0.00  0.00    +0.026 C 
ATOM     28  C   UNL     1       2.222   7.071 -14.193  0.00  0.00    +0.103 C 
ATOM     29  N   UNL     1       1.284   6.716 -13.121  0.00  0.00    -0.333 N 
ATOM     30  H   UNL     1       0.340   6.935 -13.119  0.00  0.00    +0.147 HD
ATOM     31  H   UNL     1       0.429   5.738 -10.878  0.00  0.00    +0.185 HD
ENDBRANCH  22  24
ENDBRANCH   1  20
BRANCH   1  32
ATOM     32  C   UNL     1       3.507   4.618  -7.423  0.00  0.00    +0.065 C 
BRANCH  32  33
ATOM     33  C   UNL     1       2.912   5.840  -6.772  0.00  0.00    -0.039 C 
ATOM     34  C   UNL     1       2.661   6.019  -5.455  0.00  0.00    -0.001 A 
ATOM     35  C   UNL     1       2.860   5.163  -4.279  0.00  0.00    +0.010 A 
ATOM     36  C   UNL     1       2.503   5.629  -3.061  0.00  0.00    +0.001 A 
ATOM     37  C   UNL     1       1.949   6.905  -2.893  0.00  0.00    +0.002 A 
ATOM     38  C   UNL     1       1.736   7.749  -3.925  0.00  0.00    +0.026 A 
ATOM     39  C   UNL     1       2.075   7.363  -5.251  0.00  0.00    +0.043 A 
ATOM     40  N   UNL     1       1.967   7.990  -6.397  0.00  0.00    -0.380 N 
ATOM     41  C   UNL     1       2.479   7.116  -7.458  0.00  0.00    +0.144 C 
ATOM     42  H   UNL     1       1.612   8.884  -6.522  0.00  0.00    +0.160 HD
ENDBRANCH  32  33
ENDBRANCH   1  32
TORSDOF 10
