REMARK  Name = ZINC64056423
REMARK  11 active torsions:
REMARK  status: ('A' for Active; 'I' for Inactive)
REMARK    1  A    between atoms: C_1  and  C_2
REMARK    2  A    between atoms: C_4  and  C_12
REMARK    3  A    between atoms: C_12  and  C_14
REMARK    4  A    between atoms: C_14  and  C_16
REMARK    5  A    between atoms: C_14  and  O_17
REMARK    6  A    between atoms: O_17  and  C_18
REMARK    7  A    between atoms: C_18  and  C_20
REMARK    8  A    between atoms: C_22  and  N_30
REMARK    9  A    between atoms: C_24  and  N_26
REMARK   10  A    between atoms: C_27  and  C_29
REMARK   11  A    between atoms: C_31  and  C_33
REMARK                            x       y       z     vdW  Elec       q    Type
REMARK                         _______ _______ _______ _____ _____    ______ ____
ROOT
ATOM      1  C   UNL     1      -4.898  -2.762  -2.253  0.00  0.00    +0.340 C 
ATOM      2  O   UNL     1      -5.017  -3.718  -1.513  0.00  0.00    -0.245 OA
ENDROOT
BRANCH   1   3
ATOM      3  C   UNL     1      -5.651  -2.712  -3.523  0.00  0.00    +0.063 A 
ATOM      4  C   UNL     1      -5.512  -1.617  -4.377  0.00  0.00    +0.038 A 
ATOM      5  C   UNL     1      -6.220  -1.574  -5.568  0.00  0.00    +0.036 A 
ATOM      6  C   UNL     1      -7.069  -2.619  -5.911  0.00  0.00    +0.046 A 
ATOM      7  C   UNL     1      -7.211  -3.709  -5.064  0.00  0.00    +0.036 A 
ATOM      8  C   UNL     1      -6.500  -3.763  -3.874  0.00  0.00    +0.038 A 
BRANCH   7   9
ATOM      9  N   UNL     1      -8.068  -4.759  -5.413  0.00  0.00    -0.286 N 
ATOM     10  C   UNL     1      -8.731  -5.435  -4.455  0.00  0.00    +0.214 C 
ATOM     11  O   UNL     1      -8.658  -5.076  -3.298  0.00  0.00    -0.276 OA
ATOM     12  C   UNL     1      -9.565  -6.637  -4.819  0.00  0.00    +0.109 C 
ATOM     13  H   UNL     1      -8.184  -5.000  -6.346  0.00  0.00    +0.155 HD
ENDBRANCH   7   9
BRANCH   5  14
ATOM     14  N   UNL     1      -6.081  -0.477  -6.425  0.00  0.00    -0.286 N 
ATOM     15  C   UNL     1      -4.898   0.164  -6.513  0.00  0.00    +0.214 C 
ATOM     16  O   UNL     1      -3.929  -0.269  -5.925  0.00  0.00    -0.276 OA
ATOM     17  C   UNL     1      -4.780   1.417  -7.340  0.00  0.00    +0.109 C 
ATOM     18  H   UNL     1      -6.835  -0.177  -6.956  0.00  0.00    +0.155 HD
ENDBRANCH   5  14
ENDBRANCH   1   3
BRANCH   1  19
ATOM     19  O   UNL     1      -4.079  -1.747  -1.916  0.00  0.00    -0.450 OA
BRANCH  19  20
ATOM     20  C   UNL     1      -3.381  -1.861  -0.673  0.00  0.00    +0.244 C 
ATOM     21  C   UNL     1      -4.225  -1.244   0.444  0.00  0.00    +0.061 C 
BRANCH  20  22
ATOM     22  C   UNL     1      -2.065  -1.135  -0.768  0.00  0.00    +0.202 C 
ATOM     23  O   UNL     1      -1.897  -0.291  -1.625  0.00  0.00    -0.288 OA
BRANCH  22  26
ATOM     24  C   UNL     1       0.323   0.655   0.337  0.00  0.00    +0.035 C 
ATOM     25  C   UNL     1       0.374  -0.863   0.149  0.00  0.00    +0.111 C 
ATOM     26  C   UNL     1      -1.027  -1.434   0.140  0.00  0.00    +0.030 C 
ATOM     27  C   UNL     1      -1.077  -2.311   1.208  0.00  0.00    +0.007 A 
ATOM     28  C   UNL     1      -2.099  -3.144   1.722  0.00  0.00    +0.010 A 
ATOM     29  C   UNL     1      -1.867  -3.917   2.807  0.00  0.00    +0.001 A 
ATOM     30  C   UNL     1      -0.629  -3.935   3.468  0.00  0.00    +0.002 A 
ATOM     31  C   UNL     1       0.412  -3.178   3.058  0.00  0.00    +0.026 A 
ATOM     32  C   UNL     1       0.244  -2.307   1.883  0.00  0.00    +0.043 A 
ATOM     33  N   UNL     1       1.062  -1.489   1.283  0.00  0.00    -0.377 N 
ATOM     34  H   UNL     1       1.981  -1.320   1.544  0.00  0.00    +0.160 HD
ENDBRANCH  22  26
ENDBRANCH  20  22
ENDBRANCH  19  20
ENDBRANCH   1  19
TORSDOF 7
