REMARK  Name = ZINC08765211
REMARK  9 active torsions:
REMARK  status: ('A' for Active; 'I' for Inactive)
REMARK    1  A    between atoms: C_1  and  C_2
REMARK    2  A    between atoms: C_2  and  C_34
REMARK    3  A    between atoms: C_8  and  O_19
REMARK    4  A    between atoms: O_19  and  C_20
REMARK    5  A    between atoms: C_20  and  C_21
REMARK    6  A    between atoms: N_23  and  C_24
REMARK    7  A    between atoms: C_24  and  C_25
REMARK    8  A    between atoms: C_25  and  C_26
REMARK    9  A    between atoms: C_29  and  O_32
REMARK                            x       y       z     vdW  Elec       q    Type
REMARK                         _______ _______ _______ _____ _____    ______ ____
ROOT
ATOM      1  C   UNL     1      -0.545 -12.654  -2.597  0.00  0.00    +0.055 C 
ATOM      2  C   UNL     1       0.957 -12.540  -2.326  0.00  0.00    +0.105 C 
ATOM      3  C   UNL     1       1.741 -13.120  -3.511  0.00  0.00    +0.052 C 
ATOM      4  C   UNL     1       1.281 -12.405  -4.784  0.00  0.00    +0.046 C 
ATOM      5  C   UNL     1       1.276 -10.914  -4.558  0.00  0.00    +0.038 A 
ATOM      6  C   UNL     1       1.288 -10.378  -3.282  0.00  0.00    +0.131 A 
ATOM      7  C   UNL     1       1.281  -8.994  -3.101  0.00  0.00    +0.092 A 
ATOM      8  C   UNL     1       1.255  -8.143  -4.186  0.00  0.00    +0.136 A 
ATOM      9  C   UNL     1       1.248  -8.680  -5.486  0.00  0.00    +0.063 A 
ATOM     10  C   UNL     1       1.257 -10.074  -5.664  0.00  0.00    +0.149 A 
ATOM     11  O   UNL     1       1.246 -10.592  -6.912  0.00  0.00    -0.421 OA
ATOM     12  C   UNL     1       1.231  -9.792  -7.990  0.00  0.00    +0.341 A 
ATOM     13  O   UNL     1       1.221 -10.288  -9.103  0.00  0.00    -0.245 OA
ATOM     14  C   UNL     1       1.227  -8.386  -7.859  0.00  0.00    +0.041 A 
ATOM     15  C   UNL     1       1.235  -7.828  -6.621  0.00  0.00    -0.023 A 
ATOM     16  C   UNL     1       1.228  -6.319  -6.726  0.00  0.00    +0.037 C 
ATOM     17  C   UNL     1       1.651  -6.017  -8.180  0.00  0.00    +0.010 C 
ATOM     18  C   UNL     1       1.214  -7.302  -8.916  0.00  0.00    +0.043 C 
ATOM     19  O   UNL     1       1.316 -11.167  -2.177  0.00  0.00    -0.486 OA
ATOM     20  C   UNL     1       1.310 -13.307  -1.050  0.00  0.00    +0.055 C 
ENDROOT
BRANCH   8  21
ATOM     21  O   UNL     1       1.241  -6.799  -4.002  0.00  0.00    -0.482 OA
BRANCH  21  22
ATOM     22  C   UNL     1       1.248  -6.330  -2.652  0.00  0.00    +0.324 C 
BRANCH  22  23
ATOM     23  C   UNL     1       1.231  -4.823  -2.644  0.00  0.00    +0.251 C 
ATOM     24  O   UNL     1       1.214  -4.211  -3.691  0.00  0.00    -0.272 OA
ATOM     25  N   UNL     1       1.234  -4.155  -1.474  0.00  0.00    -0.312 N 
ATOM     26  H   UNL     1       1.248  -4.644  -0.636  0.00  0.00    +0.149 HD
BRANCH  25  27
ATOM     27  C   UNL     1       1.217  -2.690  -1.466  0.00  0.00    +0.109 C 
BRANCH  27  28
ATOM     28  C   UNL     1       1.226  -2.187  -0.021  0.00  0.00    +0.054 C 
BRANCH  28  29
ATOM     29  C   UNL     1       1.208  -0.680  -0.013  0.00  0.00    -0.046 A 
ATOM     30  C   UNL     1       0.002  -0.004   0.002  0.00  0.00    +0.007 A 
ATOM     31  C   UNL     1      -0.017   1.377   0.010  0.00  0.00    +0.045 A 
ATOM     32  C   UNL     1       1.176   2.086   0.002  0.00  0.00    +0.117 A 
ATOM     33  C   UNL     1       2.385   1.405  -0.013  0.00  0.00    +0.045 A 
ATOM     34  C   UNL     1       2.398   0.024  -0.021  0.00  0.00    +0.007 A 
BRANCH  32  35
ATOM     35  O   UNL     1       1.160   3.445   0.009  0.00  0.00    -0.507 OA
ATOM     36  H   UNL     1       1.164   3.834   0.894  0.00  0.00    +0.292 HD
ENDBRANCH  32  35
ENDBRANCH  28  29
ENDBRANCH  27  28
ENDBRANCH  25  27
ENDBRANCH  22  23
ENDBRANCH  21  22
ENDBRANCH   8  21
TORSDOF 7
