REMARK  Name = ZINC03997649
REMARK  3 active torsions:
REMARK  status: ('A' for Active; 'I' for Inactive)
REMARK    1  A    between atoms: C_11  and  N_15
REMARK    2  A    between atoms: N_15  and  S_16
REMARK    3  A    between atoms: S_16  and  C_19
REMARK                            x       y       z     vdW  Elec       q    Type
REMARK                         _______ _______ _______ _____ _____    ______ ____
ROOT
ATOM      1  C   UNL     1       2.473   0.619   0.678  0.00  0.00    +0.001 A 
ATOM      2  C   UNL     1       2.349   1.990   0.559  0.00  0.00    +0.001 A 
ATOM      3  C   UNL     1       1.100   2.568   0.415  0.00  0.00    +0.012 A 
ATOM      4  C   UNL     1      -0.036   1.766   0.388  0.00  0.00    +0.030 A 
ATOM      5  C   UNL     1       0.089   0.373   0.509  0.00  0.00    -0.006 A 
ATOM      6  C   UNL     1       1.349  -0.192   0.653  0.00  0.00    +0.009 A 
ATOM      7  C   UNL     1      -1.268  -0.230   0.449  0.00  0.00    -0.005 A 
ATOM      8  C   UNL     1      -1.699  -1.546   0.519  0.00  0.00    +0.009 A 
ATOM      9  C   UNL     1      -3.053  -1.843   0.435  0.00  0.00    +0.002 A 
ATOM     10  C   UNL     1      -3.983  -0.839   0.282  0.00  0.00    +0.025 A 
ATOM     11  C   UNL     1      -3.571   0.493   0.209  0.00  0.00    +0.059 A 
ATOM     12  C   UNL     1      -2.210   0.802   0.293  0.00  0.00    +0.052 A 
ATOM     13  C   UNL     1      -1.477   2.083   0.255  0.00  0.00    +0.196 C 
ATOM     14  O   UNL     1      -1.965   3.189   0.130  0.00  0.00    -0.287 OA
ENDROOT
BRANCH  11  15
ATOM     15  N   UNL     1      -4.508   1.504   0.056  0.00  0.00    -0.216 N 
ATOM     16  H   UNL     1      -4.295   2.284  -0.480  0.00  0.00    +0.174 HD
BRANCH  15  17
ATOM     17  S   UNL     1      -5.988   1.379   0.787  0.00  0.00    +0.072 S 
ATOM     18  O   UNL     1      -6.659   2.611   0.558  0.00  0.00    -0.150 OA
ATOM     19  O   UNL     1      -6.534   0.129   0.390  0.00  0.00    -0.150 OA
BRANCH  17  20
ATOM     20  C   UNL     1      -5.704   1.276   2.523  0.00  0.00    +0.109 A 
ATOM     21  C   UNL     1      -5.538   0.042   3.124  0.00  0.00    +0.031 A 
ATOM     22  C   UNL     1      -5.311  -0.040   4.485  0.00  0.00    +0.040 A 
ATOM     23  C   UNL     1      -5.260   1.114   5.248  0.00  0.00    +0.124 A 
ATOM     24  C   UNL     1      -5.431   2.349   4.646  0.00  0.00    +0.040 A 
ATOM     25  C   UNL     1      -5.653   2.429   3.285  0.00  0.00    +0.031 A 
ATOM     26  F   UNL     1      -5.042   1.034   6.579  0.00  0.00    -0.205 F 
ENDBRANCH  17  20
ENDBRANCH  15  17
ENDBRANCH  11  15
TORSDOF 3
