REMARK  Name = ZINC35373346
REMARK  8 active torsions:
REMARK  status: ('A' for Active; 'I' for Inactive)
REMARK    1  A    between atoms: C_1  and  C_2
REMARK    2  A    between atoms: C_7  and  C_13
REMARK    3  A    between atoms: C_15  and  C_18
REMARK    4  A    between atoms: C_18  and  C_19
REMARK    5  A    between atoms: C_19  and  C_20
REMARK    6  A    between atoms: N_22  and  C_23
REMARK    7  A    between atoms: C_26  and  N_29
REMARK    8  A    between atoms: C_30  and  C_32
REMARK                            x       y       z     vdW  Elec       q    Type
REMARK                         _______ _______ _______ _____ _____    ______ ____
ROOT
ATOM      1  C   UNL     1       0.163  -6.375   1.136  0.00  0.00    +0.207 A 
ATOM      2  N   UNL     1       0.172  -7.159   2.230  0.00  0.00    -0.191 NA
ATOM      3  C   UNL     1       0.174  -8.413   1.881  0.00  0.00    +0.228 A 
ATOM      4  O   UNL     1       0.167  -8.482   0.543  0.00  0.00    -0.338 OA
ATOM      5  N   UNL     1       0.154  -7.143   0.072  0.00  0.00    -0.056 NA
ENDROOT
BRANCH   1  12
ATOM      6  C   UNL     1       0.124   1.487   0.035  0.00  0.00    +0.044 C 
ATOM      7  C   UNL     1       0.129  -0.020   0.021  0.00  0.00    -0.048 A 
ATOM      8  C   UNL     1       0.119  -0.697  -1.192  0.00  0.00    +0.004 A 
ATOM      9  C   UNL     1       0.124  -2.061  -1.225  0.00  0.00    +0.010 A 
ATOM     10  C   UNL     1       0.138  -2.790  -0.026  0.00  0.00    -0.001 A 
ATOM     11  C   UNL     1       0.143  -4.207  -0.049  0.00  0.00    +0.027 A 
ATOM     12  C   UNL     1       0.158  -4.894   1.133  0.00  0.00    +0.087 A 
ATOM     13  C   UNL     1       0.168  -4.152   2.397  0.00  0.00    +0.260 A 
ATOM     14  N   UNL     1       0.163  -2.806   2.392  0.00  0.00    -0.322 N 
ATOM     15  C   UNL     1       0.148  -2.106   1.204  0.00  0.00    +0.049 A 
ATOM     16  C   UNL     1       0.149  -0.713   1.211  0.00  0.00    +0.029 A 
ATOM     17  O   UNL     1       0.181  -4.756   3.455  0.00  0.00    -0.267 OA
ATOM     18  H   UNL     1       0.169  -2.323   3.233  0.00  0.00    +0.169 HD
ENDBRANCH   1  12
BRANCH   3  19
ATOM     19  C   UNL     1       0.184  -9.589   2.823  0.00  0.00    +0.108 C 
BRANCH  19  20
ATOM     20  C   UNL     1      -1.255  -9.992   3.151  0.00  0.00    +0.105 C 
BRANCH  20  21
ATOM     21  C   UNL     1      -1.245 -11.168   4.093  0.00  0.00    +0.218 C 
ATOM     22  O   UNL     1      -0.191 -11.638   4.466  0.00  0.00    -0.275 OA
ATOM     23  N   UNL     1      -2.408 -11.698   4.521  0.00  0.00    -0.285 N 
ATOM     24  H   UNL     1      -3.249 -11.283   4.277  0.00  0.00    +0.155 HD
BRANCH  23  25
ATOM     25  C   UNL     1      -2.401 -12.850   5.319  0.00  0.00    +0.033 A 
ATOM     26  C   UNL     1      -3.407 -13.797   5.180  0.00  0.00    +0.025 A 
ATOM     27  C   UNL     1      -3.400 -14.932   5.966  0.00  0.00    +0.025 A 
ATOM     28  C   UNL     1      -2.387 -15.127   6.895  0.00  0.00    +0.033 A 
ATOM     29  C   UNL     1      -1.381 -14.180   7.034  0.00  0.00    +0.025 A 
ATOM     30  C   UNL     1      -1.384 -13.048   6.244  0.00  0.00    +0.025 A 
BRANCH  28  31
ATOM     31  N   UNL     1      -2.380 -16.278   7.693  0.00  0.00    -0.286 N 
ATOM     32  C   UNL     1      -1.939 -16.214   8.965  0.00  0.00    +0.214 C 
ATOM     33  O   UNL     1      -1.470 -15.181   9.393  0.00  0.00    -0.276 OA
ATOM     34  C   UNL     1      -2.029 -17.427   9.855  0.00  0.00    +0.109 C 
ATOM     35  H   UNL     1      -2.693 -17.122   7.330  0.00  0.00    +0.155 HD
ENDBRANCH  28  31
ENDBRANCH  23  25
ENDBRANCH  20  21
ENDBRANCH  19  20
ENDBRANCH   3  19
TORSDOF 6
