REMARK  Name = ZINC17126483
REMARK  6 active torsions:
REMARK  status: ('A' for Active; 'I' for Inactive)
REMARK    1  A    between atoms: N_4  and  N_5
REMARK    2  A    between atoms: N_5  and  C_6
REMARK    3  A    between atoms: C_6  and  N_8
REMARK    4  A    between atoms: N_15  and  N_16
REMARK    5  A    between atoms: N_16  and  C_17
REMARK    6  A    between atoms: C_17  and  N_19
REMARK                            x       y       z     vdW  Elec       q    Type
REMARK                         _______ _______ _______ _____ _____    ______ ____
ROOT
ATOM      1  C   UNL     1       0.316   0.791  -0.601  0.00  0.00    +0.007 C 
ATOM      2  C   UNL     1       1.549   1.700  -0.621  0.00  0.00    +0.059 C 
ATOM      3  C   UNL     1       2.561   1.112  -1.584  0.00  0.00    +0.082 C 
ATOM      4  N   UNL     1       3.168   1.849  -2.468  0.00  0.00    -0.184 NA
ATOM      5  C   UNL     1       2.824  -0.335  -1.470  0.00  0.00    +0.082 C 
ATOM      6  N   UNL     1       4.033  -0.814  -1.527  0.00  0.00    -0.184 NA
ATOM      7  C   UNL     1       1.620  -1.236  -1.283  0.00  0.00    +0.059 C 
ATOM      8  C   UNL     1       0.725  -0.627  -0.199  0.00  0.00    +0.007 C 
ENDROOT
BRANCH   4   9
ATOM      9  N   UNL     1       2.820   3.198  -2.615  0.00  0.00    -0.218 N 
ATOM     10  H   UNL     1       2.179   3.602  -2.010  0.00  0.00    +0.176 HD
BRANCH   9  11
ATOM     11  C   UNL     1       3.374   3.934  -3.599  0.00  0.00    +0.153 C 
ATOM     12  S   UNL     1       3.140   5.630  -3.635  0.00  0.00    -0.017 S 
BRANCH  11  13
ATOM     13  N   UNL     1       4.114   3.336  -4.553  0.00  0.00    -0.307 N 
ATOM     14  C   UNL     1       4.205   1.869  -4.632  0.00  0.00    +0.135 C 
ATOM     15  C   UNL     1       3.899   1.442  -6.072  0.00  0.00    +0.179 C 
ATOM     16  O   UNL     1       4.733   2.180  -6.969  0.00  0.00    -0.377 OA
ATOM     17  C   UNL     1       4.515   3.592  -6.943  0.00  0.00    +0.179 C 
ATOM     18  C   UNL     1       4.849   4.129  -5.551  0.00  0.00    +0.135 C 
ENDBRANCH  11  13
ENDBRANCH   9  11
ENDBRANCH   4   9
BRANCH   6  19
ATOM     19  N   UNL     1       4.237  -2.200  -1.529  0.00  0.00    -0.218 N 
ATOM     20  H   UNL     1       3.477  -2.803  -1.563  0.00  0.00    +0.176 HD
BRANCH  19  21
ATOM     21  C   UNL     1       5.489  -2.697  -1.483  0.00  0.00    +0.153 C 
ATOM     22  S   UNL     1       5.752  -4.376  -1.691  0.00  0.00    -0.017 S 
BRANCH  21  23
ATOM     23  N   UNL     1       6.534  -1.873  -1.273  0.00  0.00    -0.307 N 
ATOM     24  C   UNL     1       6.326  -0.482  -0.838  0.00  0.00    +0.135 C 
ATOM     25  C   UNL     1       7.217  -0.219   0.382  0.00  0.00    +0.179 C 
ATOM     26  O   UNL     1       8.562  -0.594   0.072  0.00  0.00    -0.377 OA
ATOM     27  C   UNL     1       8.729  -1.982  -0.221  0.00  0.00    +0.179 C 
ATOM     28  C   UNL     1       7.917  -2.337  -1.467  0.00  0.00    +0.135 C 
ENDBRANCH  21  23
ENDBRANCH  19  21
ENDBRANCH   6  19
TORSDOF 6
