REMARK  Name = ZINC27145993
REMARK  10 active torsions:
REMARK  status: ('A' for Active; 'I' for Inactive)
REMARK    1  A    between atoms: C_1  and  C_2
REMARK    2  A    between atoms: C_2  and  C_3
REMARK    3  A    between atoms: C_3  and  C_5
REMARK    4  A    between atoms: C_3  and  C_6
REMARK    5  A    between atoms: C_9  and  S_12
REMARK    6  A    between atoms: S_12  and  N_15
REMARK    7  A    between atoms: N_18  and  C_21
REMARK    8  A    between atoms: C_21  and  C_22
REMARK    9  A    between atoms: C_24  and  O_25
REMARK   10  A    between atoms: C_34  and  C_36
REMARK                            x       y       z     vdW  Elec       q    Type
REMARK                         _______ _______ _______ _____ _____    ______ ____
ROOT
ATOM      1  N   UNL     1       2.771  -7.254   3.898  0.00  0.00    -0.174 NA
ATOM      2  C   UNL     1       2.414  -8.530   3.260  0.00  0.00    +0.125 C 
ATOM      3  C   UNL     1       1.971  -8.248   1.821  0.00  0.00    +0.102 C 
ATOM      4  N   UNL     1       0.904  -7.238   1.829  0.00  0.00    -0.296 NA
ATOM      5  C   UNL     1       1.386  -5.958   2.366  0.00  0.00    +0.102 C 
ATOM      6  C   UNL     1       1.806  -6.146   3.828  0.00  0.00    +0.125 C 
ENDROOT
BRANCH   1   7
ATOM      7  S   UNL     1       4.222  -7.068   4.674  0.00  0.00    +0.061 S 
ATOM      8  O   UNL     1       4.048  -6.018   5.615  0.00  0.00    -0.153 OA
ATOM      9  O   UNL     1       4.649  -8.369   5.055  0.00  0.00    -0.153 OA
BRANCH   7  13
ATOM     10  C   UNL     1       7.199  -5.577   1.607  0.00  0.00    -0.044 A 
ATOM     11  C   UNL     1       6.456  -4.674   2.345  0.00  0.00    +0.006 A 
ATOM     12  C   UNL     1       5.547  -5.130   3.281  0.00  0.00    +0.029 A 
ATOM     13  C   UNL     1       5.381  -6.488   3.480  0.00  0.00    +0.105 A 
ATOM     14  C   UNL     1       6.128  -7.390   2.747  0.00  0.00    +0.029 A 
ATOM     15  C   UNL     1       7.034  -6.935   1.807  0.00  0.00    +0.006 A 
BRANCH  10  16
ATOM     16  C   UNL     1       8.190  -5.081   0.586  0.00  0.00    +0.016 C 
ATOM     17  C   UNL     1       7.808  -5.613  -0.796  0.00  0.00    +0.012 C 
BRANCH  16  19
ATOM     18  C   UNL     1      10.614  -4.969  -0.011  0.00  0.00    +0.004 C 
ATOM     19  C   UNL     1       9.591  -5.574   0.953  0.00  0.00    +0.004 C 
ENDBRANCH  16  19
ENDBRANCH  10  16
ENDBRANCH   7  13
ENDBRANCH   1   7
BRANCH   4  20
ATOM     20  C   UNL     1       0.333  -7.064   0.487  0.00  0.00    +0.120 C 
BRANCH  20  21
ATOM     21  C   UNL     1      -0.574  -8.226   0.173  0.00  0.00    -0.016 A 
ATOM     22  C   UNL     1      -0.161  -9.233  -0.640  0.00  0.00    +0.093 A 
ATOM     23  C   UNL     1      -1.029 -10.309  -0.920  0.00  0.00    +0.285 A 
ATOM     24  O   UNL     1      -2.265 -10.371  -0.401  0.00  0.00    -0.425 OA
ATOM     25  C   UNL     1      -2.737  -9.403   0.415  0.00  0.00    +0.141 A 
ATOM     26  C   UNL     1      -1.924  -8.300   0.735  0.00  0.00    +0.022 A 
ATOM     27  C   UNL     1      -2.408  -7.294   1.580  0.00  0.00    +0.014 A 
ATOM     28  C   UNL     1      -3.671  -7.385   2.087  0.00  0.00    +0.024 A 
ATOM     29  C   UNL     1      -4.480  -8.478   1.779  0.00  0.00    +0.037 A 
ATOM     30  C   UNL     1      -4.016  -9.483   0.943  0.00  0.00    +0.070 A 
ATOM     31  N   UNL     1      -5.767  -8.559   2.310  0.00  0.00    -0.286 N 
ATOM     32  C   UNL     1      -6.271  -9.754   2.677  0.00  0.00    +0.214 C 
ATOM     33  O   UNL     1      -5.640 -10.768   2.467  0.00  0.00    -0.276 OA
ATOM     34  C   UNL     1      -7.617  -9.830   3.349  0.00  0.00    +0.109 C 
ATOM     35  H   UNL     1      -6.371  -7.647   2.429  0.00  0.00    +0.155 HD
BRANCH  23  36
ATOM     36  O   UNL     1      -0.646 -11.205  -1.650  0.00  0.00    -0.480 OA
ATOM     37  H   UNL     1      -1.312 -12.051  -1.878  0.00  0.00    +0.295 HD
ENDBRANCH  23  36
ENDBRANCH  20  21
ENDBRANCH   4  20
TORSDOF 7
