REMARK  Name = ZINC13501255
REMARK  10 active torsions:
REMARK  status: ('A' for Active; 'I' for Inactive)
REMARK    1  A    between atoms: C_1  and  C_2
REMARK    2  A    between atoms: C_9  and  C_14
REMARK    3  A    between atoms: C_14  and  N_73
REMARK    4  A    between atoms: C_15  and  C_16
REMARK    5  A    between atoms: C_15  and  N_73
REMARK    6  A    between atoms: C_16  and  C_17
REMARK    7  A    between atoms: C_17  and  O_18
REMARK    8  A    between atoms: C_19  and  C_25
REMARK    9  A    between atoms: C_19  and  N_73
REMARK   10  A    between atoms: N_29  and  C_30
REMARK                            x       y       z     vdW  Elec       q    Type
REMARK                         _______ _______ _______ _____ _____    ______ ____
ROOT
ATOM      1  N   UNL     1       1.237  -2.713   1.398  0.00  0.00    +0.391 N 
ATOM      2  H   UNL     1       1.961  -2.022   1.625  0.00  0.00    -0.080 HD
ENDROOT
BRANCH   1   3
ATOM      3  C   UNL     1       1.704  -4.052   1.815  0.00  0.00    -0.002 C 
ATOM      4  C   UNL     1       1.991  -4.032   3.318  0.00  0.00    -0.004 C 
ATOM      5  C   UNL     1       3.054  -2.974   3.620  0.00  0.00    -0.001 C 
ATOM      6  C   UNL     1       4.339  -3.312   2.860  0.00  0.00    -0.000 C 
ATOM      7  C   UNL     1       4.052  -3.332   1.357  0.00  0.00    -0.001 C 
ATOM      8  C   UNL     1       2.988  -4.389   1.055  0.00  0.00    -0.004 C 
BRANCH   3   9
ATOM      9  C   UNL     1       0.656  -5.094   1.518  0.00  0.00    +0.141 A 
ATOM     10  N   UNL     1      -0.516  -4.890   0.968  0.00  0.00    -0.115 NA
ATOM     11  N   UNL     1      -1.118  -6.026   0.882  0.00  0.00    -0.023 NA
ATOM     12  N   UNL     1      -0.360  -6.949   1.362  0.00  0.00    -0.044 NA
ATOM     13  N   UNL     1       0.745  -6.415   1.759  0.00  0.00    -0.228 N 
BRANCH  13  14
ATOM     14  C   UNL     1       1.881  -7.114   2.364  0.00  0.00    +0.111 C 
ATOM     15  C   UNL     1       2.419  -8.158   1.382  0.00  0.00    +0.027 C 
ATOM     16  C   UNL     1       3.606  -8.888   2.013  0.00  0.00    +0.002 C 
ATOM     17  C   UNL     1       3.152  -9.583   3.298  0.00  0.00    +0.000 C 
ATOM     18  C   UNL     1       2.615  -8.540   4.280  0.00  0.00    +0.002 C 
ATOM     19  C   UNL     1       1.428  -7.809   3.649  0.00  0.00    +0.027 C 
ENDBRANCH  13  14
ENDBRANCH   3   9
ENDBRANCH   1   3
BRANCH   1  20
ATOM     20  C   UNL     1       0.994  -2.694  -0.060  0.00  0.00    -0.036 C 
BRANCH  20  29
ATOM     21  C   UNL     1       4.477   3.684  -1.736  0.00  0.00    +0.044 C 
ATOM     22  C   UNL     1       3.216   2.867  -1.618  0.00  0.00    -0.050 A 
ATOM     23  C   UNL     1       1.994   3.435  -1.951  0.00  0.00    +0.005 A 
ATOM     24  C   UNL     1       0.829   2.706  -1.851  0.00  0.00    +0.026 A 
ATOM     25  C   UNL     1       0.876   1.386  -1.413  0.00  0.00    +0.049 A 
ATOM     26  C   UNL     1       2.117   0.814  -1.076  0.00  0.00    -0.001 A 
ATOM     27  C   UNL     1       3.287   1.573  -1.185  0.00  0.00    +0.013 A 
ATOM     28  C   UNL     1       2.156  -0.576  -0.615  0.00  0.00    +0.017 A 
ATOM     29  C   UNL     1       0.990  -1.262  -0.530  0.00  0.00    +0.001 A 
ATOM     30  C   UNL     1      -0.229  -0.641  -0.880  0.00  0.00    +0.251 A 
ATOM     31  O   UNL     1      -1.265  -1.277  -0.796  0.00  0.00    -0.268 OA
ATOM     32  N   UNL     1      -0.274   0.634  -1.304  0.00  0.00    -0.322 N 
ATOM     33  H   UNL     1      -1.128   1.029  -1.541  0.00  0.00    +0.169 HD
ENDBRANCH  20  29
ENDBRANCH   1  20
BRANCH   1  34
ATOM     34  C   UNL     1      -0.004  -2.363   2.121  0.00  0.00    -0.075 C 
BRANCH  34  35
ATOM     35  C   UNL     1      -0.121  -0.839   2.179  0.00  0.00    +0.009 C 
BRANCH  35  36
ATOM     36  C   UNL     1      -1.313  -0.453   3.058  0.00  0.00    +0.154 C 
BRANCH  36  37
ATOM     37  O   UNL     1      -1.423   0.971   3.113  0.00  0.00    -0.395 OA
ATOM     38  H   UNL     1      -2.158   1.288   3.655  0.00  0.00    +0.209 HD
ENDBRANCH  36  37
ENDBRANCH  35  36
ENDBRANCH  34  35
ENDBRANCH   1  34
TORSDOF 9
