REMARK  Name = ZINC67280777
REMARK  8 active torsions:
REMARK  status: ('A' for Active; 'I' for Inactive)
REMARK    1  A    between atoms: C_1  and  C_2
REMARK    2  A    between atoms: C_2  and  C_3
REMARK    3  A    between atoms: C_3  and  N_4
REMARK    4  A    between atoms: C_7  and  C_10
REMARK    5  A    between atoms: C_10  and  N_11
REMARK    6  A    between atoms: C_17  and  N_20
REMARK    7  A    between atoms: C_21  and  C_23
REMARK    8  A    between atoms: C_27  and  C_28
REMARK                            x       y       z     vdW  Elec       q    Type
REMARK                         _______ _______ _______ _____ _____    ______ ____
ROOT
ATOM      1  N   UNL     1      -3.900  -5.693  -1.700  0.00  0.00    -0.299 N 
ATOM      2  C   UNL     1      -4.918  -6.217  -2.410  0.00  0.00    +0.302 C 
ATOM      3  O   UNL     1      -5.941  -5.579  -2.568  0.00  0.00    -0.253 OA
ATOM      4  N   UNL     1      -4.802  -7.448  -2.947  0.00  0.00    -0.286 N 
ATOM      5  C   UNL     1      -3.621  -8.277  -2.670  0.00  0.00    +0.111 C 
ATOM      6  C   UNL     1      -3.010  -8.725  -4.002  0.00  0.00    +0.041 C 
ATOM      7  C   UNL     1      -4.083  -9.420  -4.843  0.00  0.00    +0.076 C 
ATOM      8  C   UNL     1      -5.218  -8.437  -5.139  0.00  0.00    +0.041 C 
ATOM      9  C   UNL     1      -5.856  -7.988  -3.816  0.00  0.00    +0.111 C 
ATOM     10  H   UNL     1      -3.113  -6.229  -1.512  0.00  0.00    +0.150 HD
ENDROOT
BRANCH   7  11
ATOM     11  N   UNL     1      -3.494  -9.880  -6.103  0.00  0.00    -0.308 N 
ATOM     12  C   UNL     1      -4.045 -10.914  -6.767  0.00  0.00    +0.248 C 
ATOM     13  O   UNL     1      -5.032 -11.467  -6.321  0.00  0.00    -0.270 OA
ATOM     14  H   UNL     1      -2.706  -9.439  -6.459  0.00  0.00    +0.149 HD
BRANCH  12  15
ATOM     15  C   UNL     1      -3.452 -11.376  -8.035  0.00  0.00    +0.077 A 
ATOM     16  C   UNL     1      -2.265 -10.832  -8.711  0.00  0.00    +0.054 A 
ATOM     17  C   UNL     1      -2.106 -11.566  -9.823  0.00  0.00    +0.196 A 
ATOM     18  O   UNL     1      -3.075 -12.493  -9.882  0.00  0.00    -0.467 OA
ATOM     19  C   UNL     1      -3.886 -12.402  -8.823  0.00  0.00    +0.114 A 
ATOM     20  C   UNL     1      -5.080 -13.280  -8.549  0.00  0.00    +0.087 C 
ENDBRANCH  12  15
ENDBRANCH   7  11
BRANCH   1  21
ATOM     21  C   UNL     1      -3.981  -4.315  -1.210  0.00  0.00    +0.107 C 
BRANCH  21  25
ATOM     22  N   UNL     1      -1.411  -2.001  -0.000  0.00  0.00    +0.380 N 
ATOM     23  C   UNL     1      -0.946  -2.509  -1.317  0.00  0.00    -0.079 C 
ATOM     24  C   UNL     1      -1.492  -3.951  -1.393  0.00  0.00    -0.016 C 
ATOM     25  C   UNL     1      -2.704  -3.971  -0.439  0.00  0.00    -0.012 C 
ATOM     26  C   UNL     1      -2.790  -2.540   0.132  0.00  0.00    -0.074 C 
ATOM     27  H   UNL     1      -0.824  -2.350   0.742  0.00  0.00    -0.082 HD
BRANCH  22  28
ATOM     28  C   UNL     1      -1.431  -0.532   0.006  0.00  0.00    -0.079 C 
BRANCH  28  30
ATOM     29  C   UNL     1      -0.016   1.527   0.001  0.00  0.00    +0.002 C 
ATOM     30  C   UNL     1       0.005  -0.003  -0.005  0.00  0.00    -0.022 C 
ENDBRANCH  28  30
ENDBRANCH  22  28
ENDBRANCH  21  25
ENDBRANCH   1  21
TORSDOF 6
