REMARK  Name = ZINC05163484
REMARK  10 active torsions:
REMARK  status: ('A' for Active; 'I' for Inactive)
REMARK    1  A    between atoms: C_1  and  C_2
REMARK    2  A    between atoms: C_2  and  O_3
REMARK    3  A    between atoms: O_3  and  C_4
REMARK    4  A    between atoms: C_7  and  C_10
REMARK    5  A    between atoms: C_17  and  N_33
REMARK    6  A    between atoms: C_18  and  C_31
REMARK    7  A    between atoms: C_19  and  C_21
REMARK    8  A    between atoms: C_24  and  C_27
REMARK    9  A    between atoms: C_27  and  O_29
REMARK   10  A    between atoms: O_29  and  C_30
REMARK                            x       y       z     vdW  Elec       q    Type
REMARK                         _______ _______ _______ _____ _____    ______ ____
ROOT
ATOM      1  C   UNL     1       1.142  -6.040   1.762  0.00  0.00    +0.100 A 
ATOM      2  C   UNL     1       2.227  -6.722   2.322  0.00  0.00    +0.054 A 
ATOM      3  C   UNL     1       1.949  -8.058   2.288  0.00  0.00    +0.223 A 
ATOM      4  N   UNL     1       0.733  -8.210   1.724  0.00  0.00    -0.246 N 
ATOM      5  H   UNL     1       0.277  -9.052   1.569  0.00  0.00    +0.192 HD
ATOM      6  N   UNL     1       0.240  -6.935   1.406  0.00  0.00    -0.171 NA
ATOM      7  O   UNL     1       2.806  -8.996   2.762  0.00  0.00    -0.423 OA
ATOM      8  C   UNL     1       3.834  -8.574   3.526  0.00  0.00    +0.200 C 
ATOM      9  C   UNL     1       4.212  -7.281   3.630  0.00  0.00    +0.098 C 
ATOM     10  C   UNL     1       3.511  -6.171   2.886  0.00  0.00    +0.102 C 
ENDROOT
BRANCH   1  14
ATOM     11  C   UNL     1       0.802  -1.824   1.306  0.00  0.00    +0.121 A 
ATOM     12  C   UNL     1       0.259  -2.671   0.349  0.00  0.00    +0.046 A 
ATOM     13  C   UNL     1       0.367  -4.038   0.495  0.00  0.00    +0.013 A 
ATOM     14  C   UNL     1       1.024  -4.569   1.603  0.00  0.00    +0.003 A 
ATOM     15  C   UNL     1       1.569  -3.717   2.561  0.00  0.00    +0.013 A 
ATOM     16  C   UNL     1       1.461  -2.350   2.408  0.00  0.00    +0.046 A 
BRANCH  11  17
ATOM     17  O   UNL     1       0.693  -0.477   1.160  0.00  0.00    -0.492 OA
BRANCH  17  19
ATOM     18  C   UNL     1      -0.019   1.526   0.010  0.00  0.00    +0.048 C 
ATOM     19  C   UNL     1       0.002  -0.004   0.002  0.00  0.00    +0.225 C 
ENDBRANCH  17  19
ENDBRANCH  11  17
ENDBRANCH   1  14
BRANCH  10  20
ATOM     20  C   UNL     1       4.388  -5.677   1.766  0.00  0.00    -0.035 A 
ATOM     21  C   UNL     1       4.802  -6.552   0.777  0.00  0.00    +0.005 A 
ATOM     22  C   UNL     1       5.605  -6.106  -0.252  0.00  0.00    +0.015 A 
ATOM     23  C   UNL     1       6.000  -4.768  -0.295  0.00  0.00    +0.059 A 
ATOM     24  C   UNL     1       5.579  -3.889   0.706  0.00  0.00    +0.015 A 
ATOM     25  C   UNL     1       4.771  -4.348   1.726  0.00  0.00    +0.005 A 
BRANCH  23  26
ATOM     26  C   UNL     1       6.861  -4.283  -1.393  0.00  0.00    +0.339 C 
ATOM     27  O   UNL     1       7.226  -5.049  -2.262  0.00  0.00    -0.245 OA
BRANCH  26  28
ATOM     28  O   UNL     1       7.240  -2.991  -1.432  0.00  0.00    -0.464 OA
ATOM     29  C   UNL     1       8.072  -2.591  -2.523  0.00  0.00    +0.280 C 
ENDBRANCH  26  28
ENDBRANCH  23  26
ENDBRANCH  10  20
BRANCH   8  30
ATOM     30  N   UNL     1       4.538  -9.513   4.239  0.00  0.00    -0.328 N 
ATOM     31  H   UNL     1       4.290 -10.449   4.184  0.00  0.00    +0.145 HD
ATOM     32  H   UNL     1       5.283  -9.240   4.797  0.00  0.00    +0.145 HD
ENDBRANCH   8  30
BRANCH   9  33
ATOM     33  C   UNL     1       5.318  -6.952   4.478  0.00  0.00    +0.101 C 
ATOM     34  N   UNL     1       6.196  -6.690   5.151  0.00  0.00    -0.191 NA
ENDBRANCH   9  33
TORSDOF 8
