REMARK  Name = ZINC13037188
REMARK  9 active torsions:
REMARK  status: ('A' for Active; 'I' for Inactive)
REMARK    1  A    between atoms: C_1  and  C_2
REMARK    2  A    between atoms: C_4  and  C_30
REMARK    3  A    between atoms: C_5  and  N_9
REMARK    4  A    between atoms: C_6  and  C_8
REMARK    5  A    between atoms: C_10  and  C_12
REMARK    6  A    between atoms: C_12  and  N_13
REMARK    7  A    between atoms: N_13  and  C_14
REMARK    8  A    between atoms: N_17  and  C_22
REMARK    9  A    between atoms: C_25  and  C_28
REMARK                            x       y       z     vdW  Elec       q    Type
REMARK                         _______ _______ _______ _____ _____    ______ ____
ROOT
ATOM      1  C   UNL     1       0.461   0.735   0.751  0.00  0.00    +0.071 A 
ATOM      2  C   UNL     1      -0.144   0.940  -0.508  0.00  0.00    +0.158 A 
ATOM      3  N   UNL     1      -1.331   1.472  -0.590  0.00  0.00    -0.170 NA
ATOM      4  N   UNL     1      -2.037   1.843   0.559  0.00  0.00    -0.195 N 
ATOM      5  C   UNL     1      -1.498   1.665   1.781  0.00  0.00    +0.292 A 
ATOM      6  O   UNL     1      -2.118   1.995   2.781  0.00  0.00    -0.264 OA
ATOM      7  C   UNL     1      -0.220   1.099   1.899  0.00  0.00    +0.129 A 
ATOM      8 CL   UNL     1       0.497   0.860   3.461  0.00  0.00    -0.076 Cl
ENDROOT
BRANCH   4   9
ATOM      9  C   UNL     1      -3.309   2.405   0.440  0.00  0.00    +0.069 A 
ATOM     10  C   UNL     1      -4.265   1.795  -0.366  0.00  0.00    +0.029 A 
ATOM     11  C   UNL     1      -5.522   2.345  -0.482  0.00  0.00    +0.017 A 
ATOM     12  C   UNL     1      -5.833   3.523   0.201  0.00  0.00    +0.063 A 
ATOM     13  C   UNL     1      -4.869   4.137   1.005  0.00  0.00    +0.017 A 
ATOM     14  C   UNL     1      -3.615   3.579   1.121  0.00  0.00    +0.029 A 
BRANCH  12  15
ATOM     15  C   UNL     1      -7.177   4.119   0.074  0.00  0.00    +0.387 C 
ATOM     16  O   UNL     1      -7.446   5.144   0.668  0.00  0.00    -0.241 OA
ATOM     17  O   UNL     1      -8.106   3.526  -0.702  0.00  0.00    -0.241 OA
ENDBRANCH  12  15
ENDBRANCH   4   9
BRANCH   1  18
ATOM     18  N   UNL     1       1.724   0.173   0.836  0.00  0.00    -0.333 N 
ATOM     19  H   UNL     1       2.135   0.034   1.703  0.00  0.00    +0.147 HD
BRANCH  18  20
ATOM     20  C   UNL     1       2.438  -0.211  -0.384  0.00  0.00    +0.198 C 
BRANCH  20  22
ATOM     21  N   UNL     1       4.616  -1.218  -0.986  0.00  0.00    -0.284 N 
ATOM     22  C   UNL     1       3.780  -0.793  -0.019  0.00  0.00    +0.234 C 
ATOM     23  O   UNL     1       4.106  -0.878   1.146  0.00  0.00    -0.274 OA
ATOM     24  H   UNL     1       4.384  -1.088  -1.919  0.00  0.00    +0.155 HD
BRANCH  21  29
ATOM     25  C   UNL     1       9.490  -3.769   0.398  0.00  0.00    +0.044 C 
ATOM     26  C   UNL     1       8.195  -3.091   0.030  0.00  0.00    -0.050 A 
ATOM     27  C   UNL     1       7.200  -3.806  -0.611  0.00  0.00    +0.008 A 
ATOM     28  C   UNL     1       6.013  -3.188  -0.949  0.00  0.00    -0.029 A 
ATOM     29  C   UNL     1       5.818  -1.847  -0.645  0.00  0.00    +0.039 A 
ATOM     30  C   UNL     1       6.822  -1.131  -0.006  0.00  0.00    -0.029 A 
ATOM     31  C   UNL     1       8.005  -1.756   0.335  0.00  0.00    +0.008 A 
ATOM     32  C   UNL     1       6.617   0.326   0.320  0.00  0.00    +0.045 C 
ATOM     33  C   UNL     1       4.929  -3.968  -1.648  0.00  0.00    +0.045 C 
ENDBRANCH  21  29
ENDBRANCH  20  22
ENDBRANCH  18  20
ENDBRANCH   1  18
TORSDOF 6
