REMARK  Name = ZINC04236858
REMARK  10 active torsions:
REMARK  status: ('A' for Active; 'I' for Inactive)
REMARK    1  A    between atoms: C_1  and  C_2
REMARK    2  A    between atoms: C_7  and  C_39
REMARK    3  A    between atoms: C_12  and  O_30
REMARK    4  A    between atoms: C_14  and  C_16
REMARK    5  A    between atoms: C_16  and  C_17
REMARK    6  A    between atoms: N_19  and  C_20
REMARK    7  A    between atoms: C_20  and  C_21
REMARK    8  A    between atoms: C_33  and  C_36
REMARK    9  A    between atoms: C_36  and  O_37
REMARK   10  A    between atoms: O_37  and  C_38
REMARK                            x       y       z     vdW  Elec       q    Type
REMARK                         _______ _______ _______ _____ _____    ______ ____
ROOT
ATOM      1  C   UNL     1      -5.441   6.307  -5.247  0.00  0.00    +0.012 C 
ATOM      2  C   UNL     1      -5.216   7.561  -4.404  0.00  0.00    -0.023 C 
ATOM      3  C   UNL     1      -4.209   8.465  -5.124  0.00  0.00    +0.010 C 
ATOM      4  C   UNL     1      -4.835   9.043  -6.393  0.00  0.00    +0.033 C 
ATOM      5  C   UNL     1      -6.028   9.916  -6.010  0.00  0.00    +0.130 C 
ATOM      6  C   UNL     1      -7.093   9.070  -5.306  0.00  0.00    +0.021 C 
ATOM      7  C   UNL     1      -6.503   8.324  -4.130  0.00  0.00    +0.006 C 
ATOM      8  C   UNL     1      -7.516   7.409  -3.445  0.00  0.00    +0.007 C 
ATOM      9  C   UNL     1      -6.955   7.029  -2.071  0.00  0.00    +0.032 C 
ATOM     10  C   UNL     1      -5.601   6.346  -2.205  0.00  0.00    +0.119 C 
ATOM     11  C   UNL     1      -4.617   7.138  -3.054  0.00  0.00    +0.032 C 
ATOM     12  C   UNL     1      -7.778   8.153  -6.315  0.00  0.00    +0.172 C 
ATOM     13  O   UNL     1      -8.296   8.972  -7.380  0.00  0.00    -0.348 OA
ATOM     14  C   UNL     1      -7.257   9.671  -8.075  0.00  0.00    +0.276 C 
ATOM     15  O   UNL     1      -6.577  10.537  -7.169  0.00  0.00    -0.345 OA
ATOM     16  C   UNL     1      -8.157  10.055  -4.771  0.00  0.00    +0.016 C 
ENDROOT
BRANCH  10  17
ATOM     17  O   UNL     1      -5.763   5.018  -2.702  0.00  0.00    -0.391 OA
ATOM     18  H   UNL     1      -6.381   4.479  -2.190  0.00  0.00    +0.210 HD
ENDBRANCH  10  17
BRANCH  11  19
ATOM     19  C   UNL     1      -3.370   6.279  -3.301  0.00  0.00    +0.102 C 
BRANCH  19  20
ATOM     20  C   UNL     1      -2.709   5.963  -1.984  0.00  0.00    +0.214 C 
ATOM     21  O   UNL     1      -3.185   6.382  -0.950  0.00  0.00    -0.276 OA
ATOM     22  N   UNL     1      -1.588   5.215  -1.955  0.00  0.00    -0.311 N 
ATOM     23  H   UNL     1      -1.207   4.880  -2.782  0.00  0.00    +0.149 HD
BRANCH  22  24
ATOM     24  C   UNL     1      -0.945   4.908  -0.675  0.00  0.00    +0.139 C 
BRANCH  24  25
ATOM     25  C   UNL     1       0.280   4.064  -0.918  0.00  0.00    -0.027 A 
ATOM     26  C   UNL     1       1.505   4.670  -1.125  0.00  0.00    +0.009 A 
ATOM     27  C   UNL     1       2.631   3.901  -1.349  0.00  0.00    +0.050 A 
ATOM     28  C   UNL     1       2.535   2.519  -1.366  0.00  0.00    +0.166 A 
ATOM     29  C   UNL     1       1.300   1.908  -1.158  0.00  0.00    +0.167 A 
ATOM     30  C   UNL     1       0.175   2.686  -0.939  0.00  0.00    +0.054 A 
ATOM     31  O   UNL     1       1.467   0.555  -1.222  0.00  0.00    -0.453 OA
ATOM     32  C   UNL     1       2.881   0.334  -1.065  0.00  0.00    +0.466 C 
ATOM     33  O   UNL     1       3.474   1.548  -1.561  0.00  0.00    -0.453 OA
ENDBRANCH  24  25
ENDBRANCH  22  24
ENDBRANCH  19  20
ENDBRANCH  11  19
BRANCH  14  34
ATOM     34  C   UNL     1      -7.874  10.495  -9.208  0.00  0.00    +0.220 C 
BRANCH  34  35
ATOM     35  O   UNL     1      -8.803  11.434  -8.662  0.00  0.00    -0.378 OA
ATOM     36  C   UNL     1      -9.440  12.258  -9.641  0.00  0.00    +0.194 C 
ENDBRANCH  34  35
ENDBRANCH  14  34
TORSDOF 7
