REMARK  Name = ZINC44988969
REMARK  7 active torsions:
REMARK  status: ('A' for Active; 'I' for Inactive)
REMARK    1  A    between atoms: C_1  and  O_2
REMARK    2  A    between atoms: O_2  and  C_3
REMARK    3  A    between atoms: C_3  and  C_5
REMARK    4  A    between atoms: C_8  and  C_10
REMARK    5  A    between atoms: C_10  and  N_11
REMARK    6  A    between atoms: C_24  and  C_26
REMARK    7  A    between atoms: C_29  and  N_33
REMARK                            x       y       z     vdW  Elec       q    Type
REMARK                         _______ _______ _______ _____ _____    ______ ____
ROOT
ATOM      1  N   UNL     1       1.051  -5.822   1.053  0.00  0.00    -0.283 NA
ATOM      2  C   UNL     1       2.263  -6.218   0.321  0.00  0.00    +0.090 C 
ATOM      3  C   UNL     1       3.456  -6.243   1.286  0.00  0.00    +0.053 C 
ATOM      4  C   UNL     1       3.050  -7.027   2.509  0.00  0.00    -0.016 A 
ATOM      5  C   UNL     1       3.878  -7.597   3.548  0.00  0.00    +0.003 A 
ATOM      6  C   UNL     1       5.260  -7.614   3.761  0.00  0.00    +0.010 A 
ATOM      7  C   UNL     1       5.708  -8.266   4.883  0.00  0.00    +0.001 A 
ATOM      8  C   UNL     1       4.841  -8.883   5.770  0.00  0.00    +0.002 A 
ATOM      9  C   UNL     1       3.470  -8.883   5.585  0.00  0.00    +0.026 A 
ATOM     10  C   UNL     1       2.986  -8.228   4.454  0.00  0.00    +0.047 A 
ATOM     11  N   UNL     1       1.720  -8.040   3.977  0.00  0.00    -0.356 N 
ATOM     12  H   UNL     1       0.910  -8.367   4.399  0.00  0.00    +0.166 HD
ATOM     13  C   UNL     1       1.766  -7.321   2.814  0.00  0.00    +0.042 A 
ATOM     14  C   UNL     1       0.598  -6.890   1.959  0.00  0.00    +0.135 C 
ENDROOT
BRANCH  14  15
ATOM     15  C   UNL     1      -0.510  -6.370   2.839  0.00  0.00    -0.023 A 
ATOM     16  C   UNL     1      -0.441  -5.088   3.352  0.00  0.00    +0.008 A 
ATOM     17  C   UNL     1      -1.456  -4.611   4.159  0.00  0.00    +0.034 A 
ATOM     18  C   UNL     1      -2.541  -5.415   4.455  0.00  0.00    +0.144 A 
ATOM     19  C   UNL     1      -2.610  -6.698   3.942  0.00  0.00    +0.071 A 
ATOM     20  C   UNL     1      -1.596  -7.174   3.129  0.00  0.00    +0.027 A 
ATOM     21 CL   UNL     1      -3.972  -7.710   4.312  0.00  0.00    -0.081 Cl
BRANCH  18  22
ATOM     22  N   UNL     1      -3.628  -4.905   5.320  0.00  0.00    +0.058 N 
ATOM     23  O   UNL     1      -3.567  -3.784   5.768  0.00  0.00    -0.126 OA
ATOM     24  O   UNL     1      -4.577  -5.608   5.578  0.00  0.00    -0.126 OA
ENDBRANCH  18  22
ENDBRANCH  14  15
BRANCH   1  25
ATOM     25  C   UNL     1      -0.019  -5.429   0.126  0.00  0.00    +0.159 C 
BRANCH  25  29
ATOM     26  C   UNL     1       0.659  -2.064  -1.123  0.00  0.00    +0.212 A 
ATOM     27  C   UNL     1       1.237  -2.795  -2.122  0.00  0.00    +0.057 A 
ATOM     28  C   UNL     1       1.061  -4.146  -1.787  0.00  0.00    +0.047 A 
ATOM     29  C   UNL     1       0.391  -4.181  -0.614  0.00  0.00    +0.120 A 
ATOM     30  O   UNL     1       0.155  -2.925  -0.214  0.00  0.00    -0.452 OA
BRANCH  26  31
ATOM     31  C   UNL     1       0.601  -0.603  -1.048  0.00  0.00    +0.375 C 
ATOM     32  O   UNL     1       1.094   0.071  -1.932  0.00  0.00    -0.241 OA
BRANCH  31  34
ATOM     33  C   UNL     1      -0.017   1.425   0.010  0.00  0.00    +0.280 C 
ATOM     34  O   UNL     1       0.002  -0.004   0.002  0.00  0.00    -0.462 OA
ENDBRANCH  31  34
ENDBRANCH  26  31
ENDBRANCH  25  29
ENDBRANCH   1  25
TORSDOF 6
