REMARK  Name = ZINC41627254
REMARK  10 active torsions:
REMARK  status: ('A' for Active; 'I' for Inactive)
REMARK    1  A    between atoms: C_1  and  C_2
REMARK    2  A    between atoms: C_2  and  C_4
REMARK    3  A    between atoms: C_2  and  S_14
REMARK    4  A    between atoms: C_4  and  O_6
REMARK    5  A    between atoms: O_6  and  C_7
REMARK    6  A    between atoms: C_7  and  C_8
REMARK    7  A    between atoms: S_14  and  C_15
REMARK    8  A    between atoms: C_21  and  C_23
REMARK    9  A    between atoms: C_23  and  C_24
REMARK   10  A    between atoms: C_23  and  C_25
REMARK                            x       y       z     vdW  Elec       q    Type
REMARK                         _______ _______ _______ _____ _____    ______ ____
ROOT
ATOM      1  C   UNL     1      -0.019   1.526   0.010  0.00  0.00    +0.031 C 
ATOM      2  C   UNL     1       0.002  -0.004   0.002  0.00  0.00    +0.160 C 
ENDROOT
BRANCH   2   3
ATOM      3  C   UNL     1       0.707  -0.490  -1.238  0.00  0.00    +0.321 C 
ATOM      4  O   UNL     1       1.860  -0.848  -1.176  0.00  0.00    -0.250 OA
BRANCH   3   5
ATOM      5  O   UNL     1       0.055  -0.526  -2.411  0.00  0.00    -0.459 OA
BRANCH   5   6
ATOM      6  C   UNL     1       0.785  -0.998  -3.545  0.00  0.00    +0.267 C 
BRANCH   6   7
ATOM      7  C   UNL     1      -0.102  -0.967  -4.762  0.00  0.00    -0.010 A 
ATOM      8  C   UNL     1      -0.873  -2.069  -5.083  0.00  0.00    +0.007 A 
ATOM      9  C   UNL     1      -1.688  -2.041  -6.200  0.00  0.00    +0.000 A 
ATOM     10  C   UNL     1      -1.732  -0.911  -6.995  0.00  0.00    +0.000 A 
ATOM     11  C   UNL     1      -0.962   0.191  -6.673  0.00  0.00    +0.000 A 
ATOM     12  C   UNL     1      -0.151   0.165  -5.554  0.00  0.00    +0.007 A 
ENDBRANCH   6   7
ENDBRANCH   5   6
ENDBRANCH   3   5
ENDBRANCH   2   3
BRANCH   2  13
ATOM     13  S   UNL     1       0.879  -0.605   1.472  0.00  0.00    -0.073 S 
BRANCH  13  14
ATOM     14  C   UNL     1      -0.136  -0.087   2.816  0.00  0.00    +0.170 A 
ATOM     15  N   UNL     1       0.243  -0.377   4.091  0.00  0.00    -0.302 N 
ATOM     16  H   UNL     1       1.065  -0.865   4.256  0.00  0.00    +0.171 HD
ATOM     17  C   UNL     1      -0.530   0.017   5.126  0.00  0.00    +0.252 A 
ATOM     18  O   UNL     1      -0.205  -0.234   6.275  0.00  0.00    -0.268 OA
ATOM     19  C   UNL     1      -1.715   0.723   4.854  0.00  0.00    +0.093 A 
ATOM     20  C   UNL     1      -2.043   0.985   3.555  0.00  0.00    +0.052 A 
ATOM     21  N   UNL     1      -1.247   0.580   2.569  0.00  0.00    -0.228 NA
BRANCH  20  22
ATOM     22  C   UNL     1      -3.309   1.740   3.237  0.00  0.00    +0.032 C 
ATOM     23  C   UNL     1      -2.961   3.025   2.484  0.00  0.00    +0.014 C 
ATOM     24  C   UNL     1      -4.217   0.869   2.367  0.00  0.00    +0.014 C 
ENDBRANCH  20  22
ENDBRANCH  13  14
ENDBRANCH   2  13
TORSDOF 7
