REMARK  Name = ZINC64977773
REMARK  8 active torsions:
REMARK  status: ('A' for Active; 'I' for Inactive)
REMARK    1  A    between atoms: C_1  and  C_2
REMARK    2  A    between atoms: C_2  and  C_3
REMARK    3  A    between atoms: C_3  and  N_4
REMARK    4  A    between atoms: C_8  and  C_13
REMARK    5  A    between atoms: N_15  and  C_16
REMARK    6  A    between atoms: C_16  and  C_18
REMARK    7  A    between atoms: C_16  and  C_19
REMARK    8  A    between atoms: N_21  and  C_22
REMARK                            x       y       z     vdW  Elec       q    Type
REMARK                         _______ _______ _______ _____ _____    ______ ____
ROOT
ATOM      1  C   UNL     1       4.057  -5.809   0.971  0.00  0.00    +0.245 C 
ATOM      2  O   UNL     1       3.711  -6.919   0.614  0.00  0.00    -0.270 OA
ATOM      3  N   UNL     1       5.230  -5.644   1.614  0.00  0.00    -0.300 N 
ATOM      4  H   UNL     1       5.507  -4.759   1.899  0.00  0.00    +0.150 HD
ENDROOT
BRANCH   1   9
ATOM      5  N   UNL     1       0.604  -1.561  -0.179  0.00  0.00    -0.244 N 
ATOM      6  C   UNL     1       1.592  -2.433   0.205  0.00  0.00    +0.089 A 
ATOM      7  C   UNL     1       2.807  -2.280   0.869  0.00  0.00    +0.030 A 
ATOM      8  C   UNL     1       3.595  -3.364   1.113  0.00  0.00    +0.015 A 
ATOM      9  C   UNL     1       3.192  -4.643   0.700  0.00  0.00    +0.039 A 
ATOM     10  C   UNL     1       1.985  -4.816   0.037  0.00  0.00    +0.044 A 
ATOM     11  C   UNL     1       1.171  -3.708  -0.216  0.00  0.00    +0.113 A 
ATOM     12  N   UNL     1      -0.029  -3.562  -0.826  0.00  0.00    -0.129 NA
ATOM     13  N   UNL     1      -0.385  -2.326  -0.813  0.00  0.00    -0.065 NA
BRANCH   5  14
ATOM     14  C   UNL     1       0.584  -0.112   0.037  0.00  0.00    +0.145 C 
BRANCH  14  16
ATOM     15  C   UNL     1      -0.104   1.707   1.606  0.00  0.00    +0.005 C 
ATOM     16  C   UNL     1      -0.083   0.194   1.380  0.00  0.00    +0.020 C 
ENDBRANCH  14  16
ENDBRANCH   5  14
ENDBRANCH   1   9
BRANCH   3  17
ATOM     17  C   UNL     1       6.088  -6.801   1.883  0.00  0.00    +0.156 C 
ATOM     18  C   UNL     1       5.640  -7.477   3.180  0.00  0.00    +0.038 C 
BRANCH  17  19
ATOM     19  C   UNL     1       7.518  -6.345   2.021  0.00  0.00    +0.237 C 
ATOM     20  O   UNL     1       7.793  -5.169   1.907  0.00  0.00    -0.273 OA
ATOM     21  N   UNL     1       8.490  -7.244   2.272  0.00  0.00    -0.284 N 
ATOM     22  H   UNL     1       8.262  -8.171   2.439  0.00  0.00    +0.155 HD
BRANCH  21  23
ATOM     23  C   UNL     1       9.829  -6.838   2.291  0.00  0.00    +0.036 A 
ATOM     24  C   UNL     1      10.730  -7.454   3.151  0.00  0.00    +0.023 A 
ATOM     25  C   UNL     1      12.052  -7.053   3.168  0.00  0.00    +0.005 A 
ATOM     26  C   UNL     1      12.479  -6.039   2.331  0.00  0.00    +0.038 A 
ATOM     27  C   UNL     1      11.585  -5.422   1.473  0.00  0.00    +0.125 A 
ATOM     28  C   UNL     1      10.261  -5.824   1.448  0.00  0.00    +0.061 A 
ATOM     29  F   UNL     1      12.005  -4.431   0.657  0.00  0.00    -0.205 F 
ENDBRANCH  21  23
ENDBRANCH  17  19
ENDBRANCH   3  17
TORSDOF 6
