REMARK  Name = ZINC05310602
REMARK  7 active torsions:
REMARK  status: ('A' for Active; 'I' for Inactive)
REMARK    1  A    between atoms: C_1  and  C_2
REMARK    2  A    between atoms: C_10  and  C_11
REMARK    3  A    between atoms: C_11  and  O_13
REMARK    4  A    between atoms: O_13  and  C_14
REMARK    5  A    between atoms: C_14  and  C_15
REMARK    6  A    between atoms: N_17  and  C_18
REMARK    7  A    between atoms: C_19  and  C_27
REMARK                            x       y       z     vdW  Elec       q    Type
REMARK                         _______ _______ _______ _____ _____    ______ ____
ROOT
ATOM      1  C   UNL     1       3.555   2.062  -0.021  0.00  0.00    +0.255 C 
ATOM      2  O   UNL     1       3.380   3.262  -0.013  0.00  0.00    -0.272 OA
ATOM      3  N   UNL     1       4.807   1.564  -0.035  0.00  0.00    -0.277 N 
ATOM      4  H   UNL     1       4.947   0.604  -0.042  0.00  0.00    +0.155 HD
ENDROOT
BRANCH   3   5
ATOM      5  C   UNL     1       5.895   2.423  -0.041  0.00  0.00    +0.084 A 
ATOM      6  C   UNL     1       7.246   2.104  -0.050  0.00  0.00    +0.068 A 
ATOM      7  C   UNL     1       8.195   3.204  -0.058  0.00  0.00    -0.023 A 
ATOM      8  C   UNL     1       7.646   4.438  -0.046  0.00  0.00    -0.004 A 
ATOM      9  S   UNL     1       5.899   4.156  -0.031  0.00  0.00    -0.077 S 
ATOM     10  C   UNL     1       8.370   5.749  -0.044  0.00  0.00    +0.043 C 
ATOM     11  C   UNL     1       9.840   5.489   0.320  0.00  0.00    +0.005 C 
ATOM     12  C   UNL     1      10.360   4.325  -0.529  0.00  0.00    +0.005 C 
ATOM     13  C   UNL     1       9.708   3.018  -0.073  0.00  0.00    +0.037 C 
BRANCH   6  14
ATOM     14  C   UNL     1       7.698   0.710  -0.056  0.00  0.00    +0.244 C 
ATOM     15  O   UNL     1       7.880   0.133  -1.112  0.00  0.00    -0.270 OA
ATOM     16  N   UNL     1       7.912   0.066   1.109  0.00  0.00    -0.325 N 
ATOM     17  H   UNL     1       7.768   0.526   1.951  0.00  0.00    +0.145 HD
ATOM     18  H   UNL     1       8.211  -0.856   1.106  0.00  0.00    +0.145 HD
ENDBRANCH   6  14
ENDBRANCH   3   5
BRANCH   1  19
ATOM     19  C   UNL     1       2.373   1.128  -0.015  0.00  0.00    +0.328 C 
BRANCH  19  20
ATOM     20  O   UNL     1       1.144   1.902   0.001  0.00  0.00    -0.450 OA
BRANCH  20  21
ATOM     21  C   UNL     1      -0.014   1.212   0.009  0.00  0.00    +0.376 C 
ATOM     22  O   UNL     1       0.002  -0.004   0.002  0.00  0.00    -0.241 OA
BRANCH  21  32
ATOM     23  C   UNL     1      -2.817  -0.137   0.003  0.00  0.00    +0.048 C 
ATOM     24  C   UNL     1      -2.521   1.340   0.016  0.00  0.00    +0.010 A 
ATOM     25  C   UNL     1      -3.494   2.432   0.031  0.00  0.00    +0.024 A 
ATOM     26  C   UNL     1      -4.890   2.492   0.036  0.00  0.00    +0.012 A 
ATOM     27  C   UNL     1      -5.515   3.707   0.046  0.00  0.00    +0.001 A 
ATOM     28  C   UNL     1      -4.773   4.880   0.049  0.00  0.00    +0.004 A 
ATOM     29  C   UNL     1      -3.395   4.842   0.043  0.00  0.00    +0.047 A 
ATOM     30  C   UNL     1      -2.736   3.618   0.034  0.00  0.00    +0.136 A 
ATOM     31  O   UNL     1      -1.435   3.271   0.026  0.00  0.00    -0.448 OA
ATOM     32  C   UNL     1      -1.296   1.928   0.019  0.00  0.00    +0.216 A 
ENDBRANCH  21  32
ENDBRANCH  20  21
ENDBRANCH  19  20
ENDBRANCH   1  19
TORSDOF 6
