REMARK  Name = ZINC01082379
REMARK  7 active torsions:
REMARK  status: ('A' for Active; 'I' for Inactive)
REMARK    1  A    between atoms: C_4  and  C_7
REMARK    2  A    between atoms: N_13  and  N_14
REMARK    3  A    between atoms: N_14  and  C_15
REMARK    4  A    between atoms: C_15  and  N_17
REMARK    5  A    between atoms: N_17  and  C_18
REMARK    6  A    between atoms: C_21  and  O_25
REMARK    7  A    between atoms: O_25  and  C_26
REMARK                            x       y       z     vdW  Elec       q    Type
REMARK                         _______ _______ _______ _____ _____    ______ ____
ROOT
ATOM      1  N   UNL     1       6.716  -1.808   1.678  0.00  0.00    -0.296 N 
ATOM      2  H   UNL     1       6.641  -2.239   0.812  0.00  0.00    +0.154 HD
ENDROOT
BRANCH   1   3
ATOM      3  C   UNL     1       7.814  -2.082   2.504  0.00  0.00    +0.034 A 
ATOM      4  C   UNL     1       9.093  -2.130   1.966  0.00  0.00    +0.027 A 
ATOM      5  C   UNL     1      10.176  -2.394   2.782  0.00  0.00    +0.049 A 
ATOM      6  C   UNL     1       9.985  -2.621   4.137  0.00  0.00    +0.147 A 
ATOM      7  C   UNL     1       8.706  -2.579   4.675  0.00  0.00    +0.085 A 
ATOM      8  C   UNL     1       7.622  -2.310   3.861  0.00  0.00    +0.047 A 
ATOM      9 CL   UNL     1       8.468  -2.865   6.370  0.00  0.00    -0.080 Cl
BRANCH   6  10
ATOM     10  O   UNL     1      11.051  -2.886   4.938  0.00  0.00    -0.455 OA
BRANCH  10  11
ATOM     11  C   UNL     1      12.295  -2.787   4.399  0.00  0.00    +0.129 A 
ATOM     12  C   UNL     1      13.004  -3.934   4.072  0.00  0.00    +0.048 A 
ATOM     13  C   UNL     1      14.266  -3.831   3.520  0.00  0.00    +0.023 A 
ATOM     14  C   UNL     1      14.827  -2.585   3.302  0.00  0.00    +0.041 A 
ATOM     15  C   UNL     1      14.123  -1.440   3.632  0.00  0.00    +0.023 A 
ATOM     16  C   UNL     1      12.859  -1.539   4.180  0.00  0.00    +0.048 A 
ATOM     17 CL   UNL     1      16.415  -2.458   2.613  0.00  0.00    -0.084 Cl
ENDBRANCH  10  11
ENDBRANCH   6  10
ENDBRANCH   1   3
BRANCH   1  18
ATOM     18  C   UNL     1       5.763  -0.947   2.087  0.00  0.00    +0.151 C 
ATOM     19  S   UNL     1       5.850  -0.252   3.648  0.00  0.00    -0.017 S 
BRANCH  18  20
ATOM     20  N   UNL     1       4.741  -0.634   1.265  0.00  0.00    -0.242 N 
ATOM     21  H   UNL     1       4.055  -0.014   1.559  0.00  0.00    +0.172 HD
BRANCH  20  26
ATOM     22  C   UNL     1       3.856  -2.253  -0.628  0.00  0.00    +0.154 C 
ATOM     23  C   UNL     1       4.578  -2.054  -1.960  0.00  0.00    +0.194 C 
ATOM     24  C   UNL     1       5.322  -1.007  -1.174  0.00  0.00    +0.252 C 
ATOM     25  O   UNL     1       6.211  -0.243  -1.483  0.00  0.00    -0.272 OA
ATOM     26  N   UNL     1       4.670  -1.203  -0.013  0.00  0.00    -0.211 N 
ATOM     27 CL   UNL     1       3.539  -1.395  -3.279  0.00  0.00    -0.109 Cl
BRANCH  22  31
ATOM     28  C   UNL     1      -0.295  -1.259  -0.808  0.00  0.00    +0.000 A 
ATOM     29  C   UNL     1       0.649  -0.260  -0.663  0.00  0.00    +0.000 A 
ATOM     30  C   UNL     1       1.993  -0.581  -0.606  0.00  0.00    +0.005 A 
ATOM     31  C   UNL     1       2.391  -1.902  -0.692  0.00  0.00    -0.023 A 
ATOM     32  C   UNL     1       1.447  -2.901  -0.837  0.00  0.00    +0.005 A 
ATOM     33  C   UNL     1       0.104  -2.579  -0.895  0.00  0.00    +0.000 A 
ENDBRANCH  22  31
ENDBRANCH  20  26
ENDBRANCH  18  20
ENDBRANCH   1  18
TORSDOF 7
