REMARK  Name = ZINC36704570
REMARK  5 active torsions:
REMARK  status: ('A' for Active; 'I' for Inactive)
REMARK    1  A    between atoms: C_1  and  C_2
REMARK    2  A    between atoms: C_3  and  C_11
REMARK    3  A    between atoms: C_7  and  N_8
REMARK    4  A    between atoms: C_19  and  S_23
REMARK    5  A    between atoms: S_23  and  C_24
REMARK                            x       y       z     vdW  Elec       q    Type
REMARK                         _______ _______ _______ _____ _____    ______ ____
ROOT
ATOM      1  C   UNL     1      -0.767  -0.165  -2.476  0.00  0.00    +0.250 C 
ATOM      2  O   UNL     1      -0.930   1.038  -2.531  0.00  0.00    -0.270 OA
ATOM      3  N   UNL     1      -0.958  -0.922  -3.575  0.00  0.00    -0.261 N 
ATOM      4  C   UNL     1      -1.339  -0.329  -4.767  0.00  0.00    +0.166 A 
ATOM      5  N   UNL     1      -1.556   0.939  -5.022  0.00  0.00    -0.225 NA
ATOM      6  C   UNL     1      -1.928   1.381  -6.245  0.00  0.00    +0.080 A 
ATOM      7  C   UNL     1      -2.192   2.711  -6.649  0.00  0.00    +0.030 A 
ATOM      8  C   UNL     1      -2.559   2.993  -7.926  0.00  0.00    +0.017 A 
ATOM      9  C   UNL     1      -2.691   1.992  -8.886  0.00  0.00    +0.009 A 
ATOM     10  C   UNL     1      -2.441   0.673  -8.527  0.00  0.00    +0.032 A 
ATOM     11  C   UNL     1      -2.069   0.385  -7.238  0.00  0.00    +0.042 A 
ATOM     12  S   UNL     1      -1.654  -1.097  -6.350  0.00  0.00    -0.052 S 
ATOM     13  H   UNL     1      -0.827  -1.883  -3.530  0.00  0.00    +0.157 HD
ENDROOT
BRANCH   1  16
ATOM     14  C   UNL     1      -0.619   1.431  -0.067  0.00  0.00    +0.047 C 
ATOM     15  C   UNL     1      -0.285  -0.038  -0.035  0.00  0.00    -0.008 A 
ATOM     16  C   UNL     1      -0.360  -0.798  -1.204  0.00  0.00    +0.042 A 
ATOM     17  C   UNL     1      -0.049  -2.158  -1.166  0.00  0.00    +0.013 A 
ATOM     18  C   UNL     1       0.331  -2.743   0.025  0.00  0.00    +0.003 A 
ATOM     19  C   UNL     1       0.403  -1.984   1.180  0.00  0.00    +0.033 A 
ATOM     20  C   UNL     1       0.100  -0.634   1.148  0.00  0.00    +0.130 A 
BRANCH  20  21
ATOM     21  N   UNL     1       0.186   0.172   2.387  0.00  0.00    +0.057 N 
ATOM     22  O   UNL     1       0.392  -0.371   3.447  0.00  0.00    -0.126 OA
ATOM     23  O   UNL     1       0.049   1.372   2.338  0.00  0.00    -0.126 OA
ENDBRANCH  20  21
ENDBRANCH   1  16
BRANCH   9  24
ATOM     24  S   UNL     1      -3.171   2.392 -10.534  0.00  0.00    -0.129 S 
ATOM     25  C   UNL     1      -3.378   4.194 -10.505  0.00  0.00    +0.090 C 
ENDBRANCH   9  24
TORSDOF 3
