REMARK  Name = ZINC12722154
REMARK  6 active torsions:
REMARK  status: ('A' for Active; 'I' for Inactive)
REMARK    1  A    between atoms: C_1  and  C_2
REMARK    2  A    between atoms: C_2  and  C_4
REMARK    3  A    between atoms: C_2  and  S_13
REMARK    4  A    between atoms: N_9  and  C_10
REMARK    5  A    between atoms: S_13  and  C_14
REMARK    6  A    between atoms: N_19  and  C_20
REMARK                            x       y       z     vdW  Elec       q    Type
REMARK                         _______ _______ _______ _____ _____    ______ ____
ROOT
ATOM      1  S   UNL     1      -1.394   2.413   0.022  0.00  0.00    -0.084 S 
ENDROOT
BRANCH   1   2
ATOM      2  C   UNL     1      -0.016   1.315   0.009  0.00  0.00    +0.161 A 
ATOM      3  N   UNL     1       0.002  -0.004   0.002  0.00  0.00    -0.133 NA
ATOM      4  N   UNL     1       1.205  -0.672  -0.013  0.00  0.00    -0.125 NA
ATOM      5  C   UNL     1       2.334   0.009  -0.020  0.00  0.00    +0.183 A 
ATOM      6  S   UNL     1       1.730   1.690  -0.005  0.00  0.00    -0.025 S 
ATOM      7  N   UNL     1       3.643  -0.457  -0.035  0.00  0.00    -0.319 N 
ATOM      8  H   UNL     1       4.382   0.172  -0.039  0.00  0.00    +0.148 HD
BRANCH   7   9
ATOM      9  C   UNL     1       3.908  -1.898  -0.044  0.00  0.00    +0.072 C 
ATOM     10  C   UNL     1       3.890  -2.429   1.391  0.00  0.00    +0.022 C 
ATOM     11  C   UNL     1       4.167  -3.933   1.381  0.00  0.00    +0.002 C 
ATOM     12  C   UNL     1       5.539  -4.196   0.757  0.00  0.00    +0.000 C 
ATOM     13  C   UNL     1       5.557  -3.665  -0.678  0.00  0.00    +0.002 C 
ATOM     14  C   UNL     1       5.280  -2.160  -0.668  0.00  0.00    +0.022 C 
ENDBRANCH   7   9
ENDBRANCH   1   2
BRANCH   1  16
ATOM     15  C   UNL     1      -2.861   0.509   1.328  0.00  0.00    +0.029 C 
ATOM     16  C   UNL     1      -2.834   1.310   0.024  0.00  0.00    +0.136 C 
BRANCH  16  17
ATOM     17  C   UNL     1      -4.094   2.129  -0.089  0.00  0.00    +0.233 C 
ATOM     18  O   UNL     1      -4.079   3.307   0.196  0.00  0.00    -0.274 OA
ATOM     19  N   UNL     1      -5.238   1.551  -0.507  0.00  0.00    -0.239 N 
ATOM     20  C   UNL     1      -6.365   2.283  -0.608  0.00  0.00    +0.306 C 
ATOM     21  O   UNL     1      -6.350   3.465  -0.322  0.00  0.00    -0.252 OA
ATOM     22  N   UNL     1      -7.508   1.706  -1.026  0.00  0.00    -0.296 N 
ATOM     23  H   UNL     1      -5.250   0.608  -0.735  0.00  0.00    +0.159 HD
ATOM     24  H   UNL     1      -7.520   0.763  -1.254  0.00  0.00    +0.151 HD
BRANCH  22  25
ATOM     25  C   UNL     1      -8.733   2.502  -1.136  0.00  0.00    +0.075 C 
ATOM     26  C   UNL     1     -10.029   1.881  -0.610  0.00  0.00    +0.024 C 
ATOM     27  C   UNL     1      -9.803   2.019  -2.117  0.00  0.00    +0.024 C 
ENDBRANCH  22  25
ENDBRANCH  16  17
ENDBRANCH   1  16
TORSDOF 5
