REMARK  Name = ZINC36050555
REMARK  12 active torsions:
REMARK  status: ('A' for Active; 'I' for Inactive)
REMARK    1  A    between atoms: C_1  and  C_2
REMARK    2  A    between atoms: C_3  and  C_25
REMARK    3  A    between atoms: C_4  and  C_19
REMARK    4  A    between atoms: C_7  and  C_12
REMARK    5  A    between atoms: C_13  and  N_15
REMARK    6  A    between atoms: N_15  and  C_16
REMARK    7  A    between atoms: C_16  and  C_17
REMARK    8  A    between atoms: C_16  and  C_18
REMARK    9  A    between atoms: C_25  and  O_27
REMARK   10  A    between atoms: O_27  and  C_28
REMARK   11  A    between atoms: C_28  and  C_29
REMARK   12  A    between atoms: C_28  and  C_30
REMARK                            x       y       z     vdW  Elec       q    Type
REMARK                         _______ _______ _______ _____ _____    ______ ____
ROOT
ATOM      1  C   UNL     1      -0.338   1.734  -0.002  0.00  0.00    +0.066 C 
ATOM      2  C   UNL     1      -0.237   0.232   0.070  0.00  0.00    +0.053 C 
ATOM      3  C   UNL     1      -1.387  -0.534   0.050  0.00  0.00    +0.082 C 
ATOM      4  C   UNL     1      -1.234  -2.037   0.124  0.00  0.00    +0.150 C 
ATOM      5  N   UNL     1       0.150  -2.573   0.213  0.00  0.00    -0.267 N 
ATOM      6  C   UNL     1       0.525  -3.900   0.289  0.00  0.00    +0.048 C 
ATOM      7  C   UNL     1       1.845  -4.175   0.363  0.00  0.00    +0.072 C 
ATOM      8  S   UNL     1       2.565  -2.546   0.324  0.00  0.00    -0.060 S 
ATOM      9  C   UNL     1       1.153  -1.644   0.218  0.00  0.00    +0.166 C 
ATOM     10  N   UNL     1       0.951  -0.344   0.146  0.00  0.00    -0.230 NA
ENDROOT
BRANCH   4  11
ATOM     11  C   UNL     1      -1.883  -2.630  -1.099  0.00  0.00    -0.022 A 
ATOM     12  C   UNL     1      -1.265  -2.521  -2.331  0.00  0.00    +0.006 A 
ATOM     13  C   UNL     1      -1.860  -3.065  -3.454  0.00  0.00    +0.000 A 
ATOM     14  C   UNL     1      -3.073  -3.719  -3.345  0.00  0.00    +0.000 A 
ATOM     15  C   UNL     1      -3.691  -3.829  -2.113  0.00  0.00    +0.000 A 
ATOM     16  C   UNL     1      -3.094  -3.289  -0.990  0.00  0.00    +0.006 A 
ENDBRANCH   4  11
BRANCH   6  17
ATOM     17  C   UNL     1      -0.478  -4.975   0.291  0.00  0.00    +0.091 C 
ATOM     18  C   UNL     1      -0.100  -6.248   0.514  0.00  0.00    +0.239 C 
ATOM     19  O   UNL     1       1.179  -6.523   0.866  0.00  0.00    -0.271 OA
BRANCH  18  20
ATOM     20  N   UNL     1      -1.019  -7.276   0.383  0.00  0.00    -0.309 N 
ATOM     21  H   UNL     1      -1.951  -7.074   0.204  0.00  0.00    +0.149 HD
BRANCH  20  22
ATOM     22  C   UNL     1      -0.584  -8.668   0.515  0.00  0.00    +0.067 C 
ATOM     23  C   UNL     1      -0.643  -9.084   1.986  0.00  0.00    +0.027 C 
ATOM     24  C   UNL     1      -1.505  -9.571  -0.307  0.00  0.00    +0.027 C 
ENDBRANCH  20  22
ENDBRANCH  18  20
ENDBRANCH   6  17
BRANCH   3  25
ATOM     25  C   UNL     1      -2.651   0.061  -0.035  0.00  0.00    +0.339 C 
ATOM     26  O   UNL     1      -2.751   1.274  -0.093  0.00  0.00    -0.245 OA
BRANCH  25  27
ATOM     27  O   UNL     1      -3.761  -0.710  -0.052  0.00  0.00    -0.459 OA
BRANCH  27  28
ATOM     28  C   UNL     1      -5.018  -0.036  -0.141  0.00  0.00    +0.171 C 
ATOM     29  C   UNL     1      -5.400   0.141  -1.612  0.00  0.00    +0.052 C 
ATOM     30  C   UNL     1      -6.092  -0.864   0.569  0.00  0.00    +0.052 C 
ENDBRANCH  27  28
ENDBRANCH  25  27
ENDBRANCH   3  25
TORSDOF 7
