REMARK  Name = ZINC02452451
REMARK  7 active torsions:
REMARK  status: ('A' for Active; 'I' for Inactive)
REMARK    1  A    between atoms: C_1  and  C_2
REMARK    2  A    between atoms: C_5  and  N_9
REMARK    3  A    between atoms: C_6  and  C_8
REMARK    4  A    between atoms: C_16  and  S_18
REMARK    5  A    between atoms: S_18  and  C_19
REMARK    6  A    between atoms: C_19  and  C_20
REMARK    7  A    between atoms: N_22  and  C_23
REMARK                            x       y       z     vdW  Elec       q    Type
REMARK                         _______ _______ _______ _____ _____    ______ ____
ROOT
ATOM      1  N   UNL     1       7.730   4.121  -0.166  0.00  0.00    -0.281 N 
ATOM      2  C   UNL     1       7.549   2.960   0.544  0.00  0.00    +0.161 A 
ATOM      3  C   UNL     1       8.688   2.428   1.152  0.00  0.00    +0.122 A 
ATOM      4  C   UNL     1       8.642   1.259   1.899  0.00  0.00    +0.268 A 
ATOM      5  O   UNL     1       9.650   0.810   2.422  0.00  0.00    -0.267 OA
ATOM      6  N   UNL     1       7.450   0.628   2.032  0.00  0.00    -0.301 N 
ATOM      7  H   UNL     1       7.381  -0.300   2.617  0.00  0.00    +0.171 HD
ATOM      8  C   UNL     1       6.351   1.165   1.430  0.00  0.00    +0.172 A 
ATOM      9  N   UNL     1       6.398   2.265   0.721  0.00  0.00    -0.204 NA
ATOM     10  S   UNL     1       9.962   3.578   0.702  0.00  0.00    -0.055 S 
ATOM     11  C   UNL     1       8.947   4.694  -0.256  0.00  0.00    +0.132 A 
ATOM     12  S   UNL     1       9.404   6.125  -1.078  0.00  0.00    -0.024 S 
ENDROOT
BRANCH   1  17
ATOM     13  C   UNL     1       3.298   6.537  -2.759  0.00  0.00    +0.044 C 
ATOM     14  C   UNL     1       4.475   5.895  -2.070  0.00  0.00    -0.050 A 
ATOM     15  C   UNL     1       4.785   6.241  -0.768  0.00  0.00    +0.005 A 
ATOM     16  C   UNL     1       5.859   5.651  -0.132  0.00  0.00    +0.027 A 
ATOM     17  C   UNL     1       6.636   4.717  -0.806  0.00  0.00    +0.052 A 
ATOM     18  C   UNL     1       6.322   4.372  -2.114  0.00  0.00    -0.026 A 
ATOM     19  C   UNL     1       5.243   4.962  -2.742  0.00  0.00    +0.008 A 
ATOM     20  C   UNL     1       7.158   3.355  -2.847  0.00  0.00    +0.046 C 
ENDBRANCH   1  17
BRANCH   8  21
ATOM     21  S   UNL     1       4.804   0.339   1.606  0.00  0.00    -0.078 S 
BRANCH  21  22
ATOM     22  C   UNL     1       3.745   1.447   0.644  0.00  0.00    +0.173 C 
BRANCH  22  23
ATOM     23  C   UNL     1       2.331   0.926   0.654  0.00  0.00    +0.224 C 
ATOM     24  O   UNL     1       2.066  -0.095   1.254  0.00  0.00    -0.275 OA
ATOM     25  N   UNL     1       1.362   1.593  -0.002  0.00  0.00    -0.312 N 
ATOM     26  H   UNL     1       1.602   2.518  -0.546  0.00  0.00    +0.149 HD
BRANCH  25  27
ATOM     27  C   UNL     1      -0.013   1.086   0.008  0.00  0.00    +0.073 C 
ATOM     28  C   UNL     1      -0.729   1.579   1.267  0.00  0.00    +0.022 C 
ATOM     29  C   UNL     1      -2.164   1.050   1.278  0.00  0.00    +0.002 C 
ATOM     30  C   UNL     1      -2.904   1.556   0.038  0.00  0.00    +0.000 C 
ATOM     31  C   UNL     1      -2.188   1.063  -1.221  0.00  0.00    +0.002 C 
ATOM     32  C   UNL     1      -0.753   1.593  -1.232  0.00  0.00    +0.022 C 
ENDBRANCH  25  27
ENDBRANCH  22  23
ENDBRANCH  21  22
ENDBRANCH   8  21
TORSDOF 5
