REMARK  Name = ZINC39710806
REMARK  10 active torsions:
REMARK  status: ('A' for Active; 'I' for Inactive)
REMARK    1  A    between atoms: C_1  and  C_2
REMARK    2  A    between atoms: C_8  and  C_14
REMARK    3  A    between atoms: C_14  and  C_16
REMARK    4  A    between atoms: C_14  and  N_26
REMARK    5  A    between atoms: N_21  and  C_22
REMARK    6  A    between atoms: C_22  and  C_23
REMARK    7  A    between atoms: C_22  and  C_24
REMARK    8  A    between atoms: C_22  and  C_25
REMARK    9  A    between atoms: N_29  and  C_32
REMARK   10  A    between atoms: C_35  and  N_38
REMARK                            x       y       z     vdW  Elec       q    Type
REMARK                         _______ _______ _______ _____ _____    ______ ____
ROOT
ATOM      1  C   UNL     1      -1.150  -2.490   4.342  0.00  0.00    -0.009 C 
ENDROOT
BRANCH   1   9
ATOM      2  C   UNL     1       0.441   0.642  -0.692  0.00  0.00    +0.045 C 
ATOM      3  C   UNL     1       0.273  -0.836  -0.448  0.00  0.00    -0.029 A 
ATOM      4  C   UNL     1       0.174  -1.686  -1.503  0.00  0.00    +0.005 A 
ATOM      5  C   UNL     1       0.018  -3.064  -1.347  0.00  0.00    +0.001 A 
ATOM      6  C   UNL     1      -0.045  -3.634  -0.116  0.00  0.00    +0.009 A 
ATOM      7  C   UNL     1       0.055  -2.775   1.065  0.00  0.00    -0.007 A 
ATOM      8  C   UNL     1      -0.003  -3.303   2.320  0.00  0.00    -0.006 C 
ATOM      9  C   UNL     1       0.109  -2.340   3.486  0.00  0.00    +0.088 C 
ATOM     10  C   UNL     1       0.276  -0.872   3.160  0.00  0.00    +0.223 C 
ATOM     11  O   UNL     1       0.371  -0.055   4.057  0.00  0.00    -0.275 OA
ATOM     12  N   UNL     1       0.318  -0.481   1.898  0.00  0.00    -0.284 N 
ATOM     13  C   UNL     1       0.225  -1.325   0.871  0.00  0.00    +0.043 A 
ATOM     14  H   UNL     1       0.425   0.465   1.711  0.00  0.00    +0.155 HD
ENDBRANCH   1   9
BRANCH   1  15
ATOM     15  N   UNL     1      -1.016  -1.675   5.557  0.00  0.00    +0.387 N 
ATOM     16  C   UNL     1       0.261  -1.985   6.213  0.00  0.00    -0.059 C 
ATOM     17  C   UNL     1       0.454  -1.056   7.416  0.00  0.00    +0.086 C 
ATOM     18  N   UNL     1      -0.723  -1.174   8.291  0.00  0.00    -0.333 N 
ATOM     19  C   UNL     1      -2.055  -1.040   7.682  0.00  0.00    +0.086 C 
ATOM     20  C   UNL     1      -2.130  -1.970   6.467  0.00  0.00    -0.059 C 
ATOM     21  H   UNL     1      -1.035  -0.698   5.309  0.00  0.00    -0.081 HD
BRANCH  18  22
ATOM     22  C   UNL     1      -0.579  -1.407   9.660  0.00  0.00    +0.030 A 
ATOM     23  C   UNL     1       0.685  -1.415  10.236  0.00  0.00    +0.025 A 
ATOM     24  C   UNL     1       0.824  -1.645  11.591  0.00  0.00    +0.034 A 
ATOM     25  C   UNL     1      -0.294  -1.868  12.374  0.00  0.00    +0.126 A 
ATOM     26  C   UNL     1      -1.554  -1.861  11.804  0.00  0.00    +0.034 A 
ATOM     27  C   UNL     1      -1.700  -1.626  10.451  0.00  0.00    +0.025 A 
BRANCH  25  28
ATOM     28  N   UNL     1      -0.142  -2.115  13.825  0.00  0.00    +0.056 N 
ATOM     29  O   UNL     1       0.959  -2.122  14.325  0.00  0.00    -0.126 OA
ATOM     30  O   UNL     1      -1.118  -2.310  14.511  0.00  0.00    -0.126 OA
ENDBRANCH  25  28
ENDBRANCH  18  22
ENDBRANCH   1  15
BRANCH   1  31
ATOM     31  C   UNL     1      -2.368  -2.020   3.544  0.00  0.00    +0.205 C 
ATOM     32  N   UNL     1      -2.361  -0.557   3.412  0.00  0.00    -0.152 NA
ATOM     33  N   UNL     1      -3.373  -0.103   3.950  0.00  0.00    -0.070 NA
ATOM     34  N   UNL     1      -4.186  -1.093   4.500  0.00  0.00    -0.179 N 
ATOM     35  N   UNL     1      -3.614  -2.322   4.280  0.00  0.00    -0.183 NA
ATOM     36  H   UNL     1      -5.023  -0.939   4.965  0.00  0.00    +0.191 HD
BRANCH  35  37
ATOM     37  C   UNL     1      -4.500  -3.182   3.484  0.00  0.00    +0.035 C 
ATOM     38  C   UNL     1      -3.771  -4.482   3.136  0.00  0.00    +0.029 C 
ATOM     39  C   UNL     1      -5.759  -3.504   4.292  0.00  0.00    +0.029 C 
ATOM     40  C   UNL     1      -4.892  -2.457   2.195  0.00  0.00    +0.029 C 
ENDBRANCH  35  37
ENDBRANCH   1  31
TORSDOF 6
