REMARK  Name = CHEMBL358281
REMARK  6 active torsions:
REMARK  status: ('A' for Active; 'I' for Inactive)
REMARK    1  A    between atoms: C_1  and  O_2
REMARK    2  A    between atoms: O_2  and  C_3
REMARK    3  A    between atoms: C_6  and  C_9
REMARK    4  A    between atoms: C_19  and  N_23
REMARK    5  A    between atoms: N_26  and  C_27
REMARK    6  A    between atoms: C_27  and  C_28
REMARK                            x       y       z     vdW  Elec       q    Type
REMARK                         _______ _______ _______ _____ _____    ______ ____
ROOT
ATOM      1  C   UNL     1       2.486  -2.506  -4.390  0.00  0.00    +0.104 A 
ATOM      2  C   UNL     1       3.225  -3.713  -4.346  0.00  0.00    +0.075 A 
ATOM      3  C   UNL     1       3.658  -3.980  -5.638  0.00  0.00    +0.078 A 
ATOM      4  N   UNL     1       3.202  -2.983  -6.427  0.00  0.00    -0.276 N 
ATOM      5  N   UNL     1       2.475  -2.085  -5.638  0.00  0.00    -0.173 NA
ATOM      6  H   UNL     1       3.351  -2.905  -7.383  0.00  0.00    +0.189 HD
ATOM      7  C   UNL     1       4.439  -5.240  -5.632  0.00  0.00    +0.013 A 
ATOM      8  C   UNL     1       5.082  -5.939  -6.643  0.00  0.00    +0.011 A 
ATOM      9  C   UNL     1       5.756  -7.119  -6.356  0.00  0.00    +0.002 A 
ATOM     10  C   UNL     1       5.795  -7.609  -5.070  0.00  0.00    +0.024 A 
ATOM     11  C   UNL     1       5.154  -6.921  -4.037  0.00  0.00    +0.046 A 
ATOM     12  C   UNL     1       4.475  -5.735  -4.315  0.00  0.00    +0.053 A 
ATOM     13  C   UNL     1       3.714  -4.793  -3.464  0.00  0.00    +0.200 C 
ATOM     14  O   UNL     1       3.526  -4.889  -2.268  0.00  0.00    -0.286 OA
ENDROOT
BRANCH   1  18
ATOM     15  C   UNL     1       0.616  -0.592  -1.086  0.00  0.00    +0.120 A 
ATOM     16  C   UNL     1       1.178   0.170  -2.101  0.00  0.00    +0.046 A 
ATOM     17  C   UNL     1       1.785  -0.447  -3.174  0.00  0.00    +0.013 A 
ATOM     18  C   UNL     1       1.835  -1.839  -3.238  0.00  0.00    +0.003 A 
ATOM     19  C   UNL     1       1.270  -2.603  -2.217  0.00  0.00    +0.013 A 
ATOM     20  C   UNL     1       0.669  -1.979  -1.144  0.00  0.00    +0.046 A 
BRANCH  15  22
ATOM     21  C   UNL     1      -0.001   1.448  -0.034  0.00  0.00    +0.277 C 
ATOM     22  O   UNL     1       0.018   0.019  -0.030  0.00  0.00    -0.495 OA
ENDBRANCH  15  22
ENDBRANCH   1  18
BRANCH  11  23
ATOM     23  N   UNL     1       5.193  -7.416  -2.738  0.00  0.00    -0.269 N 
ATOM     24  C   UNL     1       6.202  -8.223  -2.355  0.00  0.00    +0.304 C 
ATOM     25  O   UNL     1       7.130  -8.437  -3.111  0.00  0.00    -0.252 OA
ATOM     26  N   UNL     1       6.182  -8.794  -1.134  0.00  0.00    -0.295 N 
ATOM     27  H   UNL     1       4.495  -7.180  -2.108  0.00  0.00    +0.156 HD
ATOM     28  H   UNL     1       5.441  -8.623  -0.531  0.00  0.00    +0.151 HD
BRANCH  26  29
ATOM     29  C   UNL     1       7.278  -9.672  -0.718  0.00  0.00    +0.141 C 
BRANCH  29  30
ATOM     30  C   UNL     1       7.015 -10.176   0.678  0.00  0.00    -0.030 A 
ATOM     31  C   UNL     1       7.474  -9.461   1.769  0.00  0.00    +0.005 A 
ATOM     32  C   UNL     1       7.233  -9.923   3.049  0.00  0.00    +0.000 A 
ATOM     33  C   UNL     1       6.533 -11.100   3.239  0.00  0.00    +0.000 A 
ATOM     34  C   UNL     1       6.074 -11.815   2.148  0.00  0.00    +0.000 A 
ATOM     35  C   UNL     1       6.311 -11.350   0.868  0.00  0.00    +0.005 A 
ENDBRANCH  29  30
ENDBRANCH  26  29
ENDBRANCH  11  23
TORSDOF 5
