REMARK  Name = CHEMBL271595
REMARK  4 active torsions:
REMARK  status: ('A' for Active; 'I' for Inactive)
REMARK    1  A    between atoms: C_3  and  S_22
REMARK    2  A    between atoms: C_6  and  N_7
REMARK    3  A    between atoms: N_7  and  C_8
REMARK    4  A    between atoms: S_22  and  N_25
REMARK                            x       y       z     vdW  Elec       q    Type
REMARK                         _______ _______ _______ _____ _____    ______ ____
ROOT
ATOM      1  C   UNL     1      -1.177  -2.083   0.003  0.00  0.00    +0.085 C 
ATOM      2  C   UNL     1      -2.344  -2.783   0.114  0.00  0.00    +0.061 C 
ATOM      3  C   UNL     1      -3.722  -2.239   0.141  0.00  0.00    +0.025 A 
ATOM      4  C   UNL     1      -4.575  -3.342   0.266  0.00  0.00    +0.043 A 
ATOM      5  C   UNL     1      -5.952  -3.123   0.318  0.00  0.00    +0.026 A 
ATOM      6  C   UNL     1      -6.480  -1.873   0.250  0.00  0.00    +0.031 A 
ATOM      7  C   UNL     1      -5.651  -0.736   0.124  0.00  0.00    +0.079 A 
ATOM      8  C   UNL     1      -4.259  -0.966   0.072  0.00  0.00    +0.049 A 
ATOM      9  S   UNL     1      -3.618   0.680  -0.084  0.00  0.00    -0.075 S 
ATOM     10  C   UNL     1      -5.084   1.506  -0.073  0.00  0.00    +0.157 A 
ATOM     11  N   UNL     1      -5.981   0.570   0.042  0.00  0.00    -0.247 NA
ATOM     12  N   UNL     1      -3.816  -4.505   0.316  0.00  0.00    -0.281 N 
ATOM     13  C   UNL     1      -2.503  -4.237   0.225  0.00  0.00    +0.250 C 
ATOM     14  O   UNL     1      -1.602  -5.058   0.235  0.00  0.00    -0.270 OA
ATOM     15  H   UNL     1      -4.188  -5.397   0.402  0.00  0.00    +0.155 HD
ENDROOT
BRANCH   1  16
ATOM     16  N   UNL     1      -1.181  -0.727   0.138  0.00  0.00    -0.320 N 
ATOM     17  H   UNL     1      -1.994  -0.269   0.405  0.00  0.00    +0.152 HD
BRANCH  16  23
ATOM     18  C   UNL     1      -0.018   1.385   0.031  0.00  0.00    +0.025 A 
ATOM     19  C   UNL     1       1.136   2.104  -0.212  0.00  0.00    +0.030 A 
ATOM     20  C   UNL     1       2.293   1.449  -0.593  0.00  0.00    +0.105 A 
ATOM     21  C   UNL     1       2.299   0.073  -0.731  0.00  0.00    +0.030 A 
ATOM     22  C   UNL     1       1.148  -0.652  -0.490  0.00  0.00    +0.025 A 
ATOM     23  C   UNL     1      -0.016   0.003  -0.107  0.00  0.00    +0.031 A 
BRANCH  20  24
ATOM     24  S   UNL     1       3.763   2.370  -0.902  0.00  0.00    +0.056 S 
ATOM     25  O   UNL     1       4.562   1.579  -1.771  0.00  0.00    -0.153 OA
ATOM     26  O   UNL     1       3.354   3.690  -1.233  0.00  0.00    -0.153 OA
BRANCH  24  27
ATOM     27  N   UNL     1       4.586   2.475   0.532  0.00  0.00    -0.204 NA
ATOM     28  H   UNL     1       4.222   2.062   1.331  0.00  0.00    +0.144 HD
ATOM     29  H   UNL     1       5.431   2.949   0.572  0.00  0.00    +0.144 HD
ENDBRANCH  24  27
ENDBRANCH  20  24
ENDBRANCH  16  23
ENDBRANCH   1  16
TORSDOF 4
