REMARK  Name = CHEMBL1094488
REMARK  5 active torsions:
REMARK  status: ('A' for Active; 'I' for Inactive)
REMARK    1  A    between atoms: C_1  and  N_2
REMARK    2  A    between atoms: C_5  and  C_7
REMARK    3  A    between atoms: N_18  and  C_19
REMARK    4  A    between atoms: C_24  and  C_25
REMARK    5  A    between atoms: C_25  and  C_26
REMARK                            x       y       z     vdW  Elec       q    Type
REMARK                         _______ _______ _______ _____ _____    ______ ____
ROOT
ATOM      1  C   UNL     1      -0.802   1.621  -0.123  0.00  0.00    +0.173 C 
ATOM      2  N   UNL     1      -0.755   0.158  -0.070  0.00  0.00    -0.264 N 
ATOM      3  C   UNL     1      -0.551  -0.650  -1.128  0.00  0.00    +0.091 A 
ATOM      4  C   UNL     1      -0.556  -1.944  -0.653  0.00  0.00    +0.012 A 
ATOM      5  C   UNL     1      -0.794  -1.842   0.718  0.00  0.00    +0.151 A 
ATOM      6  N   UNL     1      -0.898  -0.551   0.999  0.00  0.00    -0.166 NA
ATOM      7  C   UNL     1      -0.320  -3.131  -1.542  0.00  0.00    +0.044 C 
ATOM      8  C   UNL     1      -0.849  -2.838  -2.946  0.00  0.00    +0.043 C 
ATOM      9  C   UNL     1      -0.451  -1.477  -3.438  0.00  0.00    -0.001 A 
ATOM     10  C   UNL     1      -0.326  -0.391  -2.560  0.00  0.00    +0.097 A 
ATOM     11  N   UNL     1      -0.010   0.806  -3.031  0.00  0.00    -0.212 NA
ATOM     12  C   UNL     1       0.210   0.974  -4.329  0.00  0.00    +0.220 A 
ATOM     13  N   UNL     1       0.124  -0.036  -5.183  0.00  0.00    -0.222 NA
ATOM     14  C   UNL     1      -0.200  -1.256  -4.780  0.00  0.00    +0.120 A 
ATOM     15  N   UNL     1       0.537   2.234  -4.802  0.00  0.00    -0.283 N 
ATOM     16  H   UNL     1       0.688   2.962  -4.179  0.00  0.00    +0.155 HD
ENDROOT
BRANCH  15  17
ATOM     17  C   UNL     1       0.650   2.456  -6.178  0.00  0.00    +0.037 A 
ATOM     18  C   UNL     1      -0.149   1.746  -7.066  0.00  0.00    +0.023 A 
ATOM     19  C   UNL     1      -0.035   1.968  -8.424  0.00  0.00    +0.002 A 
ATOM     20  C   UNL     1       0.872   2.897  -8.900  0.00  0.00    +0.000 A 
ATOM     21  C   UNL     1       1.669   3.605  -8.020  0.00  0.00    +0.006 A 
ATOM     22  C   UNL     1       1.556   3.391  -6.660  0.00  0.00    -0.022 A 
BRANCH  22  23
ATOM     23  C   UNL     1       2.420   4.168  -5.700  0.00  0.00    +0.072 C 
BRANCH  23  24
ATOM     24  C   UNL     1       3.650   3.363  -5.366  0.00  0.00    -0.043 A 
ATOM     25  C   UNL     1       3.635   2.492  -4.293  0.00  0.00    +0.004 A 
ATOM     26  C   UNL     1       4.762   1.753  -3.987  0.00  0.00    +0.000 A 
ATOM     27  C   UNL     1       5.905   1.886  -4.754  0.00  0.00    +0.000 A 
ATOM     28  C   UNL     1       5.920   2.757  -5.827  0.00  0.00    +0.000 A 
ATOM     29  C   UNL     1       4.790   3.492  -6.136  0.00  0.00    +0.004 A 
ENDBRANCH  23  24
ENDBRANCH  22  23
ENDBRANCH  15  17
BRANCH   5  30
ATOM     30  C   UNL     1      -0.905  -2.961   1.675  0.00  0.00    +0.262 C 
ATOM     31  O   UNL     1      -0.786  -4.107   1.288  0.00  0.00    -0.269 OA
ATOM     32  N   UNL     1      -1.138  -2.712   2.979  0.00  0.00    -0.324 N 
ATOM     33  H   UNL     1      -1.234  -1.797   3.289  0.00  0.00    +0.145 HD
ATOM     34  H   UNL     1      -1.211  -3.447   3.608  0.00  0.00    +0.145 HD
ENDBRANCH   5  30
TORSDOF 4
