REMARK  Name = CHEMBL193210
REMARK  6 active torsions:
REMARK  status: ('A' for Active; 'I' for Inactive)
REMARK    1  A    between atoms: C_1  and  C_2
REMARK    2  A    between atoms: C_2  and  C_3
REMARK    3  A    between atoms: C_2  and  C_15
REMARK    4  A    between atoms: C_6  and  N_9
REMARK    5  A    between atoms: N_17  and  C_18
REMARK    6  A    between atoms: C_20  and  C_24
REMARK                            x       y       z     vdW  Elec       q    Type
REMARK                         _______ _______ _______ _____ _____    ______ ____
ROOT
ATOM      1  C   UNL     1      -0.019   1.526   0.010  0.00  0.00    +0.022 C 
ATOM      2  C   UNL     1       0.002  -0.004   0.002  0.00  0.00    +0.102 C 
ENDROOT
BRANCH   2   3
ATOM      3  C   UNL     1       0.731  -0.503   1.223  0.00  0.00    -0.036 A 
ATOM      4  C   UNL     1       2.050  -0.147   1.433  0.00  0.00    +0.006 A 
ATOM      5  C   UNL     1       2.721  -0.603   2.550  0.00  0.00    +0.026 A 
ATOM      6  C   UNL     1       2.069  -1.419   3.465  0.00  0.00    +0.051 A 
ATOM      7  C   UNL     1       0.744  -1.775   3.252  0.00  0.00    +0.026 A 
ATOM      8  C   UNL     1       0.077  -1.312   2.134  0.00  0.00    +0.006 A 
BRANCH   6   9
ATOM      9  N   UNL     1       2.747  -1.884   4.599  0.00  0.00    -0.268 N 
ATOM     10  C   UNL     1       4.064  -1.602   4.936  0.00  0.00    +0.114 A 
ATOM     11  C   UNL     1       4.336  -2.224   6.078  0.00  0.00    +0.105 A 
ATOM     12  N   UNL     1       3.195  -2.905   6.475  0.00  0.00    -0.313 N 
ATOM     13  C   UNL     1       2.233  -2.678   5.559  0.00  0.00    +0.331 A 
ATOM     14  O   UNL     1       1.097  -3.117   5.591  0.00  0.00    -0.246 OA
ATOM     15  H   UNL     1       3.104  -3.446   7.275  0.00  0.00    +0.170 HD
ENDBRANCH   6   9
ENDBRANCH   2   3
BRANCH   2  16
ATOM     16  C   UNL     1       0.707  -0.490  -1.238  0.00  0.00    +0.225 C 
ATOM     17  O   UNL     1       1.704  -1.175  -1.140  0.00  0.00    -0.275 OA
ATOM     18  N   UNL     1       0.231  -0.164  -2.456  0.00  0.00    -0.270 N 
ATOM     19  H   UNL     1      -0.566   0.383  -2.534  0.00  0.00    +0.156 HD
BRANCH  18  20
ATOM     20  C   UNL     1       0.884  -0.614  -3.603  0.00  0.00    +0.121 A 
ATOM     21  C   UNL     1       2.005  -1.384  -3.641  0.00  0.00    +0.068 A 
ATOM     22  C   UNL     1       2.326  -1.608  -4.982  0.00  0.00    +0.068 A 
ATOM     23  N   UNL     1       1.438  -0.999  -5.725  0.00  0.00    -0.177 NA
ATOM     24  H   UNL     1      -0.254   0.153  -5.163  0.00  0.00    +0.190 HD
ATOM     25  N   UNL     1       0.514  -0.369  -4.881  0.00  0.00    -0.264 N 
BRANCH  22  26
ATOM     26  C   UNL     1       3.497  -2.412  -5.488  0.00  0.00    +0.040 C 
ATOM     27  C   UNL     1       4.623  -2.719  -4.498  0.00  0.00    +0.010 C 
ATOM     28  C   UNL     1       4.843  -1.696  -5.615  0.00  0.00    +0.010 C 
ENDBRANCH  22  26
ENDBRANCH  18  20
ENDBRANCH   2  16
TORSDOF 5
