REMARK  Name = CHEMBL186240
REMARK  3 active torsions:
REMARK  status: ('A' for Active; 'I' for Inactive)
REMARK    1  A    between atoms: C_7  and  C_11
REMARK    2  A    between atoms: C_11  and  C_12
REMARK    3  A    between atoms: C_18  and  C_20
REMARK                            x       y       z     vdW  Elec       q    Type
REMARK                         _______ _______ _______ _____ _____    ______ ____
ROOT
ATOM      1  C   UNL     1       0.242  -3.584  -1.434  0.00  0.00    +0.223 C 
ATOM      2  O   UNL     1       0.660  -2.912  -2.353  0.00  0.00    -0.275 OA
ATOM      3  N   UNL     1      -0.601  -4.607  -1.676  0.00  0.00    -0.264 N 
ATOM      4  C   UNL     1      -0.992  -4.892  -2.979  0.00  0.00    +0.165 A 
ATOM      5  N   UNL     1      -0.640  -4.282  -4.090  0.00  0.00    -0.233 NA
ATOM      6  C   UNL     1      -1.103  -4.677  -5.261  0.00  0.00    +0.124 A 
ATOM      7  C   UNL     1      -1.952  -5.734  -5.264  0.00  0.00    +0.014 A 
ATOM      8  S   UNL     1      -2.025  -6.106  -3.519  0.00  0.00    -0.057 S 
ATOM      9  H   UNL     1      -0.935  -5.145  -0.941  0.00  0.00    +0.157 HD
ENDROOT
BRANCH   7  10
ATOM     10  C   UNL     1      -2.641  -6.411  -6.421  0.00  0.00    +0.027 C 
ATOM     11  C   UNL     1      -4.074  -6.869  -6.102  0.00  0.00    +0.009 C 
ATOM     12  C   UNL     1      -3.762  -8.142  -6.906  0.00  0.00    +0.001 C 
ATOM     13  C   UNL     1      -2.282  -7.899  -6.566  0.00  0.00    +0.009 C 
ENDBRANCH   7  10
BRANCH   1  14
ATOM     14  C   UNL     1       0.666  -3.275  -0.021  0.00  0.00    +0.133 C 
BRANCH  14  21
ATOM     15  C   UNL     1      -0.017   1.362   0.009  0.00  0.00    +0.001 A 
ATOM     16  C   UNL     1       1.170   2.083   0.002  0.00  0.00    +0.002 A 
ATOM     17  C   UNL     1       2.386   1.436  -0.013  0.00  0.00    +0.026 A 
ATOM     18  C   UNL     1       2.428   0.046  -0.021  0.00  0.00    +0.047 A 
ATOM     19  C   UNL     1       1.223  -0.681  -0.013  0.00  0.00    +0.003 A 
ATOM     20  C   UNL     1       0.002  -0.004   0.002  0.00  0.00    +0.010 A 
ATOM     21  C   UNL     1       1.604  -2.095  -0.025  0.00  0.00    -0.014 A 
ATOM     22  C   UNL     1       2.945  -2.141  -0.038  0.00  0.00    +0.087 A 
ATOM     23  N   UNL     1       3.455  -0.871  -0.036  0.00  0.00    -0.360 N 
ATOM     24  H   UNL     1       4.399  -0.650  -0.044  0.00  0.00    +0.165 HD
ENDBRANCH  14  21
ENDBRANCH   1  14
TORSDOF 3
