REMARK  Name = CHEMBL185255
REMARK  7 active torsions:
REMARK  status: ('A' for Active; 'I' for Inactive)
REMARK    1  A    between atoms: C_1  and  O_2
REMARK    2  A    between atoms: O_2  and  C_3
REMARK    3  A    between atoms: C_6  and  C_9
REMARK    4  A    between atoms: C_19  and  N_23
REMARK    5  A    between atoms: N_26  and  N_27
REMARK    6  A    between atoms: C_28  and  C_30
REMARK    7  A    between atoms: C_35  and  O_36
REMARK                            x       y       z     vdW  Elec       q    Type
REMARK                         _______ _______ _______ _____ _____    ______ ____
ROOT
ATOM      1  C   UNL     1       2.502  -2.486  -4.385  0.00  0.00    +0.077 A 
ATOM      2  C   UNL     1       2.003  -3.560  -5.109  0.00  0.00    +0.075 A 
ATOM      3  C   UNL     1       2.987  -3.853  -6.154  0.00  0.00    +0.105 A 
ATOM      4  N   UNL     1       3.967  -2.995  -6.018  0.00  0.00    -0.173 NA
ATOM      5  N   UNL     1       3.696  -2.142  -4.944  0.00  0.00    -0.276 N 
ATOM      6  H   UNL     1       4.268  -1.418  -4.644  0.00  0.00    +0.189 HD
ATOM      7  C   UNL     1       2.473  -5.001  -6.942  0.00  0.00    +0.015 A 
ATOM      8  C   UNL     1       2.999  -5.679  -8.035  0.00  0.00    +0.011 A 
ATOM      9  C   UNL     1       2.308  -6.739  -8.598  0.00  0.00    +0.002 A 
ATOM     10  C   UNL     1       1.091  -7.134  -8.082  0.00  0.00    +0.024 A 
ATOM     11  C   UNL     1       0.544  -6.471  -6.988  0.00  0.00    +0.046 A 
ATOM     12  C   UNL     1       1.234  -5.397  -6.410  0.00  0.00    +0.053 A 
ATOM     13  C   UNL     1       0.905  -4.524  -5.265  0.00  0.00    +0.200 C 
ATOM     14  O   UNL     1      -0.095  -4.591  -4.576  0.00  0.00    -0.286 OA
ENDROOT
BRANCH   1  18
ATOM     15  C   UNL     1       0.643  -0.611  -1.059  0.00  0.00    +0.120 A 
ATOM     16  C   UNL     1       1.198   0.164  -2.070  0.00  0.00    +0.046 A 
ATOM     17  C   UNL     1       1.802  -0.440  -3.151  0.00  0.00    +0.013 A 
ATOM     18  C   UNL     1       1.856  -1.834  -3.229  0.00  0.00    +0.001 A 
ATOM     19  C   UNL     1       1.297  -2.610  -2.210  0.00  0.00    +0.013 A 
ATOM     20  C   UNL     1       0.699  -1.997  -1.131  0.00  0.00    +0.046 A 
BRANCH  15  22
ATOM     21  C   UNL     1       0.026   1.418   0.014  0.00  0.00    +0.277 C 
ATOM     22  O   UNL     1       0.049  -0.011   0.004  0.00  0.00    -0.495 OA
ENDBRANCH  15  22
ENDBRANCH   1  18
BRANCH  11  23
ATOM     23  N   UNL     1      -0.684  -6.872  -6.470  0.00  0.00    -0.268 N 
ATOM     24  C   UNL     1      -1.110  -8.138  -6.651  0.00  0.00    +0.320 C 
ATOM     25  O   UNL     1      -0.380  -8.956  -7.175  0.00  0.00    -0.251 OA
ATOM     26  N   UNL     1      -2.346  -8.496  -6.250  0.00  0.00    -0.218 N 
ATOM     27  H   UNL     1      -1.233  -6.240  -5.980  0.00  0.00    +0.156 HD
ATOM     28  H   UNL     1      -2.653  -9.407  -6.380  0.00  0.00    +0.174 HD
BRANCH  26  29
ATOM     29  N   UNL     1      -3.188  -7.553  -5.646  0.00  0.00    -0.229 N 
ATOM     30  C   UNL     1      -4.423  -7.911  -5.245  0.00  0.00    +0.264 C 
ATOM     31  O   UNL     1      -4.808  -9.053  -5.407  0.00  0.00    -0.269 OA
ATOM     32  H   UNL     1      -2.881  -6.642  -5.516  0.00  0.00    +0.173 HD
BRANCH  30  33
ATOM     33  C   UNL     1      -5.309  -6.918  -4.608  0.00  0.00    +0.079 A 
ATOM     34  C   UNL     1      -4.874  -5.604  -4.424  0.00  0.00    +0.017 A 
ATOM     35  C   UNL     1      -5.706  -4.681  -3.830  0.00  0.00    +0.001 A 
ATOM     36  C   UNL     1      -6.975  -5.050  -3.413  0.00  0.00    +0.004 A 
ATOM     37  C   UNL     1      -7.418  -6.346  -3.588  0.00  0.00    +0.046 A 
ATOM     38  C   UNL     1      -6.595  -7.287  -4.190  0.00  0.00    +0.129 A 
BRANCH  38  39
ATOM     39  O   UNL     1      -7.031  -8.559  -4.368  0.00  0.00    -0.506 OA
ATOM     40  H   UNL     1      -6.836  -9.149  -3.627  0.00  0.00    +0.292 HD
ENDBRANCH  38  39
ENDBRANCH  30  33
ENDBRANCH  26  29
ENDBRANCH  11  23
TORSDOF 6
