REMARK  Name = CHEMBL179599
REMARK  3 active torsions:
REMARK  status: ('A' for Active; 'I' for Inactive)
REMARK    1  A    between atoms: C_3  and  N_12
REMARK    2  A    between atoms: C_6  and  C_7
REMARK    3  A    between atoms: C_23  and  C_25
REMARK                            x       y       z     vdW  Elec       q    Type
REMARK                         _______ _______ _______ _____ _____    ______ ____
ROOT
ATOM      1  N   UNL     1       3.582   2.134  -0.022  0.00  0.00    -0.231 N 
ATOM      2  C   UNL     1       4.737   1.749   0.600  0.00  0.00    +0.086 A 
ATOM      3  C   UNL     1       5.694   2.733   0.352  0.00  0.00    +0.033 A 
ATOM      4  C   UNL     1       7.005   2.629   0.863  0.00  0.00    +0.014 A 
ATOM      5  C   UNL     1       7.407   1.583   1.614  0.00  0.00    +0.031 A 
ATOM      6  C   UNL     1       6.476   0.503   1.927  0.00  0.00    +0.095 A 
ATOM      7  C   UNL     1       5.103   0.587   1.407  0.00  0.00    +0.046 A 
ATOM      8  C   UNL     1       4.448  -0.543   1.844  0.00  0.00    +0.115 A 
ATOM      9  N   UNL     1       5.316  -1.268   2.568  0.00  0.00    -0.284 N 
ATOM     10  N   UNL     1       6.556  -0.620   2.612  0.00  0.00    -0.174 NA
ATOM     11  H   UNL     1       5.114  -2.115   2.995  0.00  0.00    +0.188 HD
ATOM     12  C   UNL     1       5.029   3.752  -0.473  0.00  0.00    +0.155 A 
ATOM     13  N   UNL     1       3.791   3.354  -0.672  0.00  0.00    -0.161 NA
ENDROOT
BRANCH   1  16
ATOM     14  C   UNL     1      -0.017   1.392   0.010  0.00  0.00    +0.013 A 
ATOM     15  C   UNL     1       1.168   2.095   0.002  0.00  0.00    +0.028 A 
ATOM     16  C   UNL     1       2.381   1.417  -0.013  0.00  0.00    +0.066 A 
ATOM     17  C   UNL     1       2.403   0.027  -0.022  0.00  0.00    +0.028 A 
ATOM     18  C   UNL     1       1.222  -0.683  -0.014  0.00  0.00    +0.013 A 
ATOM     19  C   UNL     1       0.002  -0.004   0.002  0.00  0.00    +0.016 A 
BRANCH  19  20
ATOM     20  C   UNL     1      -1.267  -0.762   0.011  0.00  0.00    +0.116 A 
ATOM     21  N   UNL     1      -2.490  -0.233   0.020  0.00  0.00    -0.346 N 
ATOM     22  C   UNL     1      -3.385  -1.241   0.025  0.00  0.00    +0.102 A 
ATOM     23  C   UNL     1      -2.693  -2.400   0.018  0.00  0.00    +0.102 A 
ATOM     24  N   UNL     1      -1.381  -2.090   0.005  0.00  0.00    -0.346 N 
ATOM     25  H   UNL     1      -0.647  -2.724  -0.006  0.00  0.00    +0.167 HD
ATOM     26  H   UNL     1      -2.700   0.715   0.023  0.00  0.00    +0.167 HD
ENDBRANCH  19  20
ENDBRANCH   1  16
BRANCH  12  27
ATOM     27  C   UNL     1       5.640   4.991  -0.988  0.00  0.00    +0.262 C 
ATOM     28  O   UNL     1       6.803   5.246  -0.737  0.00  0.00    -0.269 OA
ATOM     29  N   UNL     1       4.910   5.841  -1.736  0.00  0.00    -0.324 N 
ATOM     30  H   UNL     1       3.983   5.638  -1.936  0.00  0.00    +0.145 HD
ATOM     31  H   UNL     1       5.312   6.657  -2.075  0.00  0.00    +0.145 HD
ENDBRANCH  12  27
TORSDOF 3
