REMARK  Name = CHEMBL362004
REMARK  1 active torsions:
REMARK  status: ('A' for Active; 'I' for Inactive)
REMARK    1  A    between atoms: C_11  and  C_15
REMARK                            x       y       z     vdW  Elec       q    Type
REMARK                         _______ _______ _______ _____ _____    ______ ____
ROOT
ATOM      1  C   UNL     1      -0.017   1.395   0.010  0.00  0.00    +0.014 A 
ATOM      2  C   UNL     1       1.148   2.098   0.002  0.00  0.00    +0.028 A 
ATOM      3  C   UNL     1       2.379   1.433  -0.013  0.00  0.00    +0.068 A 
ATOM      4  C   UNL     1       2.425   0.029  -0.021  0.00  0.00    +0.045 A 
ATOM      5  C   UNL     1       3.789  -0.339  -0.037  0.00  0.00    +0.144 A 
ATOM      6  N   UNL     1       4.513   0.743  -0.038  0.00  0.00    -0.181 NA
ATOM      7  N   UNL     1       3.679   1.867  -0.024  0.00  0.00    -0.277 N 
ATOM      8  H   UNL     1       3.971   2.792  -0.022  0.00  0.00    +0.189 HD
ATOM      9  C   UNL     1       1.220  -0.700  -0.012  0.00  0.00    +0.077 A 
ATOM     10  C   UNL     1       0.002  -0.004   0.002  0.00  0.00    +0.033 A 
ATOM     11  C   UNL     1      -1.021  -1.058   0.006  0.00  0.00    +0.154 A 
ATOM     12  N   UNL     1      -0.371  -2.203  -0.006  0.00  0.00    -0.168 NA
ATOM     13  H   UNL     1       1.552  -2.747  -0.027  0.00  0.00    +0.189 HD
ATOM     14  N   UNL     1       0.901  -2.028  -0.016  0.00  0.00    -0.276 N 
ENDROOT
BRANCH  11  15
ATOM     15  C   UNL     1      -2.483  -0.872   0.021  0.00  0.00    +0.262 C 
ATOM     16  O   UNL     1      -2.953   0.250   0.032  0.00  0.00    -0.269 OA
ATOM     17  N   UNL     1      -3.299  -1.944   0.023  0.00  0.00    -0.324 N 
ATOM     18  H   UNL     1      -2.924  -2.839   0.015  0.00  0.00    +0.145 HD
ATOM     19  H   UNL     1      -4.261  -1.822   0.033  0.00  0.00    +0.145 HD
ENDBRANCH  11  15
TORSDOF 1
