REMARK  Name = CHEMBL328406
REMARK  8 active torsions:
REMARK  status: ('A' for Active; 'I' for Inactive)
REMARK    1  A    between atoms: C_1  and  C_2
REMARK    2  A    between atoms: C_2  and  C_3
REMARK    3  A    between atoms: C_2  and  C_4
REMARK    4  A    between atoms: C_2  and  C_5
REMARK    5  A    between atoms: C_8  and  C_10
REMARK    6  A    between atoms: C_10  and  S_11
REMARK    7  A    between atoms: S_11  and  C_12
REMARK    8  A    between atoms: N_17  and  C_18
REMARK                            x       y       z     vdW  Elec       q    Type
REMARK                         _______ _______ _______ _____ _____    ______ ____
ROOT
ATOM      1  C   UNL     1       0.456  -5.004  -5.475  0.00  0.00    +0.067 A 
ATOM      2  C   UNL     1       0.826  -6.263  -5.839  0.00  0.00    +0.135 A 
ATOM      3  N   UNL     1       0.829  -6.600  -7.116  0.00  0.00    -0.232 NA
ATOM      4  C   UNL     1       0.479  -5.738  -8.053  0.00  0.00    +0.163 A 
ATOM      5  S   UNL     1       0.092  -4.293  -7.075  0.00  0.00    -0.046 S 
ATOM      6  N   UNL     1       0.422  -5.910  -9.431  0.00  0.00    -0.294 N 
ATOM      7  H   UNL     1       0.226  -5.154 -10.007  0.00  0.00    +0.154 HD
ENDROOT
BRANCH   6   8
ATOM      8  C   UNL     1       0.647  -7.167  -9.986  0.00  0.00    +0.035 A 
ATOM      9  C   UNL     1       0.455  -8.326  -9.234  0.00  0.00    +0.041 A 
ATOM     10  C   UNL     1       0.689  -9.552  -9.820  0.00  0.00    +0.084 A 
ATOM     11  N   UNL     1       1.090  -9.636 -11.075  0.00  0.00    -0.367 N 
ATOM     12  C   UNL     1       1.283  -8.563 -11.820  0.00  0.00    +0.084 A 
ATOM     13  C   UNL     1       1.065  -7.300 -11.310  0.00  0.00    +0.041 A 
ATOM     14  H   UNL     1       1.247 -10.512 -11.462  0.00  0.00    +0.165 HD
ENDBRANCH   6   8
BRANCH   1  15
ATOM     15  S   UNL     1       0.357  -4.279  -3.873  0.00  0.00    -0.107 S 
BRANCH  15  16
ATOM     16  C   UNL     1      -0.216  -2.588  -4.191  0.00  0.00    +0.170 C 
BRANCH  16  20
ATOM     17  C   UNL     1      -1.164  -1.040  -1.043  0.00  0.00    +0.131 A 
ATOM     18  C   UNL     1       0.112  -0.637  -1.165  0.00  0.00    +0.156 A 
ATOM     19  N   UNL     1       0.594  -1.150  -2.312  0.00  0.00    -0.221 NA
ATOM     20  C   UNL     1      -0.345  -1.847  -2.885  0.00  0.00    +0.206 A 
ATOM     21  O   UNL     1      -1.444  -1.802  -2.119  0.00  0.00    -0.443 OA
BRANCH  17  23
ATOM     22  C   UNL     1      -2.288   0.809   0.168  0.00  0.00    +0.019 C 
ATOM     23  C   UNL     1      -2.103  -0.708   0.087  0.00  0.00    +0.022 C 
ATOM     24  C   UNL     1      -1.518  -1.221   1.404  0.00  0.00    +0.019 C 
ATOM     25  C   UNL     1      -3.458  -1.374  -0.163  0.00  0.00    +0.019 C 
ENDBRANCH  17  23
ENDBRANCH  16  20
ENDBRANCH  15  16
ENDBRANCH   1  15
TORSDOF 5
