REMARK  Name = CHEMBL75953
REMARK  4 active torsions:
REMARK  status: ('A' for Active; 'I' for Inactive)
REMARK    1  A    between atoms: C_1  and  N_2
REMARK    2  A    between atoms: C_16  and  O_21
REMARK    3  A    between atoms: O_21  and  C_22
REMARK    4  A    between atoms: C_22  and  C_23
REMARK                            x       y       z     vdW  Elec       q    Type
REMARK                         _______ _______ _______ _____ _____    ______ ____
ROOT
ATOM      1  C   UNL     1      -0.018   1.462   0.010  0.00  0.00    +0.149 C 
ATOM      2  N   UNL     1       0.002  -0.004   0.002  0.00  0.00    -0.349 N 
ATOM      3  C   UNL     1      -0.018  -0.747  -1.148  0.00  0.00    +0.086 A 
ATOM      4  C   UNL     1      -0.147  -2.048  -0.840  0.00  0.00    +0.027 A 
ATOM      5  C   UNL     1      -0.191  -2.134   0.618  0.00  0.00    +0.000 A 
ATOM      6  C   UNL     1       0.024  -0.829   1.094  0.00  0.00    +0.057 A 
ATOM      7  C   UNL     1       0.254  -0.669   2.474  0.00  0.00    +0.021 A 
ATOM      8  C   UNL     1      -0.175  -1.696   3.355  0.00  0.00    +0.009 A 
ATOM      9  C   UNL     1      -0.452  -2.979   2.848  0.00  0.00    +0.011 A 
ATOM     10  C   UNL     1      -0.432  -3.196   1.509  0.00  0.00    +0.011 A 
ATOM     11  C   UNL     1      -0.318  -1.414   4.730  0.00  0.00    +0.056 A 
ATOM     12  C   UNL     1       0.168  -0.203   5.250  0.00  0.00    +0.021 A 
ATOM     13  C   UNL     1      -0.137  -0.224   6.691  0.00  0.00    +0.008 A 
ATOM     14  C   UNL     1       0.079   0.672   7.740  0.00  0.00    +0.014 A 
ATOM     15  C   UNL     1      -0.318   0.346   9.018  0.00  0.00    +0.046 A 
ATOM     16  C   UNL     1      -0.943  -0.872   9.273  0.00  0.00    +0.123 A 
ATOM     17  C   UNL     1      -1.173  -1.763   8.241  0.00  0.00    +0.071 A 
ATOM     18  C   UNL     1      -0.772  -1.450   6.947  0.00  0.00    +0.051 A 
ATOM     19  N   UNL     1      -0.867  -2.145   5.757  0.00  0.00    -0.354 N 
ATOM     20  H   UNL     1      -1.269  -3.019   5.661  0.00  0.00    +0.166 HD
ATOM     21  C   UNL     1       0.816   0.706   4.401  0.00  0.00    +0.060 A 
ATOM     22  C   UNL     1       0.931   0.432   3.027  0.00  0.00    +0.060 A 
ATOM     23  C   UNL     1       1.896   1.421   2.516  0.00  0.00    +0.252 C 
ATOM     24  O   UNL     1       2.483   1.369   1.456  0.00  0.00    -0.270 OA
ATOM     25  N   UNL     1       2.043   2.384   3.442  0.00  0.00    -0.248 N 
ATOM     26  C   UNL     1       1.443   2.029   4.593  0.00  0.00    +0.252 C 
ATOM     27  O   UNL     1       1.426   2.690   5.611  0.00  0.00    -0.270 OA
ATOM     28  H   UNL     1       2.507   3.221   3.293  0.00  0.00    +0.158 HD
ENDROOT
BRANCH  16  29
ATOM     29  O   UNL     1      -1.324  -1.188  10.539  0.00  0.00    -0.487 OA
BRANCH  29  30
ATOM     30  C   UNL     1      -1.052  -0.224  11.558  0.00  0.00    +0.264 C 
BRANCH  30  31
ATOM     31  C   UNL     1      -1.540  -0.744  12.885  0.00  0.00    -0.010 A 
ATOM     32  C   UNL     1      -2.833  -0.480  13.297  0.00  0.00    +0.007 A 
ATOM     33  C   UNL     1      -3.282  -0.957  14.514  0.00  0.00    +0.000 A 
ATOM     34  C   UNL     1      -2.437  -1.698  15.320  0.00  0.00    +0.000 A 
ATOM     35  C   UNL     1      -1.145  -1.962  14.908  0.00  0.00    +0.000 A 
ATOM     36  C   UNL     1      -0.698  -1.489  13.688  0.00  0.00    +0.007 A 
ENDBRANCH  30  31
ENDBRANCH  29  30
ENDBRANCH  16  29
TORSDOF 3
