REMARK  Name = CHEMBL358102
REMARK  7 active torsions:
REMARK  status: ('A' for Active; 'I' for Inactive)
REMARK    1  A    between atoms: C_1  and  N_2
REMARK    2  A    between atoms: N_2  and  C_3
REMARK    3  A    between atoms: N_2  and  N_4
REMARK    4  A    between atoms: N_7  and  C_8
REMARK    5  A    between atoms: C_21  and  C_22
REMARK    6  A    between atoms: C_25  and  O_28
REMARK    7  A    between atoms: O_28  and  C_29
REMARK                            x       y       z     vdW  Elec       q    Type
REMARK                         _______ _______ _______ _____ _____    ______ ____
ROOT
ATOM      1  C   UNL     1      -1.162  -2.273  -3.201  0.00  0.00    +0.046 A 
ATOM      2  C   UNL     1      -2.465  -2.759  -3.247  0.00  0.00    +0.024 A 
ATOM      3  C   UNL     1      -2.866  -3.575  -4.283  0.00  0.00    +0.002 A 
ATOM      4  C   UNL     1      -1.979  -3.921  -5.290  0.00  0.00    +0.011 A 
ATOM      5  C   UNL     1      -0.674  -3.448  -5.266  0.00  0.00    +0.015 A 
ATOM      6  C   UNL     1      -0.258  -2.611  -4.216  0.00  0.00    +0.053 A 
ATOM      7  C   UNL     1       1.157  -2.246  -4.429  0.00  0.00    +0.200 C 
ATOM      8  O   UNL     1       1.833  -1.537  -3.706  0.00  0.00    -0.286 OA
ATOM      9  C   UNL     1       1.604  -2.893  -5.670  0.00  0.00    +0.075 A 
ATOM     10  C   UNL     1       0.466  -3.654  -6.194  0.00  0.00    +0.105 A 
ATOM     11  N   UNL     1       0.862  -4.236  -7.298  0.00  0.00    -0.173 NA
ATOM     12  N   UNL     1       2.203  -3.922  -7.538  0.00  0.00    -0.276 N 
ATOM     13  H   UNL     1       2.725  -4.232  -8.294  0.00  0.00    +0.189 HD
ATOM     14  C   UNL     1       2.655  -3.094  -6.554  0.00  0.00    +0.077 A 
ENDROOT
BRANCH   1  18
ATOM     15  N   UNL     1      -1.302  -0.011  -0.397  0.00  0.00    -0.232 N 
ATOM     16  C   UNL     1      -1.673  -0.720  -1.481  0.00  0.00    +0.318 C 
ATOM     17  O   UNL     1      -2.830  -0.702  -1.853  0.00  0.00    -0.251 OA
ATOM     18  N   UNL     1      -0.760  -1.449  -2.154  0.00  0.00    -0.268 N 
ATOM     19  H   UNL     1      -1.959   0.514   0.087  0.00  0.00    +0.171 HD
ATOM     20  H   UNL     1       0.177  -1.400  -1.907  0.00  0.00    +0.156 HD
BRANCH  15  22
ATOM     21  C   UNL     1       0.605   1.302  -0.083  0.00  0.00    +0.127 C 
ATOM     22  N   UNL     1      -0.002  -0.031   0.021  0.00  0.00    -0.232 NA
ATOM     23  C   UNL     1       0.103  -0.552   1.391  0.00  0.00    +0.127 C 
ENDBRANCH  15  22
ENDBRANCH   1  18
BRANCH  14  24
ATOM     24  C   UNL     1       4.015  -2.534  -6.438  0.00  0.00    +0.001 A 
ATOM     25  C   UNL     1       4.193  -1.190  -6.098  0.00  0.00    +0.013 A 
ATOM     26  C   UNL     1       5.465  -0.672  -5.990  0.00  0.00    +0.046 A 
ATOM     27  C   UNL     1       6.569  -1.482  -6.220  0.00  0.00    +0.120 A 
ATOM     28  C   UNL     1       6.397  -2.819  -6.559  0.00  0.00    +0.046 A 
ATOM     29  C   UNL     1       5.129  -3.347  -6.662  0.00  0.00    +0.013 A 
BRANCH  27  30
ATOM     30  O   UNL     1       7.821  -0.967  -6.114  0.00  0.00    -0.495 OA
ATOM     31  C   UNL     1       8.912  -1.855  -6.364  0.00  0.00    +0.277 C 
ENDBRANCH  27  30
ENDBRANCH  14  24
TORSDOF 4
