REMARK  Name = CHEMBL181036
REMARK  7 active torsions:
REMARK  status: ('A' for Active; 'I' for Inactive)
REMARK    1  A    between atoms: C_1  and  C_2
REMARK    2  A    between atoms: C_2  and  C_3
REMARK    3  A    between atoms: C_3  and  C_4
REMARK    4  A    between atoms: C_4  and  N_5
REMARK    5  A    between atoms: N_5  and  S_6
REMARK    6  A    between atoms: S_6  and  N_9
REMARK    7  A    between atoms: C_20  and  C_22
REMARK                            x       y       z     vdW  Elec       q    Type
REMARK                         _______ _______ _______ _____ _____    ______ ____
ROOT
ATOM      1  N   UNL     1       2.407  -4.298  -4.176  0.00  0.00    -0.150 N 
ATOM      2  C   UNL     1       1.802  -4.481  -5.387  0.00  0.00    +0.103 A 
ATOM      3  C   UNL     1       2.834  -4.581  -6.331  0.00  0.00    +0.035 A 
ATOM      4  C   UNL     1       2.543  -4.776  -7.685  0.00  0.00    +0.014 A 
ATOM      5  C   UNL     1       1.251  -4.870  -8.104  0.00  0.00    +0.028 A 
ATOM      6  C   UNL     1       0.199  -4.774  -7.187  0.00  0.00    +0.068 A 
ATOM      7  C   UNL     1       0.465  -4.579  -5.822  0.00  0.00    +0.047 A 
ATOM      8  C   UNL     1      -0.782  -4.524  -5.161  0.00  0.00    +0.144 A 
ATOM      9  N   UNL     1      -1.729  -4.671  -6.044  0.00  0.00    -0.181 NA
ATOM     10  N   UNL     1      -1.165  -4.830  -7.315  0.00  0.00    -0.277 N 
ATOM     11  H   UNL     1      -1.654  -4.957  -8.143  0.00  0.00    +0.189 HD
ATOM     12  C   UNL     1       4.065  -4.438  -5.542  0.00  0.00    +0.156 A 
ATOM     13  N   UNL     1       3.685  -4.272  -4.293  0.00  0.00    -0.146 NA
ENDROOT
BRANCH  12  14
ATOM     14  C   UNL     1       5.449  -4.468  -6.049  0.00  0.00    +0.262 C 
ATOM     15  O   UNL     1       5.658  -4.625  -7.236  0.00  0.00    -0.269 OA
ATOM     16  N   UNL     1       6.482  -4.321  -5.196  0.00  0.00    -0.324 N 
ATOM     17  H   UNL     1       6.315  -4.196  -4.248  0.00  0.00    +0.145 HD
ATOM     18  H   UNL     1       7.393  -4.341  -5.529  0.00  0.00    +0.145 HD
ENDBRANCH  12  14
BRANCH   1  19
ATOM     19  S   UNL     1       1.595  -4.124  -2.743  0.00  0.00    +0.014 S 
ATOM     20  O   UNL     1       2.549  -4.327  -1.709  0.00  0.00    -0.174 OA
ATOM     21  O   UNL     1       0.411  -4.902  -2.850  0.00  0.00    -0.174 OA
BRANCH  19  22
ATOM     22  N   UNL     1       1.115  -2.543  -2.640  0.00  0.00    +0.481 NA
BRANCH  22  23
ATOM     23  C   UNL     1       0.366  -2.079  -1.470  0.00  0.00    -0.113 C 
BRANCH  23  24
ATOM     24  C   UNL     1       0.048  -0.591  -1.625  0.00  0.00    -0.025 C 
BRANCH  24  26
ATOM     25  C   UNL     1      -1.052   1.382  -0.557  0.00  0.00    +0.004 C 
ATOM     26  C   UNL     1      -0.734  -0.106  -0.403  0.00  0.00    -0.005 C 
ENDBRANCH  24  26
ENDBRANCH  23  24
ENDBRANCH  22  23
ENDBRANCH  19  22
ENDBRANCH   1  19
TORSDOF 6
