REMARK  Name = CHEMBL147290
REMARK  6 active torsions:
REMARK  status: ('A' for Active; 'I' for Inactive)
REMARK    1  A    between atoms: C_1  and  O_2
REMARK    2  A    between atoms: O_2  and  C_3
REMARK    3  A    between atoms: C_6  and  C_9
REMARK    4  A    between atoms: C_19  and  N_23
REMARK    5  A    between atoms: N_26  and  C_27
REMARK    6  A    between atoms: C_27  and  C_28
REMARK                            x       y       z     vdW  Elec       q    Type
REMARK                         _______ _______ _______ _____ _____    ______ ____
ROOT
ATOM      1  C   UNL     1       2.604  -2.553   4.299  0.00  0.00    +0.104 A 
ATOM      2  C   UNL     1       2.214  -3.777   4.892  0.00  0.00    +0.075 A 
ATOM      3  C   UNL     1       3.122  -4.050   5.907  0.00  0.00    +0.078 A 
ATOM      4  N   UNL     1       4.017  -3.040   5.928  0.00  0.00    -0.276 N 
ATOM      5  N   UNL     1       3.683  -2.127   4.922  0.00  0.00    -0.173 NA
ATOM      6  H   UNL     1       4.769  -2.962   6.535  0.00  0.00    +0.189 HD
ATOM      7  C   UNL     1       2.746  -5.330   6.556  0.00  0.00    +0.013 A 
ATOM      8  C   UNL     1       3.311  -6.041   7.604  0.00  0.00    +0.011 A 
ATOM      9  C   UNL     1       2.744  -7.239   8.021  0.00  0.00    +0.002 A 
ATOM     10  C   UNL     1       1.619  -7.734   7.402  0.00  0.00    +0.024 A 
ATOM     11  C   UNL     1       1.034  -7.034   6.344  0.00  0.00    +0.046 A 
ATOM     12  C   UNL     1       1.595  -5.831   5.918  0.00  0.00    +0.053 A 
ATOM     13  C   UNL     1       1.224  -4.872   4.853  0.00  0.00    +0.200 C 
ATOM     14  O   UNL     1       0.282  -4.968   4.090  0.00  0.00    -0.286 OA
ENDROOT
BRANCH   1  18
ATOM     15  C   UNL     1       0.646  -0.604   1.066  0.00  0.00    +0.120 A 
ATOM     16  C   UNL     1       1.233   0.148   2.075  0.00  0.00    +0.046 A 
ATOM     17  C   UNL     1       1.869  -0.481   3.125  0.00  0.00    +0.013 A 
ATOM     18  C   UNL     1       1.921  -1.873   3.172  0.00  0.00    +0.003 A 
ATOM     19  C   UNL     1       1.331  -2.626   2.157  0.00  0.00    +0.013 A 
ATOM     20  C   UNL     1       0.692  -1.991   1.113  0.00  0.00    +0.046 A 
BRANCH  15  22
ATOM     21  C   UNL     1       0.012   1.448   0.047  0.00  0.00    +0.277 C 
ATOM     22  O   UNL     1       0.021   0.019   0.033  0.00  0.00    -0.495 OA
ENDBRANCH  15  22
ENDBRANCH   1  18
BRANCH  11  23
ATOM     23  N   UNL     1      -0.104  -7.534   5.718  0.00  0.00    -0.269 N 
ATOM     24  C   UNL     1      -0.927  -8.368   6.384  0.00  0.00    +0.304 C 
ATOM     25  O   UNL     1      -0.733  -8.603   7.561  0.00  0.00    -0.252 OA
ATOM     26  N   UNL     1      -1.965  -8.942   5.745  0.00  0.00    -0.295 N 
ATOM     27  H   UNL     1      -0.304  -7.283   4.803  0.00  0.00    +0.156 HD
ATOM     28  H   UNL     1      -2.120  -8.755   4.806  0.00  0.00    +0.151 HD
BRANCH  26  29
ATOM     29  C   UNL     1      -2.860  -9.849   6.468  0.00  0.00    +0.141 C 
BRANCH  29  30
ATOM     30  C   UNL     1      -3.930 -10.351   5.533  0.00  0.00    -0.027 A 
ATOM     31  C   UNL     1      -5.124  -9.663   5.386  0.00  0.00    +0.025 A 
ATOM     32  C   UNL     1      -6.082 -10.153   4.519  0.00  0.00    +0.111 A 
ATOM     33  N   UNL     1      -5.870 -11.262   3.837  0.00  0.00    -0.263 NA
ATOM     34  C   UNL     1      -4.746 -11.943   3.952  0.00  0.00    +0.111 A 
ATOM     35  C   UNL     1      -3.740 -11.509   4.795  0.00  0.00    +0.025 A 
ENDBRANCH  29  30
ENDBRANCH  26  29
ENDBRANCH  11  23
TORSDOF 5
