REMARK  Name = CHEMBL188010
REMARK  6 active torsions:
REMARK  status: ('A' for Active; 'I' for Inactive)
REMARK    1  A    between atoms: C_1  and  O_2
REMARK    2  A    between atoms: O_2  and  C_3
REMARK    3  A    between atoms: C_6  and  C_9
REMARK    4  A    between atoms: C_19  and  N_23
REMARK    5  A    between atoms: N_26  and  N_27
REMARK    6  A    between atoms: C_28  and  C_30
REMARK                            x       y       z     vdW  Elec       q    Type
REMARK                         _______ _______ _______ _____ _____    ______ ____
ROOT
ATOM      1  C   UNL     1      -4.980  -2.632   0.054  0.00  0.00    +0.104 A 
ATOM      2  C   UNL     1      -5.280  -3.849  -0.605  0.00  0.00    +0.075 A 
ATOM      3  C   UNL     1      -6.608  -4.149  -0.332  0.00  0.00    +0.078 A 
ATOM      4  N   UNL     1      -7.089  -3.161   0.454  0.00  0.00    -0.276 N 
ATOM      5  N   UNL     1      -6.066  -2.236   0.685  0.00  0.00    -0.173 NA
ATOM      6  H   UNL     1      -7.993  -3.105   0.803  0.00  0.00    +0.189 HD
ATOM      7  C   UNL     1      -6.962  -5.420  -1.007  0.00  0.00    +0.013 A 
ATOM      8  C   UNL     1      -8.140  -6.150  -1.056  0.00  0.00    +0.011 A 
ATOM      9  C   UNL     1      -8.199  -7.335  -1.779  0.00  0.00    +0.002 A 
ATOM     10  C   UNL     1      -7.093  -7.798  -2.454  0.00  0.00    +0.024 A 
ATOM     11  C   UNL     1      -5.896  -7.079  -2.418  0.00  0.00    +0.046 A 
ATOM     12  C   UNL     1      -5.827  -5.889  -1.695  0.00  0.00    +0.053 A 
ATOM     13  C   UNL     1      -4.734  -4.918  -1.465  0.00  0.00    +0.200 C 
ATOM     14  O   UNL     1      -3.602  -4.986  -1.902  0.00  0.00    -0.286 OA
ENDROOT
BRANCH   1  18
ATOM     15  C   UNL     1      -1.233  -0.623   0.015  0.00  0.00    +0.120 A 
ATOM     16  C   UNL     1      -2.412   0.111   0.034  0.00  0.00    +0.046 A 
ATOM     17  C   UNL     1      -3.628  -0.538   0.046  0.00  0.00    +0.013 A 
ATOM     18  C   UNL     1      -3.674  -1.932   0.040  0.00  0.00    +0.003 A 
ATOM     19  C   UNL     1      -2.488  -2.665   0.021  0.00  0.00    +0.013 A 
ATOM     20  C   UNL     1      -1.275  -2.010   0.003  0.00  0.00    +0.046 A 
BRANCH  15  22
ATOM     21  C   UNL     1      -0.065   1.448   0.016  0.00  0.00    +0.277 C 
ATOM     22  O   UNL     1      -0.036   0.019   0.003  0.00  0.00    -0.495 OA
ENDBRANCH  15  22
ENDBRANCH   1  18
BRANCH  11  23
ATOM     23  N   UNL     1      -4.778  -7.549  -3.100  0.00  0.00    -0.268 N 
ATOM     24  C   UNL     1      -4.929  -8.365  -4.162  0.00  0.00    +0.320 C 
ATOM     25  O   UNL     1      -6.042  -8.609  -4.587  0.00  0.00    -0.251 OA
ATOM     26  N   UNL     1      -3.847  -8.910  -4.752  0.00  0.00    -0.218 N 
ATOM     27  H   UNL     1      -3.889  -7.289  -2.811  0.00  0.00    +0.156 HD
ATOM     28  H   UNL     1      -3.956  -9.498  -5.516  0.00  0.00    +0.174 HD
BRANCH  26  29
ATOM     29  N   UNL     1      -2.565  -8.629  -4.262  0.00  0.00    -0.229 N 
ATOM     30  C   UNL     1      -1.484  -9.175  -4.852  0.00  0.00    +0.260 C 
ATOM     31  O   UNL     1      -1.620  -9.911  -5.810  0.00  0.00    -0.269 OA
ATOM     32  H   UNL     1      -2.456  -8.042  -3.498  0.00  0.00    +0.173 HD
BRANCH  30  33
ATOM     33  C   UNL     1      -0.128  -8.878  -4.334  0.00  0.00    +0.041 A 
ATOM     34  C   UNL     1       0.051  -8.039  -3.230  0.00  0.00    +0.033 A 
ATOM     35  C   UNL     1       1.333  -7.789  -2.780  0.00  0.00    +0.111 A 
ATOM     36  N   UNL     1       2.377  -8.329  -3.375  0.00  0.00    -0.263 NA
ATOM     37  C   UNL     1       2.253  -9.126  -4.418  0.00  0.00    +0.111 A 
ATOM     38  C   UNL     1       1.008  -9.433  -4.931  0.00  0.00    +0.033 A 
ENDBRANCH  30  33
ENDBRANCH  26  29
ENDBRANCH  11  23
TORSDOF 5
