REMARK  Name = CHEMBL196508
REMARK  11 active torsions:
REMARK  status: ('A' for Active; 'I' for Inactive)
REMARK    1  A    between atoms: C_1  and  C_2
REMARK    2  A    between atoms: C_2  and  C_3
REMARK    3  A    between atoms: C_3  and  C_4
REMARK    4  A    between atoms: C_4  and  O_5
REMARK    5  A    between atoms: O_5  and  C_6
REMARK    6  A    between atoms: C_9  and  C_13
REMARK    7  A    between atoms: C_13  and  C_15
REMARK    8  A    between atoms: C_20  and  N_21
REMARK    9  A    between atoms: N_22  and  C_23
REMARK   10  A    between atoms: C_26  and  S_29
REMARK   11  A    between atoms: S_29  and  N_32
REMARK                            x       y       z     vdW  Elec       q    Type
REMARK                         _______ _______ _______ _____ _____    ______ ____
ROOT
ATOM      1  C   UNL     1       2.466  -8.679  -4.287  0.00  0.00    +0.062 A 
ATOM      2  C   UNL     1       3.107  -7.904  -5.266  0.00  0.00    +0.018 A 
ATOM      3  C   UNL     1       3.758  -8.544  -6.285  0.00  0.00    +0.044 A 
ATOM      4  C   UNL     1       3.769  -9.938  -6.327  0.00  0.00    +0.125 A 
ATOM      5  N   UNL     1       3.159 -10.655  -5.395  0.00  0.00    -0.217 NA
ATOM      6  C   UNL     1       2.521 -10.082  -4.386  0.00  0.00    +0.129 A 
ATOM      7  N   UNL     1       4.428 -10.583  -7.361  0.00  0.00    -0.299 N 
ATOM      8  H   UNL     1       4.950 -10.071  -7.998  0.00  0.00    +0.154 HD
ENDROOT
BRANCH   7   9
ATOM      9  C   UNL     1       4.341 -11.973  -7.485  0.00  0.00    +0.032 A 
ATOM     10  C   UNL     1       3.171 -12.632  -7.130  0.00  0.00    +0.025 A 
ATOM     11  C   UNL     1       3.089 -14.005  -7.255  0.00  0.00    +0.030 A 
ATOM     12  C   UNL     1       4.170 -14.723  -7.731  0.00  0.00    +0.105 A 
ATOM     13  C   UNL     1       5.337 -14.070  -8.085  0.00  0.00    +0.030 A 
ATOM     14  C   UNL     1       5.423 -12.697  -7.969  0.00  0.00    +0.025 A 
BRANCH  12  15
ATOM     15  S   UNL     1       4.061 -16.475  -7.888  0.00  0.00    +0.056 S 
ATOM     16  O   UNL     1       5.391 -16.971  -7.841  0.00  0.00    -0.153 OA
ATOM     17  O   UNL     1       3.056 -16.902  -6.978  0.00  0.00    -0.153 OA
BRANCH  15  18
ATOM     18  N   UNL     1       3.489 -16.796  -9.409  0.00  0.00    -0.204 NA
ATOM     19  H   UNL     1       3.287 -16.066 -10.015  0.00  0.00    +0.144 HD
ATOM     20  H   UNL     1       3.357 -17.713  -9.694  0.00  0.00    +0.144 HD
ENDBRANCH  15  18
ENDBRANCH  12  15
ENDBRANCH   7   9
BRANCH   6  21
ATOM     21  N   UNL     1       1.902 -10.864  -3.430  0.00  0.00    -0.343 N 
ATOM     22  H   UNL     1       1.495 -10.449  -2.653  0.00  0.00    +0.144 HD
ATOM     23  H   UNL     1       1.874 -11.828  -3.535  0.00  0.00    +0.144 HD
ENDBRANCH   6  21
BRANCH   1  24
ATOM     24  C   UNL     1       1.755  -8.036  -3.172  0.00  0.00    +0.202 C 
ATOM     25  O   UNL     1       2.382  -7.548  -2.251  0.00  0.00    -0.286 OA
BRANCH  24  29
ATOM     26  C   UNL     1      -2.491  -7.883  -3.169  0.00  0.00    +0.126 A 
ATOM     27  C   UNL     1      -1.781  -7.426  -2.065  0.00  0.00    +0.084 A 
ATOM     28  C   UNL     1      -0.402  -7.473  -2.060  0.00  0.00    +0.140 A 
ATOM     29  C   UNL     1       0.282  -7.983  -3.171  0.00  0.00    +0.093 A 
ATOM     30  C   UNL     1      -0.439  -8.442  -4.281  0.00  0.00    +0.140 A 
ATOM     31  C   UNL     1      -1.818  -8.395  -4.272  0.00  0.00    +0.084 A 
ATOM     32  F   UNL     1       0.214  -8.935  -5.356  0.00  0.00    -0.205 F 
ATOM     33  F   UNL     1       0.286  -7.028  -0.986  0.00  0.00    -0.205 F 
BRANCH  26  34
ATOM     34  O   UNL     1      -3.847  -7.834  -3.168  0.00  0.00    -0.492 OA
BRANCH  34  35
ATOM     35  C   UNL     1      -4.476  -7.296  -2.003  0.00  0.00    +0.229 C 
BRANCH  35  36
ATOM     36  C   UNL     1      -5.995  -7.322  -2.185  0.00  0.00    +0.041 C 
BRANCH  36  38
ATOM     37  C   UNL     1      -8.187  -6.773  -1.119  0.00  0.00    +0.004 C 
ATOM     38  C   UNL     1      -6.668  -6.746  -0.937  0.00  0.00    -0.000 C 
ENDBRANCH  36  38
ENDBRANCH  35  36
ENDBRANCH  34  35
ENDBRANCH  26  34
ENDBRANCH  24  29
ENDBRANCH   1  24
TORSDOF 10
