REMARK  Name = CHEMBL180814
REMARK  12 active torsions:
REMARK  status: ('A' for Active; 'I' for Inactive)
REMARK    1  A    between atoms: C_1  and  C_2
REMARK    2  A    between atoms: C_2  and  C_3
REMARK    3  A    between atoms: C_2  and  C_4
REMARK    4  A    between atoms: C_10  and  O_26
REMARK    5  A    between atoms: C_12  and  N_13
REMARK    6  A    between atoms: N_13  and  C_14
REMARK    7  A    between atoms: C_17  and  S_20
REMARK    8  A    between atoms: S_20  and  N_23
REMARK    9  A    between atoms: N_23  and  C_24
REMARK   10  A    between atoms: N_23  and  C_25
REMARK   11  A    between atoms: O_26  and  C_27
REMARK   12  A    between atoms: C_30  and  N_33
REMARK                            x       y       z     vdW  Elec       q    Type
REMARK                         _______ _______ _______ _____ _____    ______ ____
ROOT
ATOM      1  C   UNL     1       1.249   0.162   1.503  0.00  0.00    +0.019 A 
ATOM      2  C   UNL     1       2.548   0.268   1.983  0.00  0.00    +0.141 A 
ATOM      3  N   UNL     1       2.684  -0.522   3.022  0.00  0.00    -0.171 NA
ATOM      4  N   UNL     1       1.469  -1.174   3.257  0.00  0.00    -0.200 N 
ATOM      5  C   UNL     1       0.575  -0.742   2.313  0.00  0.00    +0.165 A 
ATOM      6  N   UNL     1      -0.685  -1.202   2.302  0.00  0.00    -0.193 NA
ATOM      7  C   UNL     1      -1.094  -2.079   3.200  0.00  0.00    +0.220 A 
ATOM      8  C   UNL     1      -0.212  -2.544   4.186  0.00  0.00    +0.111 A 
ATOM      9  C   UNL     1       1.075  -2.088   4.200  0.00  0.00    +0.132 A 
ENDROOT
BRANCH   1  11
ATOM     10  C   UNL     1       0.767   2.407   0.568  0.00  0.00    +0.012 C 
ATOM     11  C   UNL     1       0.674   0.900   0.322  0.00  0.00    +0.018 C 
ATOM     12  C   UNL     1       1.463   0.539  -0.938  0.00  0.00    +0.012 C 
ENDBRANCH   1  11
BRANCH   9  13
ATOM     13  N   UNL     1       1.962  -2.529   5.161  0.00  0.00    -0.299 N 
ATOM     14  H   UNL     1       1.761  -2.404   6.102  0.00  0.00    +0.154 HD
BRANCH  13  15
ATOM     15  C   UNL     1       3.152  -3.156   4.779  0.00  0.00    +0.032 A 
ATOM     16  C   UNL     1       3.379  -3.462   3.443  0.00  0.00    +0.025 A 
ATOM     17  C   UNL     1       4.556  -4.081   3.069  0.00  0.00    +0.030 A 
ATOM     18  C   UNL     1       5.506  -4.397   4.022  0.00  0.00    +0.106 A 
ATOM     19  C   UNL     1       5.282  -4.095   5.353  0.00  0.00    +0.030 A 
ATOM     20  C   UNL     1       4.111  -3.469   5.733  0.00  0.00    +0.025 A 
BRANCH  18  21
ATOM     21  S   UNL     1       7.005  -5.188   3.541  0.00  0.00    +0.060 S 
ATOM     22  O   UNL     1       7.492  -5.869   4.689  0.00  0.00    -0.153 OA
ATOM     23  O   UNL     1       6.737  -5.856   2.316  0.00  0.00    -0.153 OA
BRANCH  21  24
ATOM     24  N   UNL     1       8.101  -3.994   3.199  0.00  0.00    -0.183 NA
ATOM     25  C   UNL     1       8.970  -3.473   4.257  0.00  0.00    +0.131 C 
ATOM     26  C   UNL     1       8.200  -3.459   1.839  0.00  0.00    +0.131 C 
ENDBRANCH  21  24
ENDBRANCH  18  21
ENDBRANCH  13  15
ENDBRANCH   9  13
BRANCH   7  27
ATOM     27  O   UNL     1      -2.371  -2.530   3.170  0.00  0.00    -0.473 OA
BRANCH  27  28
ATOM     28  C   UNL     1      -3.217  -2.015   2.139  0.00  0.00    +0.175 C 
ATOM     29  C   UNL     1      -3.921  -0.753   2.641  0.00  0.00    +0.043 C 
ATOM     30  C   UNL     1      -4.827  -0.201   1.538  0.00  0.00    -0.013 C 
ATOM     31  C   UNL     1      -5.872  -1.253   1.163  0.00  0.00    -0.075 C 
ATOM     32  C   UNL     1      -5.168  -2.515   0.661  0.00  0.00    -0.013 C 
ATOM     33  C   UNL     1      -4.263  -3.067   1.764  0.00  0.00    +0.043 C 
BRANCH  31  34
ATOM     34  N   UNL     1      -6.742  -0.723   0.104  0.00  0.00    +0.380 N 
ATOM     35  H   UNL     1      -6.185  -0.498  -0.707  0.00  0.00    -0.090 HD
ATOM     36  H   UNL     1      -7.431  -1.417  -0.143  0.00  0.00    -0.090 HD
ATOM     37  H   UNL     1      -7.206   0.109   0.435  0.00  0.00    -0.090 HD
ENDBRANCH  31  34
ENDBRANCH  27  28
ENDBRANCH   7  27
TORSDOF 8
