REMARK  Name = CHEMBL271953
REMARK  7 active torsions:
REMARK  status: ('A' for Active; 'I' for Inactive)
REMARK    1  A    between atoms: C_3  and  C_7
REMARK    2  A    between atoms: C_7  and  N_8
REMARK    3  A    between atoms: C_9  and  C_11
REMARK    4  A    between atoms: N_18  and  N_19
REMARK    5  A    between atoms: N_19  and  C_20
REMARK    6  A    between atoms: C_23  and  S_26
REMARK    7  A    between atoms: S_26  and  N_29
REMARK                            x       y       z     vdW  Elec       q    Type
REMARK                         _______ _______ _______ _____ _____    ______ ____
ROOT
ATOM      1  C   UNL     1       5.762   3.114   2.982  0.00  0.00    +0.037 A 
ATOM      2  C   UNL     1       4.974   2.678   4.053  0.00  0.00    +0.015 A 
ATOM      3  C   UNL     1       5.385   2.882   5.349  0.00  0.00    +0.025 A 
ATOM      4  C   UNL     1       6.593   3.526   5.612  0.00  0.00    +0.043 A 
ATOM      5  C   UNL     1       7.385   3.964   4.540  0.00  0.00    +0.029 A 
ATOM      6  C   UNL     1       6.976   3.755   3.231  0.00  0.00    +0.025 A 
ATOM      7  C   UNL     1       8.583   4.598   5.138  0.00  0.00    +0.152 C 
ATOM      8  N   UNL     1       9.596   5.150   4.508  0.00  0.00    -0.177 NA
ATOM      9  C   UNL     1       8.389   4.477   6.593  0.00  0.00    +0.269 C 
ATOM     10  O   UNL     1       9.154   4.876   7.452  0.00  0.00    -0.268 OA
ATOM     11  N   UNL     1       7.221   3.848   6.805  0.00  0.00    -0.280 N 
ATOM     12  H   UNL     1       6.862   3.645   7.683  0.00  0.00    +0.155 HD
ENDROOT
BRANCH   1  14
ATOM     13  N   UNL     1       4.141   2.271   1.355  0.00  0.00    -0.307 N 
ATOM     14  C   UNL     1       5.314   2.890   1.593  0.00  0.00    +0.244 C 
ATOM     15  O   UNL     1       6.003   3.265   0.664  0.00  0.00    -0.270 OA
ATOM     16  H   UNL     1       3.592   1.972   2.096  0.00  0.00    +0.149 HD
BRANCH  13  17
ATOM     17  C   UNL     1       3.696   2.049  -0.023  0.00  0.00    +0.141 C 
BRANCH  17  20
ATOM     18  C   UNL     1      -0.017   1.378   0.010  0.00  0.00    +0.020 A 
ATOM     19  C   UNL     1       1.185   2.070   0.002  0.00  0.00    +0.008 A 
ATOM     20  C   UNL     1       2.365   1.343  -0.013  0.00  0.00    -0.012 A 
ATOM     21  C   UNL     1       2.305  -0.038  -0.020  0.00  0.00    +0.115 A 
ATOM     22  N   UNL     1       1.144  -0.663  -0.013  0.00  0.00    -0.263 NA
ATOM     23  C   UNL     1       0.002  -0.004   0.002  0.00  0.00    +0.111 A 
ENDBRANCH  17  20
ENDBRANCH  13  17
ENDBRANCH   1  14
BRANCH   8  24
ATOM     24  N   UNL     1      10.570   5.663   5.180  0.00  0.00    -0.237 N 
ATOM     25  H   UNL     1      10.555   5.643   6.149  0.00  0.00    +0.174 HD
BRANCH  24  26
ATOM     26  C   UNL     1      11.646   6.249   4.511  0.00  0.00    +0.048 A 
ATOM     27  C   UNL     1      11.667   6.284   3.122  0.00  0.00    +0.026 A 
ATOM     28  C   UNL     1      12.733   6.864   2.463  0.00  0.00    +0.030 A 
ATOM     29  C   UNL     1      13.779   7.410   3.185  0.00  0.00    +0.105 A 
ATOM     30  C   UNL     1      13.762   7.377   4.567  0.00  0.00    +0.030 A 
ATOM     31  C   UNL     1      12.697   6.803   5.233  0.00  0.00    +0.026 A 
BRANCH  29  32
ATOM     32  S   UNL     1      15.138   8.149   2.341  0.00  0.00    +0.056 S 
ATOM     33  O   UNL     1      16.245   8.100   3.230  0.00  0.00    -0.153 OA
ATOM     34  O   UNL     1      15.176   7.567   1.045  0.00  0.00    -0.153 OA
BRANCH  32  35
ATOM     35  N   UNL     1      14.771   9.750   2.130  0.00  0.00    -0.204 NA
ATOM     36  H   UNL     1      13.928  10.102   2.456  0.00  0.00    +0.144 HD
ATOM     37  H   UNL     1      15.399  10.336   1.680  0.00  0.00    +0.144 HD
ENDBRANCH  32  35
ENDBRANCH  29  32
ENDBRANCH  24  26
ENDBRANCH   8  24
TORSDOF 7
