REMARK  Name = CHEMBL370724
REMARK  6 active torsions:
REMARK  status: ('A' for Active; 'I' for Inactive)
REMARK    1  A    between atoms: C_1  and  C_2
REMARK    2  A    between atoms: C_2  and  C_3
REMARK    3  A    between atoms: C_2  and  C_16
REMARK    4  A    between atoms: C_6  and  N_9
REMARK    5  A    between atoms: N_18  and  C_19
REMARK    6  A    between atoms: C_21  and  C_25
REMARK                            x       y       z     vdW  Elec       q    Type
REMARK                         _______ _______ _______ _____ _____    ______ ____
ROOT
ATOM      1  C   UNL     1      -0.019   1.526   0.010  0.00  0.00    +0.022 C 
ATOM      2  C   UNL     1       0.002  -0.004   0.002  0.00  0.00    +0.102 C 
ENDROOT
BRANCH   2   3
ATOM      3  C   UNL     1       0.707  -0.490  -1.238  0.00  0.00    -0.036 A 
ATOM      4  C   UNL     1       0.220  -0.150  -2.487  0.00  0.00    +0.006 A 
ATOM      5  C   UNL     1       0.864  -0.594  -3.625  0.00  0.00    +0.025 A 
ATOM      6  C   UNL     1       2.003  -1.382  -3.514  0.00  0.00    +0.051 A 
ATOM      7  C   UNL     1       2.489  -1.722  -2.258  0.00  0.00    +0.025 A 
ATOM      8  C   UNL     1       1.843  -1.270  -1.124  0.00  0.00    +0.006 A 
BRANCH   6   9
ATOM      9  N   UNL     1       2.656  -1.833  -4.664  0.00  0.00    -0.207 N 
ATOM     10  C   UNL     1       2.069  -2.022  -6.003  0.00  0.00    +0.133 C 
ATOM     11  C   UNL     1       3.131  -1.817  -7.100  0.00  0.00    +0.045 C 
ATOM     12  C   UNL     1       4.379  -2.609  -6.608  0.00  0.00    +0.190 C 
ATOM     13  S   UNL     1       4.270  -2.263  -4.805  0.00  0.00    +0.046 S 
ATOM     14  O   UNL     1       5.005  -1.094  -4.469  0.00  0.00    -0.155 OA
ATOM     15  O   UNL     1       4.410  -3.462  -4.055  0.00  0.00    -0.155 OA
ENDBRANCH   6   9
ENDBRANCH   2   3
BRANCH   2  16
ATOM     16  C   UNL     1      -1.412  -0.526   0.013  0.00  0.00    +0.225 C 
ATOM     17  O   UNL     1      -1.808  -1.224  -0.897  0.00  0.00    -0.275 OA
ATOM     18  N   UNL     1      -2.236  -0.217   1.033  0.00  0.00    -0.270 N 
ATOM     19  H   UNL     1      -1.920   0.341   1.761  0.00  0.00    +0.156 HD
BRANCH  18  20
ATOM     20  C   UNL     1      -3.545  -0.700   1.043  0.00  0.00    +0.121 A 
ATOM     21  C   UNL     1      -4.118  -1.488   0.093  0.00  0.00    +0.068 A 
ATOM     22  C   UNL     1      -5.435  -1.743   0.487  0.00  0.00    +0.068 A 
ATOM     23  N   UNL     1      -5.649  -1.135   1.625  0.00  0.00    -0.177 NA
ATOM     24  H   UNL     1      -4.346   0.053   2.805  0.00  0.00    +0.190 HD
ATOM     25  N   UNL     1      -4.473  -0.474   2.001  0.00  0.00    -0.264 N 
BRANCH  22  26
ATOM     26  C   UNL     1      -6.437  -2.575  -0.271  0.00  0.00    +0.040 C 
ATOM     27  C   UNL     1      -6.135  -2.880  -1.740  0.00  0.00    +0.010 C 
ATOM     28  C   UNL     1      -7.238  -1.883  -1.376  0.00  0.00    +0.010 C 
ENDBRANCH  22  26
ENDBRANCH  18  20
ENDBRANCH   2  16
TORSDOF 5
