REMARK  Name = CHEMBL392614
REMARK  4 active torsions:
REMARK  status: ('A' for Active; 'I' for Inactive)
REMARK    1  A    between atoms: C_1  and  C_2
REMARK    2  A    between atoms: C_2  and  N_3
REMARK    3  A    between atoms: C_10  and  N_13
REMARK    4  A    between atoms: C_18  and  C_20
REMARK                            x       y       z     vdW  Elec       q    Type
REMARK                         _______ _______ _______ _____ _____    ______ ____
ROOT
ATOM      1  N   UNL     1      -4.497  -5.565  -0.692  0.00  0.00    -0.309 N 
ATOM      2  C   UNL     1      -3.701  -6.560  -1.234  0.00  0.00    +0.216 A 
ATOM      3  N   UNL     1      -2.610  -6.220  -1.905  0.00  0.00    -0.221 NA
ATOM      4  C   UNL     1      -1.822  -7.141  -2.438  0.00  0.00    +0.136 A 
ATOM      5  C   UNL     1      -2.146  -8.477  -2.290  0.00  0.00    +0.085 A 
ATOM      6  C   UNL     1      -3.304  -8.807  -1.576  0.00  0.00    +0.096 A 
ATOM      7  N   UNL     1      -4.047  -7.826  -1.063  0.00  0.00    -0.213 NA
ATOM      8 CL   UNL     1      -1.140  -9.716  -2.974  0.00  0.00    -0.080 Cl
ATOM      9  H   UNL     1      -5.296  -5.800  -0.195  0.00  0.00    +0.149 HD
ENDROOT
BRANCH   1  17
ATOM     10  N   UNL     1      -1.395  -0.505   0.018  0.00  0.00    -0.300 N 
ATOM     11  C   UNL     1      -1.623  -1.834   0.005  0.00  0.00    +0.302 C 
ATOM     12  O   UNL     1      -0.692  -2.609  -0.098  0.00  0.00    -0.253 OA
ATOM     13  N   UNL     1      -2.882  -2.303   0.107  0.00  0.00    -0.284 N 
ATOM     14  C   UNL     1      -4.027  -1.381   0.106  0.00  0.00    +0.109 C 
ATOM     15  C   UNL     1      -5.012  -1.820  -0.982  0.00  0.00    +0.021 C 
ATOM     16  C   UNL     1      -5.387  -3.287  -0.764  0.00  0.00    +0.025 C 
ATOM     17  C   UNL     1      -4.132  -4.157  -0.869  0.00  0.00    +0.091 C 
ATOM     18  C   UNL     1      -3.137  -3.746   0.214  0.00  0.00    +0.131 C 
ATOM     19  H   UNL     1      -2.141   0.115   0.028  0.00  0.00    +0.150 HD
BRANCH  10  21
ATOM     20  C   UNL     1      -0.043   1.532   0.034  0.00  0.00    +0.024 C 
ATOM     21  C   UNL     1      -0.021   0.003   0.018  0.00  0.00    +0.102 C 
ENDBRANCH  10  21
ENDBRANCH   1  17
BRANCH   6  22
ATOM     22  C   UNL     1      -3.695 -10.221  -1.389  0.00  0.00    +0.027 A 
ATOM     23  C   UNL     1      -2.901 -11.230  -0.947  0.00  0.00    +0.093 A 
ATOM     24  N   UNL     1      -3.612 -12.391  -0.906  0.00  0.00    -0.360 N 
ATOM     25  H   UNL     1      -3.258 -13.248  -0.623  0.00  0.00    +0.165 HD
ATOM     26  C   UNL     1      -4.907 -12.172  -1.325  0.00  0.00    +0.047 A 
ATOM     27  C   UNL     1      -5.022 -10.808  -1.640  0.00  0.00    +0.009 A 
ATOM     28  C   UNL     1      -6.237 -10.296  -2.091  0.00  0.00    +0.010 A 
ATOM     29  C   UNL     1      -7.323 -11.132  -2.222  0.00  0.00    +0.001 A 
ATOM     30  C   UNL     1      -7.212 -12.479  -1.907  0.00  0.00    +0.002 A 
ATOM     31  C   UNL     1      -6.014 -13.002  -1.470  0.00  0.00    +0.026 A 
ENDBRANCH   6  22
TORSDOF 3
