REMARK  Name = CHEMBL191336
REMARK  6 active torsions:
REMARK  status: ('A' for Active; 'I' for Inactive)
REMARK    1  A    between atoms: C_3  and  N_8
REMARK    2  A    between atoms: C_13  and  C_15
REMARK    3  A    between atoms: N_21  and  C_22
REMARK    4  A    between atoms: C_22  and  C_23
REMARK    5  A    between atoms: C_23  and  C_24
REMARK    6  A    between atoms: C_24  and  O_25
REMARK                            x       y       z     vdW  Elec       q    Type
REMARK                         _______ _______ _______ _____ _____    ______ ____
ROOT
ATOM      1  N   UNL     1       3.583   2.125  -0.021  0.00  0.00    -0.283 N 
ATOM      2  C   UNL     1       4.787   1.453   0.068  0.00  0.00    +0.223 A 
ATOM      3  N   UNL     1       4.810   0.122   0.056  0.00  0.00    -0.203 NA
ATOM      4  C   UNL     1       5.961  -0.521   0.141  0.00  0.00    +0.227 A 
ATOM      5  N   UNL     1       7.094   0.154   0.238  0.00  0.00    -0.216 NA
ATOM      6  C   UNL     1       7.079   1.485   0.251  0.00  0.00    +0.165 A 
ATOM      7  N   UNL     1       5.924   2.135   0.161  0.00  0.00    -0.194 NA
ATOM      8  H   UNL     1       3.572   3.092  -0.097  0.00  0.00    +0.155 HD
ENDROOT
BRANCH   6   9
ATOM      9  C   UNL     1       8.351   2.241   0.361  0.00  0.00    +0.024 A 
ATOM     10  C   UNL     1       8.355   3.640   0.382  0.00  0.00    +0.031 A 
ATOM     11  C   UNL     1       9.557   4.308   0.485  0.00  0.00    +0.113 A 
ATOM     12  N   UNL     1      10.696   3.647   0.564  0.00  0.00    -0.240 NA
ATOM     13  C   UNL     1      10.741   2.325   0.548  0.00  0.00    +0.119 A 
ATOM     14  C   UNL     1       9.573   1.576   0.452  0.00  0.00    +0.055 A 
ATOM     15  N   UNL     1      11.968   1.677   0.634  0.00  0.00    -0.329 N 
ATOM     16  H   UNL     1      12.785   2.194   0.706  0.00  0.00    +0.147 HD
BRANCH  15  17
ATOM     17  C   UNL     1      12.026   0.213   0.617  0.00  0.00    +0.105 C 
BRANCH  17  18
ATOM     18  C   UNL     1      13.483  -0.241   0.724  0.00  0.00    +0.046 C 
BRANCH  18  19
ATOM     19  C   UNL     1      13.544  -1.770   0.706  0.00  0.00    +0.157 C 
BRANCH  19  20
ATOM     20  O   UNL     1      14.905  -2.193   0.806  0.00  0.00    -0.395 OA
ATOM     21  H   UNL     1      15.019  -3.154   0.800  0.00  0.00    +0.209 HD
ENDBRANCH  19  20
ENDBRANCH  18  19
ENDBRANCH  17  18
ENDBRANCH  15  17
ENDBRANCH   6   9
BRANCH   1  24
ATOM     22  C   UNL     1       1.087  -0.458   0.763  0.00  0.00    +0.003 A 
ATOM     23  C   UNL     1       2.276   0.245   0.746  0.00  0.00    +0.023 A 
ATOM     24  C   UNL     1       2.381   1.411  -0.002  0.00  0.00    +0.035 A 
ATOM     25  C   UNL     1       1.290   1.865  -0.732  0.00  0.00    +0.043 A 
ATOM     26  C   UNL     1       0.103   1.157  -0.710  0.00  0.00    +0.043 A 
ATOM     27  C   UNL     1       0.002  -0.004   0.037  0.00  0.00    +0.020 A 
ATOM     28 CL   UNL     1      -1.262   1.724  -1.621  0.00  0.00    -0.083 Cl
ENDBRANCH   1  24
TORSDOF 6
