REMARK  Name = CHEMBL1098057
REMARK  4 active torsions:
REMARK  status: ('A' for Active; 'I' for Inactive)
REMARK    1  A    between atoms: C_1  and  N_2
REMARK    2  A    between atoms: C_5  and  N_8
REMARK    3  A    between atoms: C_11  and  C_13
REMARK    4  A    between atoms: N_24  and  C_25
REMARK                            x       y       z     vdW  Elec       q    Type
REMARK                         _______ _______ _______ _____ _____    ______ ____
ROOT
ATOM      1  N   UNL     1      -0.062  -3.993   1.356  0.00  0.00    -0.258 N 
ATOM      2  C   UNL     1      -0.793  -4.893   2.041  0.00  0.00    +0.092 A 
ATOM      3  C   UNL     1      -0.569  -6.122   1.457  0.00  0.00    +0.012 A 
ATOM      4  C   UNL     1       0.338  -5.888   0.424  0.00  0.00    +0.151 A 
ATOM      5  N   UNL     1       0.595  -4.588   0.417  0.00  0.00    -0.165 NA
ATOM      6  C   UNL     1      -1.248  -7.375   1.928  0.00  0.00    +0.044 C 
ATOM      7  C   UNL     1      -1.507  -7.288   3.432  0.00  0.00    +0.043 C 
ATOM      8  C   UNL     1      -2.077  -5.961   3.842  0.00  0.00    -0.001 A 
ATOM      9  C   UNL     1      -1.715  -4.777   3.184  0.00  0.00    +0.097 A 
ATOM     10  N   UNL     1      -2.205  -3.617   3.594  0.00  0.00    -0.212 NA
ATOM     11  C   UNL     1      -3.055  -3.577   4.612  0.00  0.00    +0.220 A 
ATOM     12  N   UNL     1      -3.436  -4.679   5.241  0.00  0.00    -0.222 NA
ATOM     13  C   UNL     1      -2.974  -5.870   4.890  0.00  0.00    +0.120 A 
ATOM     14  N   UNL     1      -3.556  -2.354   5.027  0.00  0.00    -0.284 N 
ATOM     15  H   UNL     1      -3.348  -1.550   4.526  0.00  0.00    +0.155 HD
ENDROOT
BRANCH   1  20
ATOM     16  C   UNL     1       1.136   1.514   1.115  0.00  0.00    -0.096 C 
ATOM     17  N   UNL     1       1.014   0.060   0.939  0.00  0.00    +0.378 N 
ATOM     18  C   UNL     1      -0.386  -0.282   0.663  0.00  0.00    -0.077 C 
ATOM     19  C   UNL     1      -0.505  -1.785   0.398  0.00  0.00    +0.008 C 
ATOM     20  C   UNL     1      -0.022  -2.555   1.630  0.00  0.00    +0.104 C 
ATOM     21  C   UNL     1       1.414  -2.134   1.953  0.00  0.00    +0.008 C 
ATOM     22  C   UNL     1       1.462  -0.619   2.160  0.00  0.00    -0.077 C 
ATOM     23  H   UNL     1       1.589  -0.232   0.163  0.00  0.00    -0.082 HD
ENDBRANCH   1  20
BRANCH  14  24
ATOM     24  C   UNL     1      -4.359  -2.279   6.169  0.00  0.00    +0.034 A 
ATOM     25  C   UNL     1      -4.063  -3.056   7.281  0.00  0.00    +0.023 A 
ATOM     26  C   UNL     1      -4.859  -2.979   8.407  0.00  0.00    +0.002 A 
ATOM     27  C   UNL     1      -5.950  -2.130   8.428  0.00  0.00    +0.000 A 
ATOM     28  C   UNL     1      -6.248  -1.355   7.322  0.00  0.00    +0.002 A 
ATOM     29  C   UNL     1      -5.453  -1.422   6.195  0.00  0.00    +0.023 A 
ENDBRANCH  14  24
BRANCH   4  30
ATOM     30  C   UNL     1       0.903  -6.899  -0.494  0.00  0.00    +0.262 C 
ATOM     31  O   UNL     1       0.581  -8.066  -0.385  0.00  0.00    -0.269 OA
ATOM     32  N   UNL     1       1.775  -6.527  -1.452  0.00  0.00    -0.324 N 
ATOM     33  H   UNL     1       2.032  -5.596  -1.539  0.00  0.00    +0.145 HD
ATOM     34  H   UNL     1       2.146  -7.191  -2.055  0.00  0.00    +0.145 HD
ENDBRANCH   4  30
TORSDOF 3
