REMARK  Name = CHEMBL363172
REMARK  5 active torsions:
REMARK  status: ('A' for Active; 'I' for Inactive)
REMARK    1  A    between atoms: C_1  and  C_2
REMARK    2  A    between atoms: C_2  and  C_3
REMARK    3  A    between atoms: C_7  and  C_11
REMARK    4  A    between atoms: C_11  and  C_12
REMARK    5  A    between atoms: N_13  and  C_15
REMARK                            x       y       z     vdW  Elec       q    Type
REMARK                         _______ _______ _______ _____ _____    ______ ____
ROOT
ATOM      1  C   UNL     1      -1.361  -0.795   0.017  0.00  0.00    +0.078 A 
ATOM      2  C   UNL     1      -2.103  -1.098   1.174  0.00  0.00    +0.106 A 
ATOM      3  C   UNL     1      -3.358  -1.567   0.755  0.00  0.00    +0.171 A 
ATOM      4  N   UNL     1      -4.263  -1.928   1.677  0.00  0.00    -0.214 NA
ATOM      5  C   UNL     1      -4.012  -1.856   2.951  0.00  0.00    +0.112 A 
ATOM      6  N   UNL     1      -2.828  -1.416   3.449  0.00  0.00    -0.310 N 
ATOM      7  C   UNL     1      -1.839  -1.024   2.611  0.00  0.00    +0.263 A 
ATOM      8  O   UNL     1      -0.770  -0.626   3.038  0.00  0.00    -0.267 OA
ATOM      9  N   UNL     1      -3.348  -1.538  -0.606  0.00  0.00    -0.211 N 
ATOM     10  N   UNL     1      -2.103  -1.052  -1.026  0.00  0.00    -0.169 NA
ATOM     11  H   UNL     1      -2.690  -1.381   4.408  0.00  0.00    +0.170 HD
ENDROOT
BRANCH   9  12
ATOM     12  C   UNL     1      -4.404  -1.924  -1.443  0.00  0.00    +0.104 A 
ATOM     13  C   UNL     1      -5.662  -1.356  -1.284  0.00  0.00    +0.069 A 
ATOM     14  C   UNL     1      -6.701  -1.738  -2.111  0.00  0.00    +0.042 A 
ATOM     15  C   UNL     1      -6.490  -2.687  -3.096  0.00  0.00    +0.044 A 
ATOM     16  C   UNL     1      -5.238  -3.255  -3.257  0.00  0.00    +0.042 A 
ATOM     17  C   UNL     1      -4.193  -2.872  -2.437  0.00  0.00    +0.069 A 
ATOM     18 CL   UNL     1      -2.622  -3.579  -2.644  0.00  0.00    -0.081 Cl
ATOM     19 CL   UNL     1      -7.798  -3.166  -4.133  0.00  0.00    -0.083 Cl
ATOM     20 CL   UNL     1      -5.928  -0.167  -0.048  0.00  0.00    -0.081 Cl
ENDBRANCH   9  12
BRANCH   1  22
ATOM     21  C   UNL     1       0.011   1.270   0.007  0.00  0.00    +0.010 C 
ATOM     22  C   UNL     1       0.047  -0.260  -0.014  0.00  0.00    +0.055 C 
ENDBRANCH   1  22
BRANCH   5  23
ATOM     23  C   UNL     1      -5.085  -2.281   3.921  0.00  0.00    +0.071 C 
ATOM     24  C   UNL     1      -6.360  -2.627   3.150  0.00  0.00    +0.012 C 
ENDBRANCH   5  23
TORSDOF 3
