REMARK  Name = CHEMBL82729
REMARK  8 active torsions:
REMARK  status: ('A' for Active; 'I' for Inactive)
REMARK    1  A    between atoms: C_3  and  S_30
REMARK    2  A    between atoms: C_6  and  N_7
REMARK    3  A    between atoms: N_8  and  C_9
REMARK    4  A    between atoms: C_12  and  C_20
REMARK    5  A    between atoms: C_18  and  O_19
REMARK    6  A    between atoms: N_22  and  C_23
REMARK    7  A    between atoms: C_23  and  C_24
REMARK    8  A    between atoms: S_30  and  N_33
REMARK                            x       y       z     vdW  Elec       q    Type
REMARK                         _______ _______ _______ _____ _____    ______ ____
ROOT
ATOM      1  C   UNL     1       0.112  -2.534  -0.239  0.00  0.00    +0.154 A 
ATOM      2  C   UNL     1       0.304  -3.991  -0.366  0.00  0.00    +0.031 A 
ATOM      3  C   UNL     1      -0.529  -5.041  -0.732  0.00  0.00    +0.025 A 
ATOM      4  C   UNL     1      -0.025  -6.340  -0.752  0.00  0.00    +0.037 A 
ATOM      5  C   UNL     1       1.311  -6.577  -0.404  0.00  0.00    +0.015 A 
ATOM      6  C   UNL     1       2.129  -5.546  -0.045  0.00  0.00    +0.027 A 
ATOM      7  C   UNL     1       1.644  -4.240  -0.019  0.00  0.00    +0.051 A 
ATOM      8  N   UNL     1       2.230  -3.031   0.297  0.00  0.00    -0.324 N 
ATOM      9  H   UNL     1       3.154  -2.920   0.571  0.00  0.00    +0.169 HD
ATOM     10  C   UNL     1       1.333  -2.016   0.165  0.00  0.00    +0.219 A 
ENDROOT
BRANCH   4  11
ATOM     11  C   UNL     1      -0.899  -7.465  -1.138  0.00  0.00    +0.244 C 
ATOM     12  O   UNL     1      -2.059  -7.259  -1.439  0.00  0.00    -0.270 OA
ATOM     13  N   UNL     1      -0.411  -8.722  -1.157  0.00  0.00    -0.307 N 
ATOM     14  H   UNL     1       0.514  -8.886  -0.917  0.00  0.00    +0.149 HD
BRANCH  13  15
ATOM     15  C   UNL     1      -1.278  -9.838  -1.541  0.00  0.00    +0.140 C 
BRANCH  15  16
ATOM     16  C   UNL     1      -0.496 -11.125  -1.480  0.00  0.00    -0.027 A 
ATOM     17  C   UNL     1       0.198 -11.587  -2.589  0.00  0.00    +0.025 A 
ATOM     18  C   UNL     1       0.904 -12.771  -2.496  0.00  0.00    +0.111 A 
ATOM     19  N   UNL     1       0.922 -13.459  -1.371  0.00  0.00    -0.263 NA
ATOM     20  C   UNL     1       0.274 -13.051  -0.298  0.00  0.00    +0.111 A 
ATOM     21  C   UNL     1      -0.449 -11.873  -0.314  0.00  0.00    +0.025 A 
ENDBRANCH  15  16
ENDBRANCH  13  15
ENDBRANCH   4  11
BRANCH   1  23
ATOM     22  N   UNL     1      -1.519  -1.086   0.446  0.00  0.00    -0.149 NA
ATOM     23  N   UNL     1      -1.022  -1.843  -0.473  0.00  0.00    -0.143 NA
BRANCH  22  29
ATOM     24  C   UNL     1      -0.601  -2.024   2.451  0.00  0.00    +0.031 A 
ATOM     25  C   UNL     1       0.070  -1.851   3.643  0.00  0.00    +0.030 A 
ATOM     26  C   UNL     1       0.494  -0.591   4.027  0.00  0.00    +0.105 A 
ATOM     27  C   UNL     1       0.247   0.505   3.218  0.00  0.00    +0.030 A 
ATOM     28  C   UNL     1      -0.423   0.347   2.023  0.00  0.00    +0.031 A 
ATOM     29  C   UNL     1      -0.854  -0.922   1.630  0.00  0.00    +0.086 A 
BRANCH  26  30
ATOM     30  S   UNL     1       1.351  -0.380   5.551  0.00  0.00    +0.056 S 
ATOM     31  O   UNL     1       1.161   0.974   5.941  0.00  0.00    -0.153 OA
ATOM     32  O   UNL     1       0.978  -1.471   6.382  0.00  0.00    -0.153 OA
BRANCH  30  33
ATOM     33  N   UNL     1       2.967  -0.558   5.234  0.00  0.00    -0.204 NA
ATOM     34  H   UNL     1       3.265  -0.744   4.330  0.00  0.00    +0.144 HD
ATOM     35  H   UNL     1       3.614  -0.477   5.952  0.00  0.00    +0.144 HD
ENDBRANCH  30  33
ENDBRANCH  26  30
ENDBRANCH  22  29
ENDBRANCH   1  23
BRANCH  10  36
ATOM     36  O   UNL     1       1.591  -0.709   0.394  0.00  0.00    -0.492 OA
ATOM     37  H   UNL     1       1.529  -0.453   1.325  0.00  0.00    +0.294 HD
ENDBRANCH  10  36
TORSDOF 8
