REMARK  Name = CHEMBL1164264
REMARK  6 active torsions:
REMARK  status: ('A' for Active; 'I' for Inactive)
REMARK    1  A    between atoms: C_1  and  C_2
REMARK    2  A    between atoms: C_3  and  C_7
REMARK    3  A    between atoms: C_7  and  N_8
REMARK    4  A    between atoms: C_9  and  C_11
REMARK    5  A    between atoms: C_16  and  C_21
REMARK    6  A    between atoms: C_22  and  C_27
REMARK                            x       y       z     vdW  Elec       q    Type
REMARK                         _______ _______ _______ _____ _____    ______ ____
ROOT
ATOM      1  C   UNL     1      -4.982   1.805  -2.279  0.00  0.00    +0.039 A 
ATOM      2  C   UNL     1      -3.938   1.728  -3.213  0.00  0.00    +0.014 A 
ATOM      3  C   UNL     1      -4.182   1.930  -4.537  0.00  0.00    +0.011 A 
ATOM      4  C   UNL     1      -5.484   2.216  -4.975  0.00  0.00    +0.000 A 
ATOM      5  C   UNL     1      -6.042   2.469  -6.250  0.00  0.00    +0.037 A 
ATOM      6  C   UNL     1      -7.375   2.690  -6.084  0.00  0.00    +0.066 A 
ATOM      7  N   UNL     1      -7.689   2.587  -4.748  0.00  0.00    -0.353 N 
ATOM      8  H   UNL     1      -8.573   2.700  -4.365  0.00  0.00    +0.166 HD
ATOM      9  C   UNL     1      -6.539   2.295  -4.043  0.00  0.00    +0.048 A 
ATOM     10  C   UNL     1      -6.282   2.083  -2.698  0.00  0.00    +0.039 A 
ENDROOT
BRANCH   6  11
ATOM     11  C   UNL     1      -8.329   2.991  -7.163  0.00  0.00    +0.090 A 
ATOM     12  C   UNL     1      -9.623   2.496  -7.286  0.00  0.00    +0.029 A 
ATOM     13  C   UNL     1     -10.169   3.044  -8.460  0.00  0.00    +0.143 A 
ATOM     14  N   UNL     1      -9.274   3.818  -9.014  0.00  0.00    -0.181 NA
ATOM     15  H   UNL     1      -7.301   4.309  -8.414  0.00  0.00    +0.189 HD
ATOM     16  N   UNL     1      -8.115   3.814  -8.230  0.00  0.00    -0.275 N 
BRANCH  12  17
ATOM     17  C   UNL     1     -10.300   1.563  -6.354  0.00  0.00    -0.014 A 
ATOM     18  C   UNL     1      -9.713   0.338  -6.041  0.00  0.00    +0.008 A 
ATOM     19  C   UNL     1     -10.347  -0.526  -5.173  0.00  0.00    +0.001 A 
ATOM     20  C   UNL     1     -11.563  -0.179  -4.613  0.00  0.00    +0.000 A 
ATOM     21  C   UNL     1     -12.151   1.035  -4.920  0.00  0.00    +0.001 A 
ATOM     22  C   UNL     1     -11.523   1.910  -5.783  0.00  0.00    +0.008 A 
ENDBRANCH  12  17
ENDBRANCH   6  11
BRANCH   1  24
ATOM     23  N   UNL     1      -3.447   1.316  -0.439  0.00  0.00    -0.307 N 
ATOM     24  C   UNL     1      -4.703   1.585  -0.847  0.00  0.00    +0.244 C 
ATOM     25  O   UNL     1      -5.606   1.646  -0.035  0.00  0.00    -0.270 OA
ATOM     26  H   UNL     1      -2.727   1.267  -1.086  0.00  0.00    +0.149 HD
BRANCH  23  27
ATOM     27  C   UNL     1      -3.170   1.097   0.983  0.00  0.00    +0.145 C 
BRANCH  27  30
ATOM     28  C   UNL     1      -0.897   3.228   1.071  0.00  0.00    +0.089 C 
ATOM     29  C   UNL     1      -0.720   1.738   1.210  0.00  0.00    +0.139 A 
ATOM     30  C   UNL     1      -1.702   0.817   1.172  0.00  0.00    +0.031 A 
ATOM     31  C   UNL     1      -1.118  -0.452   1.339  0.00  0.00    +0.162 A 
ATOM     32  N   UNL     1       0.168  -0.291   1.472  0.00  0.00    -0.086 NA
ATOM     33  O   UNL     1       0.445   1.095   1.388  0.00  0.00    -0.360 OA
ENDBRANCH  27  30
ENDBRANCH  23  27
ENDBRANCH   1  24
TORSDOF 5
