REMARK  Name = CHEMBL191865
REMARK  5 active torsions:
REMARK  status: ('A' for Active; 'I' for Inactive)
REMARK    1  A    between atoms: C_1  and  C_2
REMARK    2  A    between atoms: C_2  and  C_3
REMARK    3  A    between atoms: C_2  and  C_16
REMARK    4  A    between atoms: C_6  and  N_9
REMARK    5  A    between atoms: C_21  and  C_25
REMARK                            x       y       z     vdW  Elec       q    Type
REMARK                         _______ _______ _______ _____ _____    ______ ____
ROOT
ATOM      1  C   UNL     1       0.640   1.302  -0.474  0.00  0.00    +0.022 C 
ATOM      2  C   UNL     1       0.003  -0.005   0.001  0.00  0.00    +0.102 C 
ENDROOT
BRANCH   2   3
ATOM      3  C   UNL     1      -1.445   0.238   0.344  0.00  0.00    +0.225 C 
ATOM      4  O   UNL     1      -1.845   0.026   1.470  0.00  0.00    -0.275 OA
ATOM      5  N   UNL     1      -2.294   0.690  -0.599  0.00  0.00    -0.268 N 
ATOM      6  C   UNL     1      -3.640   0.915  -0.281  0.00  0.00    +0.147 A 
ATOM      7  C   UNL     1      -4.234   0.719   0.977  0.00  0.00    +0.068 A 
ATOM      8  C   UNL     1      -5.542   1.047   0.874  0.00  0.00    +0.041 A 
ATOM      9  N   UNL     1      -5.772   1.437  -0.398  0.00  0.00    -0.280 N 
ATOM     10  H   UNL     1      -6.623   1.729  -0.759  0.00  0.00    +0.189 HD
ATOM     11  N   UNL     1      -4.564   1.352  -1.103  0.00  0.00    -0.158 NA
ATOM     12  H   UNL     1      -1.974   0.859  -1.499  0.00  0.00    +0.156 HD
BRANCH   8  13
ATOM     13  C   UNL     1      -6.562   0.988   1.982  0.00  0.00    +0.037 C 
ATOM     14  C   UNL     1      -7.998   0.623   1.601  0.00  0.00    +0.010 C 
ATOM     15  C   UNL     1      -7.653   2.060   1.996  0.00  0.00    +0.010 C 
ENDBRANCH   8  13
ENDBRANCH   2   3
BRANCH   2  16
ATOM     16  C   UNL     1       0.731  -0.504   1.222  0.00  0.00    -0.036 A 
ATOM     17  C   UNL     1       0.779   0.275   2.364  0.00  0.00    +0.006 A 
ATOM     18  C   UNL     1       1.446  -0.179   3.485  0.00  0.00    +0.024 A 
ATOM     19  C   UNL     1       2.069  -1.420   3.465  0.00  0.00    +0.036 A 
ATOM     20  C   UNL     1       2.019  -2.200   2.317  0.00  0.00    +0.024 A 
ATOM     21  C   UNL     1       1.347  -1.742   1.201  0.00  0.00    +0.006 A 
BRANCH  19  22
ATOM     22  N   UNL     1       2.746  -1.883   4.598  0.00  0.00    -0.271 N 
ATOM     23  C   UNL     1       4.164  -1.569   4.723  0.00  0.00    +0.113 C 
ATOM     24  C   UNL     1       4.620  -1.720   6.175  0.00  0.00    +0.020 C 
ATOM     25  C   UNL     1       4.170  -3.092   6.691  0.00  0.00    +0.011 C 
ATOM     26  C   UNL     1       2.642  -3.098   6.779  0.00  0.00    +0.096 C 
ATOM     27  C   UNL     1       2.052  -2.580   5.499  0.00  0.00    +0.220 C 
ATOM     28  O   UNL     1       0.884  -2.811   5.271  0.00  0.00    -0.275 OA
ENDBRANCH  19  22
ENDBRANCH   2  16
TORSDOF 4
