REMARK  Name = CHEMBL272684
REMARK  5 active torsions:
REMARK  status: ('A' for Active; 'I' for Inactive)
REMARK    1  A    between atoms: C_3  and  C_23
REMARK    2  A    between atoms: N_11  and  N_12
REMARK    3  A    between atoms: N_12  and  C_13
REMARK    4  A    between atoms: C_16  and  S_19
REMARK    5  A    between atoms: S_19  and  N_22
REMARK                            x       y       z     vdW  Elec       q    Type
REMARK                         _______ _______ _______ _____ _____    ______ ____
ROOT
ATOM      1  C   UNL     1      -0.017   1.377   0.010  0.00  0.00    +0.002 A 
ATOM      2  C   UNL     1       1.161   2.100   0.002  0.00  0.00    +0.011 A 
ATOM      3  C   UNL     1       2.385   1.435  -0.013  0.00  0.00    +0.013 A 
ATOM      4  C   UNL     1       2.408   0.035  -0.021  0.00  0.00    +0.037 A 
ATOM      5  C   UNL     1       1.212  -0.691  -0.013  0.00  0.00    +0.044 A 
ATOM      6  C   UNL     1       0.002  -0.004   0.002  0.00  0.00    +0.024 A 
ATOM      7  N   UNL     1       1.501  -2.051  -0.024  0.00  0.00    -0.280 N 
ATOM      8  C   UNL     1       2.827  -2.270  -0.038  0.00  0.00    +0.269 C 
ATOM      9  O   UNL     1       3.373  -3.358  -0.050  0.00  0.00    -0.268 OA
ATOM     10  C   UNL     1       3.502  -0.961  -0.037  0.00  0.00    +0.153 C 
ATOM     11  N   UNL     1       4.796  -0.728  -0.049  0.00  0.00    -0.177 NA
ATOM     12  H   UNL     1       0.831  -2.753  -0.021  0.00  0.00    +0.155 HD
ENDROOT
BRANCH   3  13
ATOM     13  C   UNL     1       3.652   2.204  -0.021  0.00  0.00    +0.093 A 
ATOM     14  C   UNL     1       3.771   3.608  -0.010  0.00  0.00    +0.049 A 
ATOM     15  C   UNL     1       5.087   3.912  -0.023  0.00  0.00    +0.105 A 
ATOM     16  N   UNL     1       5.782   2.755  -0.043  0.00  0.00    -0.284 N 
ATOM     17  H   UNL     1       6.749   2.672  -0.055  0.00  0.00    +0.188 HD
ATOM     18  N   UNL     1       4.867   1.695  -0.035  0.00  0.00    -0.174 NA
ENDBRANCH   3  13
BRANCH  11  19
ATOM     19  N   UNL     1       5.629  -1.713  -0.062  0.00  0.00    -0.237 N 
ATOM     20  H   UNL     1       5.300  -2.625  -0.064  0.00  0.00    +0.174 HD
BRANCH  19  21
ATOM     21  C   UNL     1       7.002  -1.465  -0.075  0.00  0.00    +0.048 A 
ATOM     22  C   UNL     1       7.474  -0.158  -0.067  0.00  0.00    +0.026 A 
ATOM     23  C   UNL     1       8.834   0.083  -0.079  0.00  0.00    +0.030 A 
ATOM     24  C   UNL     1       9.725  -0.975  -0.099  0.00  0.00    +0.105 A 
ATOM     25  C   UNL     1       9.259  -2.277  -0.108  0.00  0.00    +0.030 A 
ATOM     26  C   UNL     1       7.901  -2.526  -0.089  0.00  0.00    +0.026 A 
BRANCH  24  27
ATOM     27  S   UNL     1      11.459  -0.662  -0.115  0.00  0.00    +0.056 S 
ATOM     28  O   UNL     1      12.074  -1.810  -0.684  0.00  0.00    -0.153 OA
ATOM     29  O   UNL     1      11.632   0.641  -0.655  0.00  0.00    -0.153 OA
BRANCH  27  30
ATOM     30  N   UNL     1      11.958  -0.592   1.462  0.00  0.00    -0.204 NA
ATOM     31  H   UNL     1      11.317  -0.716   2.180  0.00  0.00    +0.144 HD
ATOM     32  H   UNL     1      12.891  -0.426   1.669  0.00  0.00    +0.144 HD
ENDBRANCH  27  30
ENDBRANCH  24  27
ENDBRANCH  19  21
ENDBRANCH  11  19
TORSDOF 5
