REMARK  Name = CHEMBL440379
REMARK  1 active torsions:
REMARK  status: ('A' for Active; 'I' for Inactive)
REMARK    1  A    between atoms: C_10  and  C_12
REMARK                            x       y       z     vdW  Elec       q    Type
REMARK                         _______ _______ _______ _____ _____    ______ ____
ROOT
ATOM      1  C   UNL     1      -0.017   1.380   0.010  0.00  0.00    +0.005 A 
ATOM      2  C   UNL     1       1.194   2.058   0.002  0.00  0.00    +0.020 A 
ATOM      3  C   UNL     1       2.373   1.338  -0.013  0.00  0.00    +0.113 A 
ATOM      4  N   UNL     1       2.359   0.019  -0.021  0.00  0.00    -0.236 NA
ATOM      5  C   UNL     1       1.225  -0.663  -0.014  0.00  0.00    +0.155 A 
ATOM      6  C   UNL     1       0.002  -0.004   0.002  0.00  0.00    +0.048 A 
ATOM      7  N   UNL     1       1.258  -2.060  -0.022  0.00  0.00    -0.213 N 
ATOM      8  C   UNL     1       2.260  -2.827  -0.492  0.00  0.00    +0.083 A 
ATOM      9  C   UNL     1       1.928  -4.150  -0.283  0.00  0.00    +0.011 A 
ATOM     10  C   UNL     1       0.654  -4.166   0.297  0.00  0.00    +0.151 A 
ATOM     11  N   UNL     1       0.255  -2.916   0.463  0.00  0.00    -0.160 NA
ATOM     12  C   UNL     1       2.843  -5.296  -0.614  0.00  0.00    +0.046 C 
ATOM     13  C   UNL     1       3.725  -4.989  -1.825  0.00  0.00    +0.063 C 
ATOM     14  C   UNL     1       4.269  -3.586  -1.762  0.00  0.00    +0.072 A 
ATOM     15  C   UNL     1       3.552  -2.521  -1.137  0.00  0.00    +0.041 A 
ATOM     16  C   UNL     1       4.269  -1.393  -1.280  0.00  0.00    +0.115 A 
ATOM     17  N   UNL     1       5.406  -1.718  -1.939  0.00  0.00    -0.284 N 
ATOM     18  H   UNL     1       6.120  -1.106  -2.177  0.00  0.00    +0.188 HD
ATOM     19  N   UNL     1       5.376  -3.094  -2.219  0.00  0.00    -0.178 NA
ENDROOT
BRANCH  10  20
ATOM     20  C   UNL     1      -0.111  -5.375   0.668  0.00  0.00    +0.262 C 
ATOM     21  O   UNL     1       0.361  -6.477   0.473  0.00  0.00    -0.269 OA
ATOM     22  N   UNL     1      -1.334  -5.254   1.223  0.00  0.00    -0.324 N 
ATOM     23  H   UNL     1      -1.711  -4.374   1.379  0.00  0.00    +0.145 HD
ATOM     24  H   UNL     1      -1.836  -6.047   1.466  0.00  0.00    +0.145 HD
ENDBRANCH  10  20
TORSDOF 1
