REMARK  Name = CHEMBL186661
REMARK  8 active torsions:
REMARK  status: ('A' for Active; 'I' for Inactive)
REMARK    1  A    between atoms: C_1  and  O_2
REMARK    2  A    between atoms: O_2  and  C_3
REMARK    3  A    between atoms: C_6  and  C_9
REMARK    4  A    between atoms: C_19  and  N_23
REMARK    5  A    between atoms: N_26  and  N_27
REMARK    6  A    between atoms: C_28  and  C_30
REMARK    7  A    between atoms: C_33  and  O_36
REMARK    8  A    between atoms: O_36  and  C_37
REMARK                            x       y       z     vdW  Elec       q    Type
REMARK                         _______ _______ _______ _____ _____    ______ ____
ROOT
ATOM      1  C   UNL     1      -4.974  -2.630   0.052  0.00  0.00    +0.077 A 
ATOM      2  C   UNL     1      -5.335  -3.711  -0.740  0.00  0.00    +0.075 A 
ATOM      3  C   UNL     1      -6.710  -4.057  -0.373  0.00  0.00    +0.105 A 
ATOM      4  N   UNL     1      -7.087  -3.220   0.562  0.00  0.00    -0.173 NA
ATOM      5  H   UNL     1      -6.071  -1.625   1.506  0.00  0.00    +0.189 HD
ATOM      6  N   UNL     1      -6.041  -2.336   0.847  0.00  0.00    -0.276 N 
ATOM      7  C   UNL     1      -7.119  -5.213  -1.208  0.00  0.00    +0.015 A 
ATOM      8  C   UNL     1      -8.306  -5.933  -1.270  0.00  0.00    +0.011 A 
ATOM      9  C   UNL     1      -8.435  -6.991  -2.155  0.00  0.00    +0.002 A 
ATOM     10  C   UNL     1      -7.389  -7.343  -2.984  0.00  0.00    +0.024 A 
ATOM     11  C   UNL     1      -6.192  -6.636  -2.940  0.00  0.00    +0.046 A 
ATOM     12  C   UNL     1      -6.049  -5.564  -2.050  0.00  0.00    +0.053 A 
ATOM     13  C   UNL     1      -4.917  -4.652  -1.788  0.00  0.00    +0.200 C 
ATOM     14  O   UNL     1      -3.834  -4.675  -2.342  0.00  0.00    -0.286 OA
ENDROOT
BRANCH   1  18
ATOM     15  C   UNL     1      -1.233  -0.620   0.017  0.00  0.00    +0.120 A 
ATOM     16  C   UNL     1      -2.413   0.113   0.034  0.00  0.00    +0.046 A 
ATOM     17  C   UNL     1      -3.629  -0.534   0.046  0.00  0.00    +0.013 A 
ATOM     18  C   UNL     1      -3.674  -1.931   0.039  0.00  0.00    +0.001 A 
ATOM     19  C   UNL     1      -2.485  -2.665   0.021  0.00  0.00    +0.013 A 
ATOM     20  C   UNL     1      -1.273  -2.009   0.004  0.00  0.00    +0.046 A 
BRANCH  15  22
ATOM     21  C   UNL     1      -0.068   1.451   0.019  0.00  0.00    +0.277 C 
ATOM     22  O   UNL     1      -0.037   0.023   0.005  0.00  0.00    -0.495 OA
ENDBRANCH  15  22
ENDBRANCH   1  18
BRANCH  11  23
ATOM     23  N   UNL     1      -5.139  -6.994  -3.777  0.00  0.00    -0.268 N 
ATOM     24  C   UNL     1      -5.387  -7.639  -4.934  0.00  0.00    +0.320 C 
ATOM     25  O   UNL     1      -6.534  -7.818  -5.296  0.00  0.00    -0.251 OA
ATOM     26  N   UNL     1      -4.364  -8.086  -5.689  0.00  0.00    -0.218 N 
ATOM     27  H   UNL     1      -4.226  -6.779  -3.528  0.00  0.00    +0.156 HD
ATOM     28  H   UNL     1      -4.543  -8.551  -6.522  0.00  0.00    +0.174 HD
BRANCH  26  29
ATOM     29  N   UNL     1      -3.043  -7.880  -5.272  0.00  0.00    -0.229 N 
ATOM     30  C   UNL     1      -2.020  -8.327  -6.027  0.00  0.00    +0.260 C 
ATOM     31  O   UNL     1      -2.244  -8.909  -7.071  0.00  0.00    -0.269 OA
ATOM     32  H   UNL     1      -2.864  -7.416  -4.439  0.00  0.00    +0.173 HD
BRANCH  30  33
ATOM     33  C   UNL     1      -0.628  -8.110  -5.587  0.00  0.00    +0.038 A 
ATOM     34  C   UNL     1      -0.369  -7.447  -4.385  0.00  0.00    +0.016 A 
ATOM     35  C   UNL     1       0.931  -7.246  -3.978  0.00  0.00    +0.046 A 
ATOM     36  C   UNL     1       1.985  -7.703  -4.761  0.00  0.00    +0.120 A 
ATOM     37  C   UNL     1       1.731  -8.363  -5.958  0.00  0.00    +0.046 A 
ATOM     38  C   UNL     1       0.434  -8.573  -6.369  0.00  0.00    +0.016 A 
BRANCH  36  39
ATOM     39  O   UNL     1       3.265  -7.503  -4.357  0.00  0.00    -0.495 OA
ATOM     40  C   UNL     1       4.300  -7.998  -5.210  0.00  0.00    +0.277 C 
ENDBRANCH  36  39
ENDBRANCH  30  33
ENDBRANCH  26  29
ENDBRANCH  11  23
TORSDOF 6
