REMARK  Name = CHEMBL477063
REMARK  5 active torsions:
REMARK  status: ('A' for Active; 'I' for Inactive)
REMARK    1  A    between atoms: C_1  and  O_2
REMARK    2  A    between atoms: O_2  and  C_3
REMARK    3  A    between atoms: C_6  and  C_10
REMARK    4  A    between atoms: C_10  and  N_11
REMARK    5  A    between atoms: N_11  and  C_12
REMARK                            x       y       z     vdW  Elec       q    Type
REMARK                         _______ _______ _______ _____ _____    ______ ____
ROOT
ATOM      1  C   UNL     1      -7.297  -2.152  -1.971  0.00  0.00    +0.081 C 
ATOM      2  C   UNL     1      -7.334  -3.505  -2.228  0.00  0.00    +0.058 C 
ATOM      3  C   UNL     1      -8.614  -4.197  -2.482  0.00  0.00    +0.001 A 
ATOM      4  C   UNL     1      -9.827  -3.518  -2.472  0.00  0.00    +0.023 A 
ATOM      5  C   UNL     1     -10.997  -4.209  -2.716  0.00  0.00    +0.014 A 
ATOM      6  C   UNL     1     -10.970  -5.574  -2.969  0.00  0.00    +0.015 A 
ATOM      7  C   UNL     1      -9.777  -6.263  -2.982  0.00  0.00    +0.014 A 
ATOM      8  C   UNL     1      -8.583  -5.583  -2.739  0.00  0.00    +0.045 A 
ATOM      9  C   UNL     1      -7.291  -6.280  -2.746  0.00  0.00    +0.251 C 
ATOM     10  O   UNL     1      -7.257  -7.476  -2.968  0.00  0.00    -0.270 OA
ATOM     11  N   UNL     1      -6.145  -5.620  -2.511  0.00  0.00    -0.248 N 
ATOM     12  C   UNL     1      -6.101  -4.300  -2.265  0.00  0.00    +0.252 C 
ATOM     13  O   UNL     1      -5.029  -3.760  -2.066  0.00  0.00    -0.270 OA
ATOM     14  I   UNL     1     -12.828  -3.191  -2.702  0.00  0.00    -0.044 I 
ATOM     15  H   UNL     1      -5.312  -6.117  -2.525  0.00  0.00    +0.158 HD
ENDROOT
BRANCH   1  16
ATOM     16  N   UNL     1      -6.106  -1.501  -1.926  0.00  0.00    -0.343 N 
ATOM     17  H   UNL     1      -5.288  -1.970  -2.155  0.00  0.00    +0.146 HD
BRANCH  16  18
ATOM     18  C   UNL     1      -6.056  -0.091  -1.530  0.00  0.00    +0.154 C 
BRANCH  18  22
ATOM     19  C   UNL     1      -1.999   1.215  -1.559  0.00  0.00    +0.182 A 
ATOM     20  C   UNL     1      -2.428   0.264  -0.696  0.00  0.00    +0.133 A 
ATOM     21  N   UNL     1      -3.725  -0.140  -0.700  0.00  0.00    -0.360 N 
ATOM     22  C   UNL     1      -4.628   0.389  -1.561  0.00  0.00    +0.037 A 
ATOM     23  C   UNL     1      -4.262   1.342  -2.447  0.00  0.00    +0.077 A 
ATOM     24  C   UNL     1      -2.923   1.791  -2.468  0.00  0.00    +0.223 A 
ATOM     25  O   UNL     1      -2.567   2.656  -3.256  0.00  0.00    -0.284 OA
ATOM     26  H   UNL     1      -4.011  -0.823  -0.074  0.00  0.00    +0.165 HD
BRANCH  19  28
ATOM     27  C   UNL     1       0.169   0.987  -0.607  0.00  0.00    +0.277 C 
ATOM     28  O   UNL     1      -0.699   1.617  -1.552  0.00  0.00    -0.490 OA
ENDBRANCH  19  28
ENDBRANCH  18  22
ENDBRANCH  16  18
ENDBRANCH   1  16
TORSDOF 4
