REMARK  Name = CHEMBL362004
REMARK  1 active torsions:
REMARK  status: ('A' for Active; 'I' for Inactive)
REMARK    1  A    between atoms: C_11  and  C_15
REMARK                            x       y       z     vdW  Elec       q    Type
REMARK                         _______ _______ _______ _____ _____    ______ ____
ROOT
ATOM      1  C   UNL     1      -0.017   1.402   0.010  0.00  0.00    +0.014 A 
ATOM      2  C   UNL     1       1.133   2.116   0.003  0.00  0.00    +0.028 A 
ATOM      3  C   UNL     1       2.389   1.488  -0.013  0.00  0.00    +0.068 A 
ATOM      4  C   UNL     1       2.481   0.091  -0.021  0.00  0.00    +0.047 A 
ATOM      5  C   UNL     1       3.848  -0.239  -0.036  0.00  0.00    +0.144 A 
ATOM      6  N   UNL     1       4.543   0.866  -0.037  0.00  0.00    -0.181 NA
ATOM      7  N   UNL     1       3.674   1.963  -0.022  0.00  0.00    -0.277 N 
ATOM      8  H   UNL     1       3.935   2.897  -0.021  0.00  0.00    +0.189 HD
ATOM      9  C   UNL     1       1.245  -0.699  -0.014  0.00  0.00    +0.104 A 
ATOM     10  C   UNL     1       0.002  -0.004   0.002  0.00  0.00    +0.033 A 
ATOM     11  C   UNL     1      -0.974  -1.009   0.007  0.00  0.00    +0.128 A 
ATOM     12  N   UNL     1      -0.297  -2.193  -0.005  0.00  0.00    -0.271 N 
ATOM     13  H   UNL     1      -0.715  -3.069  -0.006  0.00  0.00    +0.189 HD
ATOM     14  N   UNL     1       0.971  -1.987  -0.018  0.00  0.00    -0.172 NA
ENDROOT
BRANCH  11  15
ATOM     15  C   UNL     1      -2.427  -0.825   0.022  0.00  0.00    +0.260 C 
ATOM     16  O   UNL     1      -2.899   0.297   0.032  0.00  0.00    -0.269 OA
ATOM     17  N   UNL     1      -3.242  -1.899   0.025  0.00  0.00    -0.324 N 
ATOM     18  H   UNL     1      -2.866  -2.793   0.018  0.00  0.00    +0.145 HD
ATOM     19  H   UNL     1      -4.205  -1.777   0.036  0.00  0.00    +0.145 HD
ENDBRANCH  11  15
TORSDOF 1
