REMARK  Name = CHEMBL182011
REMARK  7 active torsions:
REMARK  status: ('A' for Active; 'I' for Inactive)
REMARK    1  A    between atoms: C_1  and  C_2
REMARK    2  A    between atoms: C_2  and  C_3
REMARK    3  A    between atoms: C_2  and  C_4
REMARK    4  A    between atoms: C_5  and  O_27
REMARK    5  A    between atoms: N_14  and  C_15
REMARK    6  A    between atoms: C_18  and  N_21
REMARK    7  A    between atoms: O_27  and  C_28
REMARK                            x       y       z     vdW  Elec       q    Type
REMARK                         _______ _______ _______ _____ _____    ______ ____
ROOT
ATOM      1  C   UNL     1      -1.529  -0.306  -0.136  0.00  0.00    +0.023 A 
ATOM      2  C   UNL     1      -2.346  -0.054   0.945  0.00  0.00    +0.126 A 
ATOM      3  C   UNL     1      -3.539  -0.762   1.121  0.00  0.00    +0.046 A 
ATOM      4  C   UNL     1      -3.922  -1.718   0.231  0.00  0.00    +0.015 A 
ATOM      5  C   UNL     1      -3.112  -1.999  -0.879  0.00  0.00    +0.019 A 
ATOM      6  C   UNL     1      -1.903  -1.281  -1.069  0.00  0.00    +0.083 A 
ATOM      7  N   UNL     1      -1.147  -1.562  -2.140  0.00  0.00    -0.214 NA
ATOM      8  C   UNL     1      -1.532  -2.486  -2.998  0.00  0.00    +0.220 A 
ATOM      9  N   UNL     1      -2.663  -3.175  -2.853  0.00  0.00    -0.222 NA
ATOM     10  C   UNL     1      -3.464  -2.977  -1.827  0.00  0.00    +0.124 A 
ATOM     11  N   UNL     1      -0.728  -2.752  -4.093  0.00  0.00    -0.284 N 
ATOM     12  H   UNL     1       0.138  -2.321  -4.175  0.00  0.00    +0.155 HD
ENDROOT
BRANCH  11  13
ATOM     13  C   UNL     1      -1.163  -3.643  -5.082  0.00  0.00    +0.034 A 
ATOM     14  C   UNL     1      -2.495  -3.647  -5.475  0.00  0.00    +0.025 A 
ATOM     15  C   UNL     1      -2.925  -4.525  -6.450  0.00  0.00    +0.025 A 
ATOM     16  C   UNL     1      -2.025  -5.404  -7.038  0.00  0.00    +0.030 A 
ATOM     17  C   UNL     1      -0.693  -5.399  -6.646  0.00  0.00    +0.025 A 
ATOM     18  C   UNL     1      -0.262  -4.517  -5.675  0.00  0.00    +0.025 A 
BRANCH  16  19
ATOM     19  N   UNL     1      -2.461  -6.294  -8.026  0.00  0.00    -0.326 N 
ATOM     20  C   UNL     1      -1.555  -7.312  -8.581  0.00  0.00    +0.133 C 
ATOM     21  C   UNL     1      -2.260  -8.672  -8.520  0.00  0.00    +0.178 C 
ATOM     22  O   UNL     1      -3.546  -8.563  -9.135  0.00  0.00    -0.377 OA
ATOM     23  C   UNL     1      -4.432  -7.652  -8.481  0.00  0.00    +0.178 C 
ATOM     24  C   UNL     1      -3.840  -6.244  -8.537  0.00  0.00    +0.133 C 
ENDBRANCH  16  19
ENDBRANCH  11  13
BRANCH   1  26
ATOM     25  C   UNL     1      -0.559   1.957  -0.427  0.00  0.00    +0.012 C 
ATOM     26  C   UNL     1      -0.246   0.464  -0.314  0.00  0.00    +0.019 C 
ATOM     27  C   UNL     1       0.665   0.224   0.891  0.00  0.00    +0.012 C 
ENDBRANCH   1  26
BRANCH   2  28
ATOM     28  O   UNL     1      -1.989   0.894   1.849  0.00  0.00    -0.495 OA
ATOM     29  C   UNL     1      -2.878   1.111   2.947  0.00  0.00    +0.277 C 
ENDBRANCH   2  28
TORSDOF 4
