REMARK  Name = CHEMBL203707
REMARK  3 active torsions:
REMARK  status: ('A' for Active; 'I' for Inactive)
REMARK    1  A    between atoms: C_4  and  C_7
REMARK    2  A    between atoms: C_7  and  C_8
REMARK    3  A    between atoms: N_22  and  C_23
REMARK                            x       y       z     vdW  Elec       q    Type
REMARK                         _______ _______ _______ _____ _____    ______ ____
ROOT
ATOM      1  C   UNL     1       4.176  -0.939   1.378  0.00  0.00    +0.223 C 
ATOM      2  O   UNL     1       3.502  -0.551   2.309  0.00  0.00    -0.275 OA
ATOM      3  N   UNL     1       5.331  -1.592   1.609  0.00  0.00    -0.268 N 
ATOM      4  C   UNL     1       5.755  -1.824   2.925  0.00  0.00    +0.152 A 
ATOM      5  C   UNL     1       6.936  -2.484   3.309  0.00  0.00    +0.034 A 
ATOM      6  C   UNL     1       6.981  -2.502   4.657  0.00  0.00    +0.060 A 
ATOM      7  N   UNL     1       5.873  -1.878   5.118  0.00  0.00    -0.278 N 
ATOM      8  N   UNL     1       5.122  -1.457   4.013  0.00  0.00    -0.158 NA
ATOM      9  H   UNL     1       5.641  -1.743   6.050  0.00  0.00    +0.189 HD
ATOM     10  C   UNL     1       8.238  -3.204   5.106  0.00  0.00    +0.164 C 
ATOM     11  N   UNL     1       8.966  -3.618   3.901  0.00  0.00    -0.275 N 
ATOM     12  C   UNL     1       8.160  -3.172   2.759  0.00  0.00    +0.150 C 
ATOM     13  C   UNL     1      10.141  -4.276   3.853  0.00  0.00    +0.307 C 
ATOM     14  O   UNL     1      10.636  -4.559   2.780  0.00  0.00    -0.252 OA
ATOM     15  N   UNL     1      10.767  -4.621   4.996  0.00  0.00    -0.269 N 
ATOM     16  H   UNL     1       5.870  -1.903   0.864  0.00  0.00    +0.156 HD
ATOM     17  H   UNL     1      10.408  -4.337   5.851  0.00  0.00    +0.156 HD
ENDROOT
BRANCH  15  18
ATOM     18  C   UNL     1      11.937  -5.388   4.949  0.00  0.00    +0.035 A 
ATOM     19  C   UNL     1      12.191  -6.330   5.937  0.00  0.00    +0.023 A 
ATOM     20  C   UNL     1      13.346  -7.086   5.887  0.00  0.00    +0.002 A 
ATOM     21  C   UNL     1      14.249  -6.905   4.855  0.00  0.00    +0.000 A 
ATOM     22  C   UNL     1      13.999  -5.967   3.870  0.00  0.00    +0.002 A 
ATOM     23  C   UNL     1      12.843  -5.212   3.911  0.00  0.00    +0.023 A 
ENDBRANCH  15  18
BRANCH   1  24
ATOM     24  C   UNL     1       3.720  -0.690  -0.037  0.00  0.00    +0.131 C 
BRANCH  24  28
ATOM     25  C   UNL     1       0.004   1.416   0.011  0.00  0.00    +0.000 A 
ATOM     26  C   UNL     1       1.195   2.116  -0.003  0.00  0.00    +0.000 A 
ATOM     27  C   UNL     1       2.398   1.435  -0.018  0.00  0.00    +0.004 A 
ATOM     28  C   UNL     1       2.409   0.053  -0.019  0.00  0.00    -0.039 A 
ATOM     29  C   UNL     1       1.218  -0.648  -0.005  0.00  0.00    +0.004 A 
ATOM     30  C   UNL     1       0.015   0.033   0.009  0.00  0.00    +0.000 A 
ENDBRANCH  24  28
ENDBRANCH   1  24
TORSDOF 3
