REMARK  Name = CHEMBL422455
REMARK  7 active torsions:
REMARK  status: ('A' for Active; 'I' for Inactive)
REMARK    1  A    between atoms: C_1  and  N_2
REMARK    2  A    between atoms: N_2  and  S_3
REMARK    3  A    between atoms: S_3  and  C_6
REMARK    4  A    between atoms: C_6  and  C_7
REMARK    5  A    between atoms: C_10  and  N_13
REMARK    6  A    between atoms: N_14  and  C_15
REMARK    7  A    between atoms: C_27  and  O_28
REMARK                            x       y       z     vdW  Elec       q    Type
REMARK                         _______ _______ _______ _____ _____    ______ ____
ROOT
ATOM      1  N   UNL     1       5.311  -2.971  -5.281  0.00  0.00    -0.149 NA
ATOM      2  N   UNL     1       5.465  -2.386  -6.420  0.00  0.00    -0.143 NA
ENDROOT
BRANCH   2   3
ATOM      3  C   UNL     1       6.143  -3.005  -7.410  0.00  0.00    +0.155 A 
ATOM      4  C   UNL     1       6.412  -2.477  -8.761  0.00  0.00    +0.046 A 
ATOM      5  C   UNL     1       7.145  -3.472  -9.426  0.00  0.00    +0.053 A 
ATOM      6  C   UNL     1       7.547  -3.250 -10.743  0.00  0.00    +0.028 A 
ATOM      7  C   UNL     1       7.246  -2.096 -11.393  0.00  0.00    +0.031 A 
ATOM      8  C   UNL     1       6.510  -1.068 -10.758  0.00  0.00    +0.079 A 
ATOM      9  C   UNL     1       6.107  -1.301  -9.427  0.00  0.00    +0.050 A 
ATOM     10  S   UNL     1       5.239   0.196  -9.036  0.00  0.00    -0.075 S 
ATOM     11  C   UNL     1       5.437   0.976 -10.514  0.00  0.00    +0.157 A 
ATOM     12  N   UNL     1       6.120   0.133 -11.233  0.00  0.00    -0.247 NA
ATOM     13  N   UNL     1       7.314  -4.531  -8.553  0.00  0.00    -0.324 N 
ATOM     14  H   UNL     1       7.788  -5.351  -8.763  0.00  0.00    +0.169 HD
ATOM     15  C   UNL     1       6.729  -4.260  -7.356  0.00  0.00    +0.219 A 
BRANCH  15  16
ATOM     16  O   UNL     1       6.718  -5.085  -6.284  0.00  0.00    -0.492 OA
ATOM     17  H   UNL     1       5.963  -5.688  -6.260  0.00  0.00    +0.294 HD
ENDBRANCH  15  16
ENDBRANCH   2   3
BRANCH   1  21
ATOM     18  C   UNL     1       3.233  -1.075  -2.247  0.00  0.00    -0.025 A 
ATOM     19  C   UNL     1       3.761  -2.336  -2.036  0.00  0.00    +0.007 A 
ATOM     20  C   UNL     1       4.455  -2.974  -3.043  0.00  0.00    +0.030 A 
ATOM     21  C   UNL     1       4.624  -2.344  -4.278  0.00  0.00    +0.086 A 
ATOM     22  C   UNL     1       4.088  -1.071  -4.484  0.00  0.00    +0.030 A 
ATOM     23  C   UNL     1       3.392  -0.447  -3.470  0.00  0.00    +0.007 A 
BRANCH  18  24
ATOM     24  C   UNL     1       2.477  -0.384  -1.142  0.00  0.00    +0.220 C 
BRANCH  24  25
ATOM     25  S   UNL     1       0.718  -0.816  -1.251  0.00  0.00    +0.033 S 
ATOM     26  O   UNL     1       0.532  -2.191  -0.946  0.00  0.00    -0.158 OA
ATOM     27  O   UNL     1       0.147  -0.250  -2.423  0.00  0.00    -0.158 OA
BRANCH  25  29
ATOM     28  C   UNL     1      -0.018   1.461   0.010  0.00  0.00    +0.127 C 
ATOM     29  N   UNL     1       0.002  -0.004   0.002  0.00  0.00    -0.197 NA
ATOM     30  H   UNL     1      -0.404  -0.499   0.731  0.00  0.00    +0.147 HD
ENDBRANCH  25  29
ENDBRANCH  24  25
ENDBRANCH  18  24
ENDBRANCH   1  21
TORSDOF 6
