REMARK  Name = CHEMBL455195
REMARK  10 active torsions:
REMARK  status: ('A' for Active; 'I' for Inactive)
REMARK    1  A    between atoms: C_1  and  C_2
REMARK    2  A    between atoms: C_2  and  C_3
REMARK    3  A    between atoms: C_5  and  C_9
REMARK    4  A    between atoms: C_15  and  S_17
REMARK    5  A    between atoms: S_17  and  C_18
REMARK    6  A    between atoms: C_18  and  C_19
REMARK    7  A    between atoms: C_22  and  C_24
REMARK    8  A    between atoms: C_24  and  C_25
REMARK    9  A    between atoms: C_24  and  C_26
REMARK   10  A    between atoms: C_24  and  C_27
REMARK                            x       y       z     vdW  Elec       q    Type
REMARK                         _______ _______ _______ _____ _____    ______ ____
ROOT
ATOM      1  C   UNL     1       1.326  -4.019  -2.630  0.00  0.00    +0.222 C 
ATOM      2  O   UNL     1       0.792  -4.641  -1.736  0.00  0.00    -0.275 OA
ATOM      3  N   UNL     1       1.903  -4.674  -3.656  0.00  0.00    -0.264 N 
ATOM      4  C   UNL     1       1.886  -6.065  -3.692  0.00  0.00    +0.165 A 
ATOM      5  N   UNL     1       1.359  -6.917  -2.833  0.00  0.00    -0.232 NA
ATOM      6  C   UNL     1       1.436  -8.221  -3.024  0.00  0.00    +0.135 A 
ATOM      7  C   UNL     1       2.071  -8.703  -4.129  0.00  0.00    +0.067 A 
ATOM      8  S   UNL     1       2.566  -7.176  -4.917  0.00  0.00    -0.046 S 
ATOM      9  H   UNL     1       2.331  -4.176  -4.370  0.00  0.00    +0.157 HD
ENDROOT
BRANCH   1  12
ATOM     10  C   UNL     1       0.718  -0.497  -1.257  0.00  0.00    -0.071 C 
ATOM     11  C   UNL     1       0.627  -2.023  -1.330  0.00  0.00    -0.003 C 
ATOM     12  C   UNL     1       1.344  -2.512  -2.591  0.00  0.00    +0.072 C 
ATOM     13  C   UNL     1       2.794  -2.018  -2.566  0.00  0.00    -0.007 C 
ATOM     14  C   UNL     1       2.805  -0.493  -2.447  0.00  0.00    -0.081 C 
ATOM     15  N   UNL     1       2.127  -0.090  -1.209  0.00  0.00    +0.381 N 
ATOM     16  H   UNL     1       2.183   0.912  -1.107  0.00  0.00    -0.086 HD
ATOM     17  H   UNL     1       2.578  -0.532  -0.421  0.00  0.00    -0.086 HD
BRANCH  10  19
ATOM     18  C   UNL     1      -0.019   1.526   0.010  0.00  0.00    +0.002 C 
ATOM     19  C   UNL     1       0.002  -0.004   0.002  0.00  0.00    -0.019 C 
ENDBRANCH  10  19
ENDBRANCH   1  12
BRANCH   7  20
ATOM     20  S   UNL     1       2.328 -10.369  -4.642  0.00  0.00    -0.107 S 
BRANCH  20  21
ATOM     21  C   UNL     1       3.246 -10.211  -6.199  0.00  0.00    +0.170 C 
BRANCH  21  22
ATOM     22  C   UNL     1       3.534 -11.583  -6.753  0.00  0.00    +0.206 A 
ATOM     23  N   UNL     1       2.769 -12.246  -7.572  0.00  0.00    -0.221 NA
ATOM     24  C   UNL     1       3.353 -13.427  -7.846  0.00  0.00    +0.156 A 
ATOM     25  C   UNL     1       4.511 -13.477  -7.167  0.00  0.00    +0.131 A 
ATOM     26  O   UNL     1       4.623 -12.318  -6.489  0.00  0.00    -0.443 OA
BRANCH  25  27
ATOM     27  C   UNL     1       5.501 -14.613  -7.169  0.00  0.00    +0.022 C 
ATOM     28  C   UNL     1       6.005 -14.848  -8.595  0.00  0.00    +0.019 C 
ATOM     29  C   UNL     1       6.683 -14.261  -6.263  0.00  0.00    +0.019 C 
ATOM     30  C   UNL     1       4.822 -15.882  -6.652  0.00  0.00    +0.019 C 
ENDBRANCH  25  27
ENDBRANCH  21  22
ENDBRANCH  20  21
ENDBRANCH   7  20
TORSDOF 6
