REMARK  Name = CHEMBL149450
REMARK  5 active torsions:
REMARK  status: ('A' for Active; 'I' for Inactive)
REMARK    1  A    between atoms: C_5  and  N_7
REMARK    2  A    between atoms: C_8  and  C_10
REMARK    3  A    between atoms: C_10  and  N_11
REMARK    4  A    between atoms: C_14  and  C_17
REMARK    5  A    between atoms: C_27  and  C_28
REMARK                            x       y       z     vdW  Elec       q    Type
REMARK                         _______ _______ _______ _____ _____    ______ ____
ROOT
ATOM      1  C   UNL     1       0.137   1.373  -0.620  0.00  0.00    +0.002 A 
ATOM      2  C   UNL     1       1.169   2.095  -0.035  0.00  0.00    +0.011 A 
ATOM      3  C   UNL     1       2.233   1.434   0.559  0.00  0.00    +0.013 A 
ATOM      4  C   UNL     1       2.259   0.027   0.566  0.00  0.00    +0.053 A 
ATOM      5  C   UNL     1       1.219  -0.690  -0.023  0.00  0.00    +0.045 A 
ATOM      6  C   UNL     1       0.156  -0.004  -0.618  0.00  0.00    +0.024 A 
ATOM      7  C   UNL     1       3.498  -0.393   1.260  0.00  0.00    +0.199 C 
ATOM      8  O   UNL     1       3.863  -1.534   1.459  0.00  0.00    -0.286 OA
ATOM      9  C   UNL     1       4.205   0.841   1.666  0.00  0.00    +0.071 A 
ATOM     10  C   UNL     1       3.450   1.929   1.247  0.00  0.00    +0.078 A 
ATOM     11  N   UNL     1       4.114   3.042   1.626  0.00  0.00    -0.276 N 
ATOM     12  H   UNL     1       3.826   3.956   1.470  0.00  0.00    +0.189 HD
ATOM     13  N   UNL     1       5.286   2.654   2.284  0.00  0.00    -0.177 NA
ATOM     14  C   UNL     1       5.347   1.347   2.311  0.00  0.00    +0.077 A 
ENDROOT
BRANCH   5  15
ATOM     15  N   UNL     1       1.238  -2.080  -0.021  0.00  0.00    -0.286 N 
ATOM     16  C   UNL     1       0.086  -2.771   0.088  0.00  0.00    +0.201 C 
ATOM     17  O   UNL     1      -0.974  -2.182   0.103  0.00  0.00    -0.278 OA
ATOM     18  H   UNL     1       2.082  -2.554  -0.098  0.00  0.00    +0.155 HD
BRANCH  16  19
ATOM     19  C   UNL     1       0.115  -4.274   0.193  0.00  0.00    +0.019 C 
BRANCH  19  20
ATOM     20  N   UNL     1      -1.258  -4.784   0.301  0.00  0.00    +0.385 N 
ATOM     21  C   UNL     1      -1.857  -4.310   1.555  0.00  0.00    -0.077 C 
ATOM     22  C   UNL     1      -3.314  -4.771   1.635  0.00  0.00    -0.006 C 
ATOM     23  C   UNL     1      -3.363  -6.301   1.590  0.00  0.00    +0.071 C 
ATOM     24  C   UNL     1      -2.670  -6.787   0.314  0.00  0.00    -0.006 C 
ATOM     25  C   UNL     1      -1.237  -6.251   0.283  0.00  0.00    -0.077 C 
ATOM     26  H   UNL     1      -1.804  -4.446  -0.478  0.00  0.00    -0.081 HD
BRANCH  23  27
ATOM     27  C   UNL     1      -4.798  -6.759   1.589  0.00  0.00    +0.213 C 
ATOM     28  O   UNL     1      -5.696  -5.944   1.622  0.00  0.00    -0.276 OA
ATOM     29  N   UNL     1      -5.086  -8.076   1.553  0.00  0.00    -0.329 N 
ATOM     30  H   UNL     1      -4.368  -8.728   1.527  0.00  0.00    +0.145 HD
ATOM     31  H   UNL     1      -6.010  -8.371   1.552  0.00  0.00    +0.145 HD
ENDBRANCH  23  27
ENDBRANCH  19  20
ENDBRANCH  16  19
ENDBRANCH   5  15
BRANCH  14  32
ATOM     32  C   UNL     1       6.450   0.527   2.928  0.00  0.00    +0.040 C 
ATOM     33  C   UNL     1       7.502   1.267   3.757  0.00  0.00    +0.010 C 
ATOM     34  C   UNL     1       7.865   0.716   2.376  0.00  0.00    +0.010 C 
ENDBRANCH  14  32
TORSDOF 5
