REMARK  Name = CHEMBL149096
REMARK  3 active torsions:
REMARK  status: ('A' for Active; 'I' for Inactive)
REMARK    1  A    between atoms: C_1  and  C_2
REMARK    2  A    between atoms: C_5  and  C_7
REMARK    3  A    between atoms: C_17  and  N_21
REMARK                            x       y       z     vdW  Elec       q    Type
REMARK                         _______ _______ _______ _____ _____    ______ ____
ROOT
ATOM      1  C   UNL     1       1.049  -4.051  -0.008  0.00  0.00    +0.110 A 
ATOM      2  C   UNL     1       2.220  -4.487  -0.675  0.00  0.00    +0.076 A 
ATOM      3  C   UNL     1       2.359  -5.846  -0.420  0.00  0.00    +0.078 A 
ATOM      4  N   UNL     1       1.323  -6.215   0.364  0.00  0.00    -0.276 N 
ATOM      5  N   UNL     1       0.527  -5.091   0.612  0.00  0.00    -0.172 NA
ATOM      6  H   UNL     1       1.160  -7.109   0.701  0.00  0.00    +0.189 HD
ATOM      7  C   UNL     1       3.577  -6.341  -1.104  0.00  0.00    +0.013 A 
ATOM      8  C   UNL     1       4.160  -7.598  -1.170  0.00  0.00    +0.011 A 
ATOM      9  C   UNL     1       5.327  -7.789  -1.898  0.00  0.00    +0.002 A 
ATOM     10  C   UNL     1       5.919  -6.738  -2.561  0.00  0.00    +0.024 A 
ATOM     11  C   UNL     1       5.349  -5.464  -2.507  0.00  0.00    +0.046 A 
ATOM     12  C   UNL     1       4.177  -5.262  -1.780  0.00  0.00    +0.053 A 
ATOM     13  C   UNL     1       3.345  -4.063  -1.532  0.00  0.00    +0.200 C 
ATOM     14  O   UNL     1       3.548  -2.942  -1.955  0.00  0.00    -0.286 OA
ENDROOT
BRANCH  11  15
ATOM     15  N   UNL     1       5.949  -4.401  -3.176  0.00  0.00    -0.269 N 
ATOM     16  C   UNL     1       6.738  -4.636  -4.243  0.00  0.00    +0.301 C 
ATOM     17  O   UNL     1       6.846  -5.764  -4.683  0.00  0.00    -0.253 OA
ATOM     18  N   UNL     1       7.409  -3.620  -4.822  0.00  0.00    -0.313 N 
ATOM     19  H   UNL     1       5.798  -3.492  -2.875  0.00  0.00    +0.156 HD
ATOM     20  H   UNL     1       7.323  -2.720  -4.471  0.00  0.00    +0.146 HD
ATOM     21  H   UNL     1       7.977  -3.789  -5.589  0.00  0.00    +0.146 HD
ENDBRANCH  11  15
BRANCH   1  26
ATOM     22  C   UNL     1      -0.047   1.476   0.006  0.00  0.00    +0.051 C 
ATOM     23  C   UNL     1      -0.016  -0.031   0.005  0.00  0.00    -0.013 A 
ATOM     24  C   UNL     1      -1.055  -0.906   0.014  0.00  0.00    +0.011 A 
ATOM     25  C   UNL     1      -0.793  -2.258   0.010  0.00  0.00    +0.018 A 
ATOM     26  C   UNL     1       0.513  -2.676  -0.002  0.00  0.00    +0.040 A 
ATOM     27  S   UNL     1       1.395  -1.124  -0.015  0.00  0.00    -0.092 S 
ENDBRANCH   1  26
TORSDOF 2
