REMARK  Name = CHEMBL365713
REMARK  5 active torsions:
REMARK  status: ('A' for Active; 'I' for Inactive)
REMARK    1  A    between atoms: C_1  and  C_2
REMARK    2  A    between atoms: C_2  and  C_3
REMARK    3  A    between atoms: C_7  and  C_11
REMARK    4  A    between atoms: C_11  and  C_12
REMARK    5  A    between atoms: N_18  and  C_20
REMARK                            x       y       z     vdW  Elec       q    Type
REMARK                         _______ _______ _______ _____ _____    ______ ____
ROOT
ATOM      1  C   UNL     1       0.745  -0.439   1.245  0.00  0.00    +0.078 A 
ATOM      2  C   UNL     1       2.102  -0.809   1.293  0.00  0.00    +0.106 A 
ATOM      3  C   UNL     1       2.355  -1.301   2.584  0.00  0.00    +0.171 A 
ATOM      4  N   UNL     1       3.590  -1.725   2.892  0.00  0.00    -0.214 NA
ATOM      5  C   UNL     1       4.563  -1.694   2.028  0.00  0.00    +0.116 A 
ATOM      6  N   UNL     1       4.412  -1.236   0.760  0.00  0.00    -0.310 N 
ATOM      7  C   UNL     1       3.208  -0.782   0.337  0.00  0.00    +0.263 A 
ATOM      8  O   UNL     1       3.053  -0.367  -0.798  0.00  0.00    -0.267 OA
ATOM      9  N   UNL     1       1.181  -1.220   3.267  0.00  0.00    -0.211 N 
ATOM     10  N   UNL     1       0.212  -0.679   2.412  0.00  0.00    -0.169 NA
ATOM     11  H   UNL     1       5.169  -1.233   0.153  0.00  0.00    +0.170 HD
ENDROOT
BRANCH   9  12
ATOM     12  C   UNL     1       0.977  -1.607   4.598  0.00  0.00    +0.104 A 
ATOM     13  C   UNL     1       1.768  -1.071   5.607  0.00  0.00    +0.069 A 
ATOM     14  C   UNL     1       1.565  -1.454   6.920  0.00  0.00    +0.042 A 
ATOM     15  C   UNL     1       0.576  -2.372   7.229  0.00  0.00    +0.044 A 
ATOM     16  C   UNL     1      -0.213  -2.907   6.226  0.00  0.00    +0.042 A 
ATOM     17  C   UNL     1      -0.019  -2.523   4.913  0.00  0.00    +0.069 A 
ATOM     18 CL   UNL     1      -1.014  -3.190   3.656  0.00  0.00    -0.081 Cl
ATOM     19 CL   UNL     1       0.324  -2.851   8.878  0.00  0.00    -0.083 Cl
ATOM     20 CL   UNL     1       3.009   0.079   5.220  0.00  0.00    -0.081 Cl
ENDBRANCH   9  12
BRANCH   1  22
ATOM     21  C   UNL     1       0.141   1.667   0.084  0.00  0.00    +0.010 C 
ATOM     22  C   UNL     1       0.030   0.141   0.052  0.00  0.00    +0.055 C 
ENDBRANCH   1  22
BRANCH   5  23
ATOM     23  C   UNL     1       5.920  -2.189   2.456  0.00  0.00    +0.111 C 
BRANCH  23  24
ATOM     24  C   UNL     1       5.891  -2.528   3.924  0.00  0.00    -0.022 A 
ATOM     25  C   UNL     1       6.197  -1.564   4.873  0.00  0.00    +0.007 A 
ATOM     26  C   UNL     1       6.158  -1.921   6.212  0.00  0.00    +0.020 A 
ATOM     27  C   UNL     1       5.817  -3.216   6.555  0.00  0.00    +0.111 A 
ATOM     28  N   UNL     1       5.532  -4.106   5.625  0.00  0.00    -0.263 NA
ATOM     29  C   UNL     1       5.553  -3.801   4.342  0.00  0.00    +0.114 A 
ENDBRANCH  23  24
ENDBRANCH   5  23
TORSDOF 4
