REMARK  Name = CHEMBL525194
REMARK  2 active torsions:
REMARK  status: ('A' for Active; 'I' for Inactive)
REMARK    1  A    between atoms: C_4  and  C_10
REMARK    2  A    between atoms: N_16  and  C_17
REMARK                            x       y       z     vdW  Elec       q    Type
REMARK                         _______ _______ _______ _____ _____    ______ ____
ROOT
ATOM      1  C   UNL     1       4.219   3.174  -0.022  0.00  0.00    +0.080 A 
ATOM      2  C   UNL     1       5.596   3.430  -0.040  0.00  0.00    +0.048 A 
ATOM      3  C   UNL     1       6.022   4.743  -0.038  0.00  0.00    +0.116 A 
ATOM      4  N   UNL     1       5.122   5.717  -0.019  0.00  0.00    -0.223 NA
ATOM      5  C   UNL     1       3.825   5.448  -0.002  0.00  0.00    +0.216 A 
ATOM      6  N   UNL     1       3.372   4.204  -0.009  0.00  0.00    -0.214 NA
ATOM      7  N   UNL     1       2.920   6.495   0.018  0.00  0.00    -0.311 N 
ATOM      8  H   UNL     1       1.967   6.312   0.030  0.00  0.00    +0.149 HD
ENDROOT
BRANCH   1  12
ATOM      9  C   UNL     1      -0.017   1.394   0.010  0.00  0.00    +0.024 A 
ATOM     10  C   UNL     1       1.156   2.092   0.002  0.00  0.00    +0.032 A 
ATOM     11  C   UNL     1       2.367   1.389  -0.013  0.00  0.00    +0.097 A 
ATOM     12  C   UNL     1       3.713   1.786  -0.024  0.00  0.00    +0.047 A 
ATOM     13  C   UNL     1       4.485   0.620  -0.038  0.00  0.00    +0.147 A 
ATOM     14  N   UNL     1       3.684  -0.419  -0.036  0.00  0.00    -0.156 NA
ATOM     15  N   UNL     1       2.355   0.018  -0.020  0.00  0.00    -0.150 N 
ATOM     16  N   UNL     1       1.132  -0.663  -0.012  0.00  0.00    -0.157 NA
ATOM     17  C   UNL     1       0.002  -0.004   0.002  0.00  0.00    +0.135 A 
ENDBRANCH   1  12
BRANCH   7  18
ATOM     18  C   UNL     1       3.400   7.878   0.020  0.00  0.00    +0.073 C 
ATOM     19  C   UNL     1       2.717   8.862   0.973  0.00  0.00    +0.024 C 
ATOM     20  C   UNL     1       2.462   8.953  -0.533  0.00  0.00    +0.024 C 
ENDBRANCH   7  18
TORSDOF 2
