REMARK  Name = CHEMBL312292
REMARK  5 active torsions:
REMARK  status: ('A' for Active; 'I' for Inactive)
REMARK    1  A    between atoms: C_1  and  N_2
REMARK    2  A    between atoms: C_17  and  C_21
REMARK    3  A    between atoms: C_21  and  C_22
REMARK    4  A    between atoms: C_22  and  N_23
REMARK    5  A    between atoms: C_26  and  C_29
REMARK                            x       y       z     vdW  Elec       q    Type
REMARK                         _______ _______ _______ _____ _____    ______ ____
ROOT
ATOM      1  C   UNL     1      -0.018   1.462   0.010  0.00  0.00    +0.149 C 
ATOM      2  N   UNL     1       0.002  -0.004   0.002  0.00  0.00    -0.349 N 
ATOM      3  C   UNL     1       0.025  -0.744  -1.151  0.00  0.00    +0.086 A 
ATOM      4  C   UNL     1       0.184  -2.041  -0.848  0.00  0.00    +0.027 A 
ATOM      5  C   UNL     1       0.247  -2.128   0.610  0.00  0.00    +0.000 A 
ATOM      6  C   UNL     1       0.024  -0.827   1.095  0.00  0.00    +0.057 A 
ATOM      7  C   UNL     1      -0.157  -0.667   2.482  0.00  0.00    +0.021 A 
ATOM      8  C   UNL     1       0.326  -1.690   3.345  0.00  0.00    +0.009 A 
ATOM      9  C   UNL     1       0.595  -2.971   2.827  0.00  0.00    +0.011 A 
ATOM     10  C   UNL     1       0.513  -3.191   1.493  0.00  0.00    +0.011 A 
ATOM     11  C   UNL     1       0.539  -1.413   4.712  0.00  0.00    +0.056 A 
ATOM     12  C   UNL     1       0.058  -0.210   5.247  0.00  0.00    +0.021 A 
ATOM     13  C   UNL     1       0.436  -0.208   6.670  0.00  0.00    +0.008 A 
ATOM     14  C   UNL     1       0.252   0.704   7.709  0.00  0.00    +0.010 A 
ATOM     15  C   UNL     1       0.727   0.411   8.968  0.00  0.00    +0.001 A 
ATOM     16  C   UNL     1       1.386  -0.786   9.203  0.00  0.00    +0.005 A 
ATOM     17  C   UNL     1       1.576  -1.696   8.186  0.00  0.00    -0.025 A 
ATOM     18  C   UNL     1       1.104  -1.420   6.906  0.00  0.00    +0.051 A 
ATOM     19  N   UNL     1       1.147  -2.126   5.718  0.00  0.00    -0.353 N 
ATOM     20  H   UNL     1       1.549  -3.003   5.606  0.00  0.00    +0.166 HD
ATOM     21  C   UNL     1      -0.653   0.686   4.436  0.00  0.00    +0.060 A 
ATOM     22  C   UNL     1      -0.825   0.424   3.067  0.00  0.00    +0.060 A 
ATOM     23  C   UNL     1      -1.817   1.413   2.613  0.00  0.00    +0.252 C 
ATOM     24  O   UNL     1      -2.432   1.393   1.566  0.00  0.00    -0.270 OA
ATOM     25  N   UNL     1      -1.972   2.344   3.574  0.00  0.00    -0.248 N 
ATOM     26  C   UNL     1      -1.308   1.987   4.687  0.00  0.00    +0.252 C 
ATOM     27  O   UNL     1      -1.256   2.624   5.719  0.00  0.00    -0.270 OA
ATOM     28  H   UNL     1      -2.489   3.157   3.478  0.00  0.00    +0.158 HD
ENDROOT
BRANCH  17  29
ATOM     29  C   UNL     1       2.296  -2.990   8.464  0.00  0.00    +0.018 C 
BRANCH  29  30
ATOM     30  C   UNL     1       3.777  -2.836   8.112  0.00  0.00    -0.074 C 
BRANCH  30  31
ATOM     31  N   UNL     1       4.479  -4.098   8.383  0.00  0.00    +0.380 N 
ATOM     32  C   UNL     1       4.440  -4.378   9.824  0.00  0.00    -0.078 C 
ATOM     33  C   UNL     1       5.099  -5.731  10.102  0.00  0.00    -0.006 C 
ATOM     34  C   UNL     1       6.554  -5.691   9.627  0.00  0.00    +0.071 C 
ATOM     35  C   UNL     1       6.585  -5.325   8.140  0.00  0.00    -0.006 C 
ATOM     36  C   UNL     1       5.872  -3.987   7.934  0.00  0.00    -0.078 C 
ATOM     37  H   UNL     1       4.024  -4.848   7.885  0.00  0.00    -0.082 HD
BRANCH  34  38
ATOM     38  C   UNL     1       7.186  -7.045   9.826  0.00  0.00    +0.213 C 
ATOM     39  O   UNL     1       6.538  -7.952  10.302  0.00  0.00    -0.276 OA
ATOM     40  N   UNL     1       8.472  -7.246   9.476  0.00  0.00    -0.329 N 
ATOM     41  H   UNL     1       8.991  -6.520   9.096  0.00  0.00    +0.145 HD
ATOM     42  H   UNL     1       8.879  -8.117   9.605  0.00  0.00    +0.145 HD
ENDBRANCH  34  38
ENDBRANCH  30  31
ENDBRANCH  29  30
ENDBRANCH  17  29
TORSDOF 4
