REMARK  Name = CHEMBL48362
REMARK  7 active torsions:
REMARK  status: ('A' for Active; 'I' for Inactive)
REMARK    1  A    between atoms: C_1  and  N_2
REMARK    2  A    between atoms: C_5  and  C_8
REMARK    3  A    between atoms: C_9  and  O_30
REMARK    4  A    between atoms: C_11  and  O_29
REMARK    5  A    between atoms: C_16  and  C_17
REMARK    6  A    between atoms: C_20  and  S_23
REMARK    7  A    between atoms: S_23  and  N_26
REMARK                            x       y       z     vdW  Elec       q    Type
REMARK                         _______ _______ _______ _____ _____    ______ ____
ROOT
ATOM      1  C   UNL     1      -0.445  -4.114   1.035  0.00  0.00    +0.040 A 
ATOM      2  C   UNL     1       0.209  -4.684  -0.048  0.00  0.00    +0.127 A 
ATOM      3  C   UNL     1       0.291  -6.065  -0.179  0.00  0.00    +0.092 A 
ATOM      4  C   UNL     1      -0.282  -6.885   0.776  0.00  0.00    +0.135 A 
ATOM      5  C   UNL     1      -0.943  -6.315   1.872  0.00  0.00    +0.109 A 
ATOM      6  C   UNL     1      -1.022  -4.919   2.007  0.00  0.00    +0.150 A 
ATOM      7  O   UNL     1      -1.695  -4.608   3.137  0.00  0.00    -0.451 OA
ATOM      8  C   UNL     1      -2.091  -5.716   3.807  0.00  0.00    +0.176 C 
ATOM      9  C   UNL     1      -2.784  -5.743   4.971  0.00  0.00    +0.058 C 
ATOM     10  C   UNL     1      -1.641  -6.886   3.034  0.00  0.00    +0.235 C 
ATOM     11  O   UNL     1      -1.801  -8.064   3.303  0.00  0.00    -0.283 OA
ENDROOT
BRANCH   1  16
ATOM     12  C   UNL     1       0.107   1.457   0.070  0.00  0.00    -0.096 C 
ATOM     13  N   UNL     1       0.118  -0.012   0.060  0.00  0.00    +0.378 N 
ATOM     14  C   UNL     1      -1.263  -0.510   0.037  0.00  0.00    -0.079 C 
ATOM     15  C   UNL     1      -1.256  -2.037  -0.055  0.00  0.00    -0.010 C 
ATOM     16  C   UNL     1      -0.523  -2.614   1.159  0.00  0.00    +0.023 C 
ATOM     17  C   UNL     1       0.891  -2.030   1.214  0.00  0.00    -0.010 C 
ATOM     18  C   UNL     1       0.805  -0.503   1.260  0.00  0.00    -0.079 C 
ATOM     19  H   UNL     1       0.604  -0.338  -0.762  0.00  0.00    -0.082 HD
ENDBRANCH   1  16
BRANCH   9  20
ATOM     20  C   UNL     1      -3.076  -4.490   5.682  0.00  0.00    -0.021 A 
ATOM     21  C   UNL     1      -3.674  -4.522   6.947  0.00  0.00    +0.010 A 
ATOM     22  C   UNL     1      -3.944  -3.342   7.607  0.00  0.00    +0.029 A 
ATOM     23  C   UNL     1      -3.627  -2.129   7.022  0.00  0.00    +0.105 A 
ATOM     24  C   UNL     1      -3.036  -2.089   5.771  0.00  0.00    +0.029 A 
ATOM     25  C   UNL     1      -2.754  -3.259   5.100  0.00  0.00    +0.010 A 
BRANCH  23  26
ATOM     26  S   UNL     1      -3.977  -0.627   7.874  0.00  0.00    +0.056 S 
ATOM     27  O   UNL     1      -4.085   0.386   6.884  0.00  0.00    -0.153 OA
ATOM     28  O   UNL     1      -5.027  -0.914   8.788  0.00  0.00    -0.153 OA
BRANCH  26  29
ATOM     29  N   UNL     1      -2.644  -0.258   8.785  0.00  0.00    -0.204 NA
ATOM     30  H   UNL     1      -1.870  -0.842   8.770  0.00  0.00    +0.144 HD
ATOM     31  H   UNL     1      -2.638   0.541   9.334  0.00  0.00    +0.144 HD
ENDBRANCH  26  29
ENDBRANCH  23  26
ENDBRANCH   9  20
BRANCH   4  32
ATOM     32  O   UNL     1      -0.204  -8.234   0.652  0.00  0.00    -0.506 OA
ATOM     33  H   UNL     1       0.575  -8.623   1.072  0.00  0.00    +0.292 HD
ENDBRANCH   4  32
BRANCH   2  34
ATOM     34  O   UNL     1       0.773  -3.885  -0.989  0.00  0.00    -0.506 OA
ATOM     35  H   UNL     1       1.693  -3.651  -0.806  0.00  0.00    +0.292 HD
ENDBRANCH   2  34
TORSDOF 6
