REMARK  Name = CHEMBL186708
REMARK  2 active torsions:
REMARK  status: ('A' for Active; 'I' for Inactive)
REMARK    1  A    between atoms: C_4  and  C_10
REMARK    2  A    between atoms: N_16  and  C_17
REMARK                            x       y       z     vdW  Elec       q    Type
REMARK                         _______ _______ _______ _____ _____    ______ ____
ROOT
ATOM      1  C   UNL     1       4.231   3.195  -0.307  0.00  0.00    +0.080 A 
ATOM      2  C   UNL     1       5.600   3.436  -0.138  0.00  0.00    +0.048 A 
ATOM      3  C   UNL     1       6.017   4.734   0.083  0.00  0.00    +0.116 A 
ATOM      4  N   UNL     1       5.117   5.706   0.128  0.00  0.00    -0.223 NA
ATOM      5  C   UNL     1       3.826   5.450  -0.036  0.00  0.00    +0.220 A 
ATOM      6  N   UNL     1       3.383   4.222  -0.255  0.00  0.00    -0.214 NA
ATOM      7  N   UNL     1       2.919   6.495   0.019  0.00  0.00    -0.283 N 
ATOM      8  H   UNL     1       1.967   6.314  -0.018  0.00  0.00    +0.155 HD
ENDROOT
BRANCH   7   9
ATOM      9  C   UNL     1       3.377   7.814   0.127  0.00  0.00    +0.037 A 
ATOM     10  C   UNL     1       4.566   8.188  -0.484  0.00  0.00    +0.027 A 
ATOM     11  C   UNL     1       5.021   9.490  -0.380  0.00  0.00    +0.051 A 
ATOM     12  C   UNL     1       4.287  10.421   0.336  0.00  0.00    +0.162 A 
ATOM     13  C   UNL     1       3.098  10.050   0.948  0.00  0.00    +0.164 A 
ATOM     14  C   UNL     1       2.637   8.749   0.841  0.00  0.00    +0.072 A 
ATOM     15  O   UNL     1       2.383  10.977   1.649  0.00  0.00    -0.488 OA
ATOM     16  C   UNL     1       2.982  11.444   2.860  0.00  0.00    +0.232 C 
ATOM     17  C   UNL     1       3.958  12.575   2.577  0.00  0.00    +0.082 C 
ATOM     18  C   UNL     1       5.147  12.120   1.745  0.00  0.00    +0.232 C 
ATOM     19  O   UNL     1       4.727  11.709   0.443  0.00  0.00    -0.488 OA
ENDBRANCH   7   9
BRANCH   1  23
ATOM     20  C   UNL     1       0.026   1.468  -0.980  0.00  0.00    +0.024 A 
ATOM     21  C   UNL     1       1.189   2.149  -0.766  0.00  0.00    +0.032 A 
ATOM     22  C   UNL     1       2.397   1.442  -0.737  0.00  0.00    +0.097 A 
ATOM     23  C   UNL     1       3.735   1.824  -0.546  0.00  0.00    +0.047 A 
ATOM     24  C   UNL     1       4.508   0.662  -0.625  0.00  0.00    +0.147 A 
ATOM     25  N   UNL     1       3.717  -0.361  -0.847  0.00  0.00    -0.156 NA
ATOM     26  N   UNL     1       2.393   0.084  -0.923  0.00  0.00    -0.150 N 
ATOM     27  N   UNL     1       1.179  -0.580  -1.140  0.00  0.00    -0.157 NA
ATOM     28  C   UNL     1       0.052   0.082  -1.167  0.00  0.00    +0.135 A 
ENDBRANCH   1  23
TORSDOF 2
