REMARK  Name = CHEMBL335275
REMARK  6 active torsions:
REMARK  status: ('A' for Active; 'I' for Inactive)
REMARK    1  A    between atoms: C_1  and  C_2
REMARK    2  A    between atoms: C_2  and  C_14
REMARK    3  A    between atoms: N_3  and  C_4
REMARK    4  A    between atoms: C_7  and  S_10
REMARK    5  A    between atoms: S_10  and  N_13
REMARK    6  A    between atoms: C_17  and  C_25
REMARK                            x       y       z     vdW  Elec       q    Type
REMARK                         _______ _______ _______ _____ _____    ______ ____
ROOT
ATOM      1  C   UNL     1      -0.416  -0.664  -1.191  0.00  0.00    +0.069 A 
ATOM      2  C   UNL     1       0.534  -1.301  -2.125  0.00  0.00    +0.013 A 
ATOM      3  C   UNL     1       1.917  -1.446  -2.136  0.00  0.00    +0.022 A 
ATOM      4  C   UNL     1       2.528  -2.118  -3.191  0.00  0.00    +0.020 A 
ATOM      5  C   UNL     1       1.751  -2.642  -4.230  0.00  0.00    +0.013 A 
ATOM      6  C   UNL     1       0.383  -2.498  -4.219  0.00  0.00    +0.027 A 
ATOM      7  C   UNL     1      -0.242  -1.828  -3.171  0.00  0.00    +0.050 A 
ATOM      8  N   UNL     1      -1.568  -1.539  -2.901  0.00  0.00    -0.322 N 
ATOM      9  H   UNL     1      -2.314  -1.792  -3.466  0.00  0.00    +0.169 HD
ATOM     10  C   UNL     1      -1.678  -0.856  -1.731  0.00  0.00    +0.259 A 
ATOM     11  O   UNL     1      -2.837  -0.429  -1.181  0.00  0.00    -0.267 OA
ENDROOT
BRANCH   4  12
ATOM     12  C   UNL     1       3.998  -2.277  -3.213  0.00  0.00    +0.155 A 
ATOM     13  C   UNL     1       4.730  -2.900  -4.172  0.00  0.00    +0.160 A 
ATOM     14  N   UNL     1       6.019  -2.821  -3.811  0.00  0.00    -0.224 NA
ATOM     15  C   UNL     1       6.103  -2.180  -2.679  0.00  0.00    +0.308 A 
ATOM     16  O   UNL     1       4.871  -1.826  -2.285  0.00  0.00    -0.442 OA
ENDBRANCH   4  12
BRANCH   1  18
ATOM     17  C   UNL     1       0.434   1.412  -0.018  0.00  0.00    +0.066 C 
ATOM     18  C   UNL     1      -0.101   0.004   0.017  0.00  0.00    +0.052 C 
ATOM     19  N   UNL     1      -0.275  -0.602   1.165  0.00  0.00    -0.252 NA
BRANCH  19  20
ATOM     20  C   UNL     1      -0.675  -1.910   1.194  0.00  0.00    +0.064 A 
ATOM     21  C   UNL     1       0.119  -2.900   0.609  0.00  0.00    +0.029 A 
ATOM     22  C   UNL     1      -0.290  -4.216   0.643  0.00  0.00    +0.030 A 
ATOM     23  C   UNL     1      -1.484  -4.558   1.254  0.00  0.00    +0.105 A 
ATOM     24  C   UNL     1      -2.275  -3.583   1.835  0.00  0.00    +0.030 A 
ATOM     25  C   UNL     1      -1.876  -2.263   1.814  0.00  0.00    +0.029 A 
BRANCH  23  26
ATOM     26  S   UNL     1      -1.999  -6.243   1.291  0.00  0.00    +0.056 S 
ATOM     27  O   UNL     1      -3.412  -6.232   1.440  0.00  0.00    -0.153 OA
ATOM     28  O   UNL     1      -1.353  -6.889   0.203  0.00  0.00    -0.153 OA
BRANCH  26  29
ATOM     29  N   UNL     1      -1.382  -6.913   2.674  0.00  0.00    -0.204 NA
ATOM     30  H   UNL     1      -1.855  -7.636   3.115  0.00  0.00    +0.144 HD
ATOM     31  H   UNL     1      -0.548  -6.583   3.042  0.00  0.00    +0.144 HD
ENDBRANCH  26  29
ENDBRANCH  23  26
ENDBRANCH  19  20
ENDBRANCH   1  18
TORSDOF 5
