REMARK  Name = CHEMBL370817
REMARK  5 active torsions:
REMARK  status: ('A' for Active; 'I' for Inactive)
REMARK    1  A    between atoms: C_1  and  C_2
REMARK    2  A    between atoms: C_2  and  C_3
REMARK    3  A    between atoms: C_2  and  C_15
REMARK    4  A    between atoms: C_6  and  N_9
REMARK    5  A    between atoms: C_20  and  C_24
REMARK                            x       y       z     vdW  Elec       q    Type
REMARK                         _______ _______ _______ _____ _____    ______ ____
ROOT
ATOM      1  C   UNL     1      -0.019   1.526   0.010  0.00  0.00    +0.022 C 
ATOM      2  C   UNL     1       0.002  -0.004   0.002  0.00  0.00    +0.102 C 
ENDROOT
BRANCH   2   3
ATOM      3  C   UNL     1       0.731  -0.503   1.223  0.00  0.00    +0.225 C 
ATOM      4  O   UNL     1       1.725  -1.187   1.099  0.00  0.00    -0.275 OA
ATOM      5  N   UNL     1       0.278  -0.191   2.453  0.00  0.00    -0.268 N 
ATOM      6  C   UNL     1       0.956  -0.655   3.589  0.00  0.00    +0.147 A 
ATOM      7  C   UNL     1       2.116  -1.445   3.591  0.00  0.00    +0.068 A 
ATOM      8  C   UNL     1       2.456  -1.680   4.878  0.00  0.00    +0.041 A 
ATOM      9  N   UNL     1       1.549  -1.064   5.665  0.00  0.00    -0.280 N 
ATOM     10  H   UNL     1       1.543  -1.062   6.635  0.00  0.00    +0.189 HD
ATOM     11  N   UNL     1       0.620  -0.422   4.836  0.00  0.00    -0.158 NA
ATOM     12  H   UNL     1      -0.517   0.356   2.553  0.00  0.00    +0.156 HD
BRANCH   8  13
ATOM     13  C   UNL     1       3.638  -2.486   5.351  0.00  0.00    +0.037 C 
ATOM     14  C   UNL     1       3.475  -3.287   6.644  0.00  0.00    +0.010 C 
ATOM     15  C   UNL     1       4.341  -2.026   6.630  0.00  0.00    +0.010 C 
ENDBRANCH   8  13
ENDBRANCH   2   3
BRANCH   2  16
ATOM     16  C   UNL     1       0.707  -0.490  -1.238  0.00  0.00    -0.036 A 
ATOM     17  C   UNL     1       2.026  -0.141  -1.463  0.00  0.00    +0.006 A 
ATOM     18  C   UNL     1       2.675  -0.585  -2.599  0.00  0.00    +0.026 A 
ATOM     19  C   UNL     1       2.002  -1.382  -3.514  0.00  0.00    +0.052 A 
ATOM     20  C   UNL     1       0.678  -1.732  -3.285  0.00  0.00    +0.026 A 
ATOM     21  C   UNL     1       0.036  -1.289  -2.145  0.00  0.00    +0.006 A 
BRANCH  19  22
ATOM     22  N   UNL     1       2.659  -1.834  -4.668  0.00  0.00    -0.250 N 
ATOM     23  C   UNL     1       3.963  -1.566  -5.009  0.00  0.00    +0.230 A 
ATOM     24  N   UNL     1       4.227  -2.144  -6.137  0.00  0.00    -0.160 NA
ATOM     25  N   UNL     1       3.072  -2.816  -6.563  0.00  0.00    -0.227 N 
ATOM     26  C   UNL     1       2.120  -2.610  -5.630  0.00  0.00    +0.348 A 
ATOM     27  O   UNL     1       0.982  -3.044  -5.653  0.00  0.00    -0.245 OA
ATOM     28  H   UNL     1       2.977  -3.336  -7.376  0.00  0.00    +0.194 HD
ENDBRANCH  19  22
ENDBRANCH   2  16
TORSDOF 4
