REMARK  Name = CHEMBL430434
REMARK  8 active torsions:
REMARK  status: ('A' for Active; 'I' for Inactive)
REMARK    1  A    between atoms: C_3  and  C_7
REMARK    2  A    between atoms: C_7  and  N_8
REMARK    3  A    between atoms: C_9  and  C_11
REMARK    4  A    between atoms: C_17  and  N_22
REMARK    5  A    between atoms: C_18  and  O_21
REMARK    6  A    between atoms: N_23  and  C_24
REMARK    7  A    between atoms: C_27  and  S_30
REMARK    8  A    between atoms: S_30  and  N_33
REMARK                            x       y       z     vdW  Elec       q    Type
REMARK                         _______ _______ _______ _____ _____    ______ ____
ROOT
ATOM      1  C   UNL     1       9.733   0.607   1.153  0.00  0.00    +0.037 A 
ATOM      2  C   UNL     1       8.404   0.303   0.835  0.00  0.00    +0.015 A 
ATOM      3  C   UNL     1       7.402   1.186   1.116  0.00  0.00    +0.027 A 
ATOM      4  C   UNL     1       7.691   2.405   1.725  0.00  0.00    +0.051 A 
ATOM      5  C   UNL     1       9.022   2.720   2.049  0.00  0.00    +0.031 A 
ATOM      6  C   UNL     1      10.041   1.819   1.768  0.00  0.00    +0.025 A 
ATOM      7  C   UNL     1       8.986   4.058   2.671  0.00  0.00    +0.154 A 
ATOM      8  C   UNL     1       7.656   4.446   2.677  0.00  0.00    +0.219 A 
ATOM      9  N   UNL     1       6.898   3.465   2.117  0.00  0.00    -0.324 N 
ATOM     10  H   UNL     1       5.935   3.505   2.008  0.00  0.00    +0.169 HD
ENDROOT
BRANCH   1  12
ATOM     11  N   UNL     1      10.509  -1.530   0.248  0.00  0.00    -0.307 N 
ATOM     12  C   UNL     1      10.807  -0.358   0.843  0.00  0.00    +0.244 C 
ATOM     13  O   UNL     1      11.960  -0.095   1.124  0.00  0.00    -0.270 OA
ATOM     14  H   UNL     1       9.588  -1.739   0.024  0.00  0.00    +0.149 HD
BRANCH  11  15
ATOM     15  C   UNL     1      11.574  -2.487  -0.060  0.00  0.00    +0.141 C 
BRANCH  15  18
ATOM     16  C   UNL     1      10.296  -4.908  -2.657  0.00  0.00    +0.020 A 
ATOM     17  C   UNL     1      10.849  -3.766  -2.096  0.00  0.00    +0.008 A 
ATOM     18  C   UNL     1      10.979  -3.706  -0.717  0.00  0.00    -0.012 A 
ATOM     19  C   UNL     1      10.558  -4.778   0.047  0.00  0.00    +0.115 A 
ATOM     20  N   UNL     1      10.038  -5.848  -0.521  0.00  0.00    -0.263 NA
ATOM     21  C   UNL     1       9.898  -5.940  -1.829  0.00  0.00    +0.111 A 
ENDBRANCH  15  18
ENDBRANCH  11  15
ENDBRANCH   1  12
BRANCH   8  22
ATOM     22  O   UNL     1       7.185   5.617   3.164  0.00  0.00    -0.492 OA
ATOM     23  H   UNL     1       7.092   6.311   2.498  0.00  0.00    +0.294 HD
ENDBRANCH   8  22
BRANCH   7  24
ATOM     24  N   UNL     1      10.038   4.761   3.140  0.00  0.00    -0.143 NA
ATOM     25  N   UNL     1      10.754   4.286   4.102  0.00  0.00    -0.149 NA
BRANCH  25  26
ATOM     26  C   UNL     1      10.745   2.944   4.363  0.00  0.00    +0.086 A 
ATOM     27  C   UNL     1       9.681   2.372   5.065  0.00  0.00    +0.031 A 
ATOM     28  C   UNL     1       9.679   1.017   5.324  0.00  0.00    +0.030 A 
ATOM     29  C   UNL     1      10.727   0.225   4.891  0.00  0.00    +0.105 A 
ATOM     30  C   UNL     1      11.785   0.785   4.196  0.00  0.00    +0.030 A 
ATOM     31  C   UNL     1      11.798   2.137   3.924  0.00  0.00    +0.031 A 
BRANCH  29  32
ATOM     32  S   UNL     1      10.716  -1.505   5.226  0.00  0.00    +0.056 S 
ATOM     33  O   UNL     1      12.070  -1.934   5.193  0.00  0.00    -0.153 OA
ATOM     34  O   UNL     1       9.885  -1.692   6.364  0.00  0.00    -0.153 OA
BRANCH  32  35
ATOM     35  N   UNL     1       9.954  -2.245   3.956  0.00  0.00    -0.204 NA
ATOM     36  H   UNL     1      10.197  -3.149   3.705  0.00  0.00    +0.144 HD
ATOM     37  H   UNL     1       9.263  -1.774   3.464  0.00  0.00    +0.144 HD
ENDBRANCH  32  35
ENDBRANCH  29  32
ENDBRANCH  25  26
ENDBRANCH   7  24
TORSDOF 8
