REMARK  Name = CHEMBL193210
REMARK  5 active torsions:
REMARK  status: ('A' for Active; 'I' for Inactive)
REMARK    1  A    between atoms: C_1  and  C_2
REMARK    2  A    between atoms: C_2  and  C_3
REMARK    3  A    between atoms: C_2  and  C_15
REMARK    4  A    between atoms: C_6  and  N_9
REMARK    5  A    between atoms: C_20  and  C_24
REMARK                            x       y       z     vdW  Elec       q    Type
REMARK                         _______ _______ _______ _____ _____    ______ ____
ROOT
ATOM      1  C   UNL     1      -0.019   1.526   0.010  0.00  0.00    +0.022 C 
ATOM      2  C   UNL     1       0.002  -0.004   0.002  0.00  0.00    +0.102 C 
ENDROOT
BRANCH   2   3
ATOM      3  C   UNL     1       0.707  -0.490  -1.238  0.00  0.00    +0.225 C 
ATOM      4  O   UNL     1       0.120  -1.191  -2.034  0.00  0.00    -0.275 OA
ATOM      5  N   UNL     1       1.991  -0.146  -1.462  0.00  0.00    -0.268 N 
ATOM      6  C   UNL     1       2.647  -0.598  -2.615  0.00  0.00    +0.147 A 
ATOM      7  C   UNL     1       2.089  -1.406  -3.618  0.00  0.00    +0.068 A 
ATOM      8  C   UNL     1       3.040  -1.620  -4.556  0.00  0.00    +0.041 A 
ATOM      9  N   UNL     1       4.159  -0.974  -4.165  0.00  0.00    -0.280 N 
ATOM     10  H   UNL     1       5.001  -0.953  -4.645  0.00  0.00    +0.189 HD
ATOM     11  N   UNL     1       3.889  -0.335  -2.948  0.00  0.00    -0.158 NA
ATOM     12  H   UNL     1       2.461   0.415  -0.825  0.00  0.00    +0.156 HD
BRANCH   8  13
ATOM     13  C   UNL     1       2.879  -2.435  -5.813  0.00  0.00    +0.037 C 
ATOM     14  C   UNL     1       4.100  -3.208  -6.315  0.00  0.00    +0.010 C 
ATOM     15  C   UNL     1       3.623  -1.961  -7.062  0.00  0.00    +0.010 C 
ENDBRANCH   8  13
ENDBRANCH   2   3
BRANCH   2  16
ATOM     16  C   UNL     1      -1.412  -0.526   0.013  0.00  0.00    -0.036 A 
ATOM     17  C   UNL     1      -2.275  -0.202  -1.018  0.00  0.00    +0.006 A 
ATOM     18  C   UNL     1      -3.571  -0.678  -1.011  0.00  0.00    +0.026 A 
ATOM     19  C   UNL     1      -4.007  -1.484   0.032  0.00  0.00    +0.051 A 
ATOM     20  C   UNL     1      -3.138  -1.808   1.065  0.00  0.00    +0.026 A 
ATOM     21  C   UNL     1      -1.842  -1.332   1.050  0.00  0.00    +0.006 A 
BRANCH  19  22
ATOM     22  N   UNL     1      -5.322  -1.968   0.042  0.00  0.00    -0.268 N 
ATOM     23  C   UNL     1      -6.288  -1.727  -0.925  0.00  0.00    +0.114 A 
ATOM     24  C   UNL     1      -7.399  -2.356  -0.558  0.00  0.00    +0.105 A 
ATOM     25  N   UNL     1      -7.147  -3.001   0.644  0.00  0.00    -0.313 N 
ATOM     26  C   UNL     1      -5.869  -2.755   0.990  0.00  0.00    +0.331 A 
ATOM     27  O   UNL     1      -5.306  -3.169   1.987  0.00  0.00    -0.246 OA
ATOM     28  H   UNL     1      -7.780  -3.539   1.145  0.00  0.00    +0.170 HD
ENDBRANCH  19  22
ENDBRANCH   2  16
TORSDOF 4
