REMARK  Name = CHEMBL186163
REMARK  5 active torsions:
REMARK  status: ('A' for Active; 'I' for Inactive)
REMARK    1  A    between atoms: C_4  and  C_8
REMARK    2  A    between atoms: C_8  and  C_10
REMARK    3  A    between atoms: C_15  and  N_29
REMARK    4  A    between atoms: C_16  and  C_19
REMARK    5  A    between atoms: C_19  and  C_21
REMARK                            x       y       z     vdW  Elec       q    Type
REMARK                         _______ _______ _______ _____ _____    ______ ____
ROOT
ATOM      1  C   UNL     1       3.753  -2.116   0.033  0.00  0.00    +0.039 A 
ATOM      2  C   UNL     1       2.537  -2.841   0.036  0.00  0.00    +0.017 A 
ATOM      3  C   UNL     1       2.566  -4.195   0.141  0.00  0.00    +0.047 A 
ATOM      4  C   UNL     1       3.803  -4.862   0.245  0.00  0.00    +0.140 A 
ATOM      5  N   UNL     1       4.097  -6.155   0.355  0.00  0.00    -0.213 NA
ATOM      6  C   UNL     1       5.415  -6.317   0.424  0.00  0.00    +0.144 A 
ATOM      7  C   UNL     1       6.008  -5.054   0.353  0.00  0.00    +0.103 A 
ATOM      8  N   UNL     1       4.968  -4.143   0.239  0.00  0.00    -0.296 N 
ATOM      9  C   UNL     1       4.951  -2.793   0.130  0.00  0.00    +0.105 A 
ENDROOT
BRANCH   6  10
ATOM     10  N   UNL     1       6.083  -7.526   0.544  0.00  0.00    -0.341 N 
ATOM     11  H   UNL     1       5.587  -8.360   0.512  0.00  0.00    +0.144 HD
ATOM     12  H   UNL     1       7.046  -7.539   0.660  0.00  0.00    +0.144 HD
ENDBRANCH   6  10
BRANCH   1  13
ATOM     13  C   UNL     1       3.740  -0.645  -0.080  0.00  0.00    +0.200 C 
ATOM     14  O   UNL     1       4.786  -0.034  -0.182  0.00  0.00    -0.286 OA
BRANCH  13  18
ATOM     15  C   UNL     1       0.046   1.453  -0.049  0.00  0.00    +0.006 A 
ATOM     16  C   UNL     1       0.632   1.111  -1.254  0.00  0.00    +0.039 A 
ATOM     17  C   UNL     1       1.834   0.428  -1.274  0.00  0.00    +0.137 A 
ATOM     18  C   UNL     1       2.458   0.084  -0.069  0.00  0.00    +0.093 A 
ATOM     19  C   UNL     1       1.857   0.434   1.146  0.00  0.00    +0.137 A 
ATOM     20  C   UNL     1       0.655   1.116   1.146  0.00  0.00    +0.039 A 
ATOM     21  F   UNL     1       2.451   0.106   2.314  0.00  0.00    -0.205 F 
ATOM     22  F   UNL     1       2.404   0.095  -2.452  0.00  0.00    -0.205 F 
ENDBRANCH  13  18
ENDBRANCH   1  13
BRANCH   7  23
ATOM     23  C   UNL     1       7.388  -4.764   0.390  0.00  0.00    +0.059 C 
ATOM     24  S   UNL     1       8.315  -4.828  -1.048  0.00  0.00    -0.049 S 
BRANCH  23  25
ATOM     25  C   UNL     1       8.033  -4.405   1.670  0.00  0.00    +0.062 A 
ATOM     26  C   UNL     1       7.310  -4.473   2.865  0.00  0.00    +0.134 A 
ATOM     27  C   UNL     1       7.921  -4.136   4.058  0.00  0.00    +0.039 A 
ATOM     28  C   UNL     1       9.244  -3.731   4.071  0.00  0.00    +0.006 A 
ATOM     29  C   UNL     1       9.965  -3.661   2.893  0.00  0.00    +0.039 A 
ATOM     30  C   UNL     1       9.371  -4.000   1.693  0.00  0.00    +0.134 A 
ATOM     31  F   UNL     1      10.079  -3.936   0.544  0.00  0.00    -0.205 F 
ATOM     32  F   UNL     1       6.018  -4.867   2.853  0.00  0.00    -0.205 F 
ENDBRANCH  23  25
ENDBRANCH   7  23
TORSDOF 5
