REMARK  Name = CHEMBL409104
REMARK  6 active torsions:
REMARK  status: ('A' for Active; 'I' for Inactive)
REMARK    1  A    between atoms: C_4  and  O_7
REMARK    2  A    between atoms: O_7  and  C_8
REMARK    3  A    between atoms: N_15  and  N_16
REMARK    4  A    between atoms: N_16  and  C_17
REMARK    5  A    between atoms: C_20  and  S_23
REMARK    6  A    between atoms: S_23  and  N_26
REMARK                            x       y       z     vdW  Elec       q    Type
REMARK                         _______ _______ _______ _____ _____    ______ ____
ROOT
ATOM      1  C   UNL     1       3.561  -1.986   0.060  0.00  0.00    +0.140 A 
ATOM      2  C   UNL     1       2.351  -2.663   0.062  0.00  0.00    +0.047 A 
ATOM      3  C   UNL     1       2.330  -4.043   0.162  0.00  0.00    +0.005 A 
ATOM      4  C   UNL     1       3.506  -4.760   0.260  0.00  0.00    +0.024 A 
ATOM      5  C   UNL     1       4.731  -4.101   0.260  0.00  0.00    +0.047 A 
ATOM      6  C   UNL     1       4.753  -2.705   0.154  0.00  0.00    +0.070 A 
ATOM      7  C   UNL     1       6.178  -2.306   0.175  0.00  0.00    +0.156 C 
ATOM      8  N   UNL     1       6.670  -1.089   0.103  0.00  0.00    -0.177 NA
ATOM      9  C   UNL     1       6.926  -3.570   0.293  0.00  0.00    +0.269 C 
ATOM     10  O   UNL     1       8.137  -3.684   0.344  0.00  0.00    -0.268 OA
ATOM     11  N   UNL     1       6.035  -4.574   0.347  0.00  0.00    -0.279 N 
ATOM     12  H   UNL     1       6.272  -5.512   0.425  0.00  0.00    +0.155 HD
ENDROOT
BRANCH   8  13
ATOM     13  N   UNL     1       7.947  -0.907   0.135  0.00  0.00    -0.237 N 
ATOM     14  H   UNL     1       8.544  -1.668   0.211  0.00  0.00    +0.174 HD
BRANCH  13  15
ATOM     15  C   UNL     1       8.469   0.385   0.059  0.00  0.00    +0.048 A 
ATOM     16  C   UNL     1       7.615   1.476  -0.044  0.00  0.00    +0.026 A 
ATOM     17  C   UNL     1       8.135   2.753  -0.118  0.00  0.00    +0.030 A 
ATOM     18  C   UNL     1       9.504   2.947  -0.090  0.00  0.00    +0.105 A 
ATOM     19  C   UNL     1      10.357   1.863   0.013  0.00  0.00    +0.030 A 
ATOM     20  C   UNL     1       9.844   0.583   0.093  0.00  0.00    +0.026 A 
BRANCH  18  21
ATOM     21  S   UNL     1      10.164   4.578  -0.185  0.00  0.00    +0.056 S 
ATOM     22  O   UNL     1      11.487   4.452  -0.688  0.00  0.00    -0.153 OA
ATOM     23  O   UNL     1       9.178   5.377  -0.825  0.00  0.00    -0.153 OA
BRANCH  21  24
ATOM     24  N   UNL     1      10.298   5.143   1.365  0.00  0.00    -0.204 NA
ATOM     25  H   UNL     1      10.030   4.583   2.111  0.00  0.00    +0.144 HD
ATOM     26  H   UNL     1      10.646   6.034   1.528  0.00  0.00    +0.144 HD
ENDBRANCH  21  24
ENDBRANCH  18  21
ENDBRANCH  13  15
ENDBRANCH   8  13
BRANCH   1  27
ATOM     27  O   UNL     1       3.586  -0.632  -0.037  0.00  0.00    -0.455 OA
BRANCH  27  31
ATOM     28  C   UNL     1      -0.012   1.385   0.071  0.00  0.00    +0.000 A 
ATOM     29  C   UNL     1       0.446   0.729   1.199  0.00  0.00    +0.004 A 
ATOM     30  C   UNL     1       1.650   0.053   1.165  0.00  0.00    +0.046 A 
ATOM     31  C   UNL     1       2.400   0.032  -0.002  0.00  0.00    +0.128 A 
ATOM     32  C   UNL     1       1.939   0.691  -1.132  0.00  0.00    +0.046 A 
ATOM     33  C   UNL     1       0.734   1.366  -1.093  0.00  0.00    +0.004 A 
ENDBRANCH  27  31
ENDBRANCH   1  27
TORSDOF 6
