REMARK  Name = CHEMBL463579
REMARK  4 active torsions:
REMARK  status: ('A' for Active; 'I' for Inactive)
REMARK    1  A    between atoms: C_6  and  N_7
REMARK    2  A    between atoms: C_8  and  C_10
REMARK    3  A    between atoms: C_11  and  N_16
REMARK    4  A    between atoms: C_17  and  C_19
REMARK                            x       y       z     vdW  Elec       q    Type
REMARK                         _______ _______ _______ _____ _____    ______ ____
ROOT
ATOM      1  C   UNL     1      -2.451  -2.811  -0.202  0.00  0.00    +0.168 A 
ATOM      2  C   UNL     1      -2.595  -4.218  -0.315  0.00  0.00    +0.084 A 
ATOM      3  C   UNL     1      -3.934  -4.441  -0.379  0.00  0.00    +0.129 A 
ATOM      4  N   UNL     1      -4.543  -3.230  -0.307  0.00  0.00    -0.282 N 
ATOM      5  H   UNL     1      -5.503  -3.089  -0.330  0.00  0.00    +0.188 HD
ATOM      6  N   UNL     1      -3.666  -2.298  -0.199  0.00  0.00    -0.167 NA
ENDROOT
BRANCH   1   8
ATOM      7  N   UNL     1      -1.200  -0.721   0.010  0.00  0.00    -0.280 N 
ATOM      8  C   UNL     1      -1.184  -2.064  -0.099  0.00  0.00    +0.270 C 
ATOM      9  O   UNL     1      -0.124  -2.661  -0.113  0.00  0.00    -0.268 OA
ATOM     10  H   UNL     1      -2.044  -0.252   0.098  0.00  0.00    +0.155 HD
BRANCH   7  16
ATOM     11  C   UNL     1       1.071  -0.453  -0.767  0.00  0.00    +0.026 A 
ATOM     12  C   UNL     1       2.256   0.257  -0.779  0.00  0.00    +0.040 A 
ATOM     13  C   UNL     1       2.378   1.416  -0.032  0.00  0.00    +0.124 A 
ATOM     14  C   UNL     1       1.312   1.866   0.730  0.00  0.00    +0.040 A 
ATOM     15  C   UNL     1       0.126   1.159   0.745  0.00  0.00    +0.026 A 
ATOM     16  C   UNL     1       0.002  -0.004  -0.004  0.00  0.00    +0.034 A 
ATOM     17  F   UNL     1       3.538   2.108  -0.045  0.00  0.00    -0.205 F 
ENDBRANCH   7  16
ENDBRANCH   1   8
BRANCH   2  18
ATOM     18  N   UNL     1      -1.570  -5.177  -0.354  0.00  0.00    -0.282 N 
ATOM     19  C   UNL     1      -1.875  -6.485  -0.466  0.00  0.00    +0.220 C 
ATOM     20  O   UNL     1      -3.035  -6.834  -0.533  0.00  0.00    -0.275 OA
ATOM     21  H   UNL     1      -0.643  -4.898  -0.300  0.00  0.00    +0.155 HD
BRANCH  19  22
ATOM     22  C   UNL     1      -0.776  -7.514  -0.507  0.00  0.00    +0.075 C 
ATOM     23  C   UNL     1       0.132  -7.243  -1.708  0.00  0.00    +0.013 C 
ATOM     24  C   UNL     1       1.249  -8.288  -1.751  0.00  0.00    +0.001 C 
ATOM     25  C   UNL     1       0.636  -9.684  -1.880  0.00  0.00    +0.000 C 
ATOM     26  C   UNL     1      -0.272  -9.956  -0.679  0.00  0.00    +0.001 C 
ATOM     27  C   UNL     1      -1.388  -8.911  -0.636  0.00  0.00    +0.013 C 
ENDBRANCH  19  22
ENDBRANCH   2  18
TORSDOF 4
