REMARK  Name = CHEMBL210618
REMARK  12 active torsions:
REMARK  status: ('A' for Active; 'I' for Inactive)
REMARK    1  A    between atoms: C_1  and  C_2
REMARK    2  A    between atoms: C_2  and  O_3
REMARK    3  A    between atoms: O_3  and  C_4
REMARK    4  A    between atoms: C_5  and  C_25
REMARK    5  A    between atoms: C_6  and  N_24
REMARK    6  A    between atoms: C_8  and  N_10
REMARK    7  A    between atoms: C_11  and  C_13
REMARK    8  A    between atoms: C_13  and  C_14
REMARK    9  A    between atoms: C_16  and  O_22
REMARK   10  A    between atoms: C_19  and  O_20
REMARK   11  A    between atoms: O_20  and  C_21
REMARK   12  A    between atoms: O_22  and  C_23
REMARK                            x       y       z     vdW  Elec       q    Type
REMARK                         _______ _______ _______ _____ _____    ______ ____
ROOT
ATOM      1  N   UNL     1      -0.202  -4.738  -0.501  0.00  0.00    -0.270 N 
ATOM      2  C   UNL     1      -0.040  -6.075  -0.466  0.00  0.00    +0.223 C 
ATOM      3  O   UNL     1       0.519  -6.594   0.476  0.00  0.00    -0.275 OA
ATOM      4  H   UNL     1      -0.713  -4.329  -1.217  0.00  0.00    +0.156 HD
ENDROOT
BRANCH   1   9
ATOM      5  C   UNL     1       1.530  -3.811   2.486  0.00  0.00    +0.236 A 
ATOM      6  C   UNL     1       1.491  -2.409   2.458  0.00  0.00    +0.134 A 
ATOM      7  C   UNL     1       0.849  -1.769   1.378  0.00  0.00    +0.051 A 
ATOM      8  C   UNL     1       0.282  -2.562   0.386  0.00  0.00    +0.068 A 
ATOM      9  C   UNL     1       0.365  -3.942   0.490  0.00  0.00    +0.131 A 
ATOM     10  N   UNL     1       0.980  -4.518   1.515  0.00  0.00    -0.197 NA
BRANCH   7  11
ATOM     11  N   UNL     1       0.785  -0.386   1.306  0.00  0.00    -0.357 N 
ATOM     12  H   UNL     1       1.185   0.155   2.006  0.00  0.00    +0.142 HD
ATOM     13  H   UNL     1       0.340   0.042   0.558  0.00  0.00    +0.142 HD
ENDBRANCH   7  11
BRANCH   6  14
ATOM     14  C   UNL     1       2.092  -1.642   3.507  0.00  0.00    +0.106 C 
ATOM     15  N   UNL     1       2.569  -1.033   4.340  0.00  0.00    -0.191 NA
ENDBRANCH   6  14
BRANCH   5  16
ATOM     16  O   UNL     1       2.142  -4.446   3.515  0.00  0.00    -0.476 OA
BRANCH  16  18
ATOM     17  C   UNL     1       2.882  -6.407   4.717  0.00  0.00    +0.048 C 
ATOM     18  C   UNL     1       2.153  -5.874   3.482  0.00  0.00    +0.227 C 
ENDBRANCH  16  18
ENDBRANCH   5  16
ENDBRANCH   1   9
BRANCH   2  19
ATOM     19  C   UNL     1      -0.555  -6.926  -1.598  0.00  0.00    +0.135 C 
BRANCH  19  20
ATOM     20  C   UNL     1      -0.250  -8.375  -1.317  0.00  0.00    +0.006 A 
ATOM     21  C   UNL     1       0.894  -8.953  -1.833  0.00  0.00    +0.053 A 
ATOM     22  C   UNL     1       1.176 -10.286  -1.573  0.00  0.00    +0.121 A 
ATOM     23  C   UNL     1       0.308 -11.039  -0.796  0.00  0.00    +0.049 A 
ATOM     24  C   UNL     1      -0.835 -10.461  -0.280  0.00  0.00    +0.049 A 
ATOM     25  C   UNL     1      -1.114  -9.127  -0.535  0.00  0.00    +0.124 A 
BRANCH  25  26
ATOM     26  O   UNL     1      -2.237  -8.556  -0.023  0.00  0.00    -0.495 OA
ATOM     27  C   UNL     1      -3.082  -9.389   0.773  0.00  0.00    +0.277 C 
ENDBRANCH  25  26
BRANCH  22  28
ATOM     28  O   UNL     1       2.301 -10.854  -2.082  0.00  0.00    -0.495 OA
ATOM     29  C   UNL     1       2.528 -12.231  -1.774  0.00  0.00    +0.277 C 
ENDBRANCH  22  28
ENDBRANCH  19  20
ENDBRANCH   2  19
TORSDOF 9
