REMARK  Name = CHEMBL361894
REMARK  2 active torsions:
REMARK  status: ('A' for Active; 'I' for Inactive)
REMARK    1  A    between atoms: C_4  and  C_10
REMARK    2  A    between atoms: N_16  and  C_17
REMARK                            x       y       z     vdW  Elec       q    Type
REMARK                         _______ _______ _______ _____ _____    ______ ____
ROOT
ATOM      1  C   UNL     1       4.225   3.178  -0.081  0.00  0.00    +0.080 A 
ATOM      2  C   UNL     1       5.576   3.417   0.205  0.00  0.00    +0.048 A 
ATOM      3  C   UNL     1       5.982   4.719   0.421  0.00  0.00    +0.116 A 
ATOM      4  N   UNL     1       5.090   5.697   0.353  0.00  0.00    -0.223 NA
ATOM      5  C   UNL     1       3.818   5.443   0.081  0.00  0.00    +0.220 A 
ATOM      6  N   UNL     1       3.386   4.212  -0.139  0.00  0.00    -0.214 NA
ATOM      7  N   UNL     1       2.919   6.495   0.019  0.00  0.00    -0.283 N 
ATOM      8  H   UNL     1       1.973   6.318  -0.099  0.00  0.00    +0.155 HD
ENDROOT
BRANCH   7   9
ATOM      9  C   UNL     1       3.377   7.814   0.127  0.00  0.00    +0.037 A 
ATOM     10  C   UNL     1       4.566   8.190  -0.484  0.00  0.00    +0.027 A 
ATOM     11  C   UNL     1       5.018   9.491  -0.377  0.00  0.00    +0.051 A 
ATOM     12  C   UNL     1       4.286  10.425   0.341  0.00  0.00    +0.162 A 
ATOM     13  C   UNL     1       3.094  10.054   0.951  0.00  0.00    +0.164 A 
ATOM     14  C   UNL     1       2.639   8.749   0.840  0.00  0.00    +0.072 A 
ATOM     15  O   UNL     1       2.359  10.959   1.652  0.00  0.00    -0.485 OA
ATOM     16  C   UNL     1       3.027  12.161   2.052  0.00  0.00    +0.270 C 
ATOM     17  C   UNL     1       3.807  12.700   0.845  0.00  0.00    +0.270 C 
ATOM     18  O   UNL     1       4.750  11.703   0.439  0.00  0.00    -0.485 OA
ENDBRANCH   7   9
BRANCH   1  22
ATOM     19  C   UNL     1       0.084   1.455  -1.079  0.00  0.00    +0.024 A 
ATOM     20  C   UNL     1       1.228   2.137  -0.782  0.00  0.00    +0.032 A 
ATOM     21  C   UNL     1       2.423   1.423  -0.620  0.00  0.00    +0.097 A 
ATOM     22  C   UNL     1       3.741   1.803  -0.320  0.00  0.00    +0.047 A 
ATOM     23  C   UNL     1       4.508   0.634  -0.291  0.00  0.00    +0.147 A 
ATOM     24  N   UNL     1       3.731  -0.391  -0.552  0.00  0.00    -0.156 NA
ATOM     25  N   UNL     1       2.423   0.060  -0.763  0.00  0.00    -0.150 N 
ATOM     26  N   UNL     1       1.229  -0.604  -1.068  0.00  0.00    -0.157 NA
ATOM     27  C   UNL     1       0.114   0.065  -1.219  0.00  0.00    +0.135 A 
ENDBRANCH   1  22
TORSDOF 2
