REMARK  Name = CHEMBL507249
REMARK  4 active torsions:
REMARK  status: ('A' for Active; 'I' for Inactive)
REMARK    1  A    between atoms: C_6  and  C_7
REMARK    2  A    between atoms: C_12  and  C_13
REMARK    3  A    between atoms: C_16  and  O_19
REMARK    4  A    between atoms: N_20  and  C_21
REMARK                            x       y       z     vdW  Elec       q    Type
REMARK                         _______ _______ _______ _____ _____    ______ ____
ROOT
ATOM      1  C   UNL     1      -1.264  -0.774   0.011  0.00  0.00    +0.041 A 
ATOM      2  C   UNL     1      -2.527  -0.252   0.020  0.00  0.00    +0.115 A 
ATOM      3  N   UNL     1      -3.393  -1.282   0.025  0.00  0.00    -0.284 N 
ATOM      4  H   UNL     1      -4.361  -1.211   0.031  0.00  0.00    +0.188 HD
ATOM      5  N   UNL     1      -2.659  -2.474   0.018  0.00  0.00    -0.178 NA
ATOM      6  C   UNL     1      -1.386  -2.178   0.004  0.00  0.00    +0.075 A 
ENDROOT
BRANCH   1  12
ATOM      7  C   UNL     1      -0.017   1.394   0.010  0.00  0.00    +0.048 A 
ATOM      8  C   UNL     1       1.190   2.069   0.002  0.00  0.00    +0.116 A 
ATOM      9  N   UNL     1       2.319   1.378  -0.013  0.00  0.00    -0.223 NA
ATOM     10  C   UNL     1       2.308   0.053  -0.020  0.00  0.00    +0.216 A 
ATOM     11  N   UNL     1       1.175  -0.633  -0.013  0.00  0.00    -0.214 NA
ATOM     12  C   UNL     1       0.002  -0.004   0.002  0.00  0.00    +0.079 A 
ATOM     13  N   UNL     1       3.511  -0.632  -0.035  0.00  0.00    -0.311 N 
ATOM     14  H   UNL     1       3.517  -1.602  -0.040  0.00  0.00    +0.149 HD
BRANCH  13  15
ATOM     15  C   UNL     1       4.775   0.109  -0.043  0.00  0.00    +0.073 C 
ATOM     16  C   UNL     1       5.189   0.431  -1.494  0.00  0.00    +0.022 C 
ATOM     17  C   UNL     1       6.731   0.282  -1.490  0.00  0.00    +0.002 C 
ATOM     18  C   UNL     1       6.955  -0.933  -0.557  0.00  0.00    +0.002 C 
ATOM     19  C   UNL     1       5.897  -0.759   0.553  0.00  0.00    +0.022 C 
ENDBRANCH  13  15
ENDBRANCH   1  12
BRANCH   6  20
ATOM     20  C   UNL     1      -0.248  -3.166  -0.012  0.00  0.00    +0.040 C 
ATOM     21  C   UNL     1      -0.347  -4.038  -1.265  0.00  0.00    +0.012 C 
ATOM     22  C   UNL     1       0.808  -5.040  -1.281  0.00  0.00    +0.032 C 
ATOM     23  C   UNL     1       0.733  -5.926  -0.036  0.00  0.00    +0.115 C 
ATOM     24  C   UNL     1       0.832  -5.054   1.217  0.00  0.00    +0.032 C 
ATOM     25  C   UNL     1      -0.324  -4.051   1.233  0.00  0.00    +0.012 C 
BRANCH  23  26
ATOM     26  O   UNL     1       1.812  -6.862  -0.051  0.00  0.00    -0.392 OA
ATOM     27  H   UNL     1       1.827  -7.458   0.711  0.00  0.00    +0.210 HD
ENDBRANCH  23  26
ENDBRANCH   6  20
TORSDOF 4
