REMARK  Name = CHEMBL458421
REMARK  5 active torsions:
REMARK  status: ('A' for Active; 'I' for Inactive)
REMARK    1  A    between atoms: C_4  and  N_8
REMARK    2  A    between atoms: N_11  and  C_12
REMARK    3  A    between atoms: C_17  and  C_18
REMARK    4  A    between atoms: C_24  and  C_28
REMARK    5  A    between atoms: C_28  and  N_29
REMARK                            x       y       z     vdW  Elec       q    Type
REMARK                         _______ _______ _______ _____ _____    ______ ____
ROOT
ATOM      1  C   UNL     1       4.937  -3.906   0.844  0.00  0.00    +0.083 A 
ATOM      2  C   UNL     1       3.850  -4.715   1.195  0.00  0.00    +0.158 A 
ATOM      3  N   UNL     1       4.295  -5.902   1.518  0.00  0.00    -0.180 NA
ATOM      4  H   UNL     1       6.272  -6.670   1.569  0.00  0.00    +0.189 HD
ATOM      5  N   UNL     1       5.689  -5.915   1.392  0.00  0.00    -0.272 N 
ATOM      6  C   UNL     1       6.083  -4.673   0.967  0.00  0.00    +0.122 A 
ENDROOT
BRANCH   6   7
ATOM      7  C   UNL     1       7.461  -4.238   0.696  0.00  0.00    +0.159 A 
ATOM      8  N   UNL     1       8.577  -5.025   0.822  0.00  0.00    -0.337 N 
ATOM      9  H   UNL     1       8.598  -5.953   1.102  0.00  0.00    +0.167 HD
ATOM     10  C   UNL     1       9.666  -4.247   0.475  0.00  0.00    +0.067 A 
ATOM     11  C   UNL     1      11.032  -4.479   0.407  0.00  0.00    +0.028 A 
ATOM     12  C   UNL     1      11.880  -3.465   0.013  0.00  0.00    +0.007 A 
ATOM     13  C   UNL     1      11.376  -2.215  -0.316  0.00  0.00    -0.031 A 
ATOM     14  C   UNL     1      10.034  -1.967  -0.255  0.00  0.00    +0.034 A 
ATOM     15  C   UNL     1       9.155  -2.980   0.141  0.00  0.00    +0.090 A 
ATOM     16  N   UNL     1       7.809  -3.038   0.290  0.00  0.00    -0.226 NA
BRANCH  13  17
ATOM     17  C   UNL     1      12.319  -1.120  -0.743  0.00  0.00    +0.119 C 
BRANCH  17  18
ATOM     18  N   UNL     1      12.492  -1.165  -2.201  0.00  0.00    -0.294 NA
ATOM     19  C   UNL     1      13.186  -2.394  -2.612  0.00  0.00    +0.113 C 
ATOM     20  C   UNL     1      13.292  -2.428  -4.139  0.00  0.00    +0.175 C 
ATOM     21  O   UNL     1      13.965  -1.250  -4.591  0.00  0.00    -0.377 OA
ATOM     22  C   UNL     1      13.316  -0.034  -4.210  0.00  0.00    +0.175 C 
ATOM     23  C   UNL     1      13.210   0.025  -2.683  0.00  0.00    +0.113 C 
ENDBRANCH  17  18
ENDBRANCH  13  17
ENDBRANCH   6   7
BRANCH   1  27
ATOM     24  N   UNL     1       3.627  -0.653  -0.036  0.00  0.00    -0.264 N 
ATOM     25  C   UNL     1       3.685  -1.941   0.355  0.00  0.00    +0.308 C 
ATOM     26  O   UNL     1       2.664  -2.538   0.636  0.00  0.00    -0.252 OA
ATOM     27  N   UNL     1       4.876  -2.567   0.437  0.00  0.00    -0.266 N 
ATOM     28  H   UNL     1       4.432  -0.198  -0.331  0.00  0.00    +0.157 HD
ATOM     29  H   UNL     1       5.691  -2.091   0.213  0.00  0.00    +0.156 HD
BRANCH  24  33
ATOM     30  C   UNL     1      -0.015   1.381   0.016  0.00  0.00    +0.006 A 
ATOM     31  C   UNL     1       0.783   1.367   1.145  0.00  0.00    +0.040 A 
ATOM     32  C   UNL     1       1.991   0.693   1.132  0.00  0.00    +0.147 A 
ATOM     33  C   UNL     1       2.403   0.031  -0.019  0.00  0.00    +0.106 A 
ATOM     34  C   UNL     1       1.598   0.048  -1.151  0.00  0.00    +0.147 A 
ATOM     35  C   UNL     1       0.391   0.723  -1.130  0.00  0.00    +0.040 A 
ATOM     36  F   UNL     1       1.994  -0.595  -2.272  0.00  0.00    -0.203 F 
ATOM     37  F   UNL     1       2.771   0.680   2.235  0.00  0.00    -0.203 F 
ENDBRANCH  24  33
ENDBRANCH   1  27
TORSDOF 5
