REMARK  Name = CHEMBL487066
REMARK  8 active torsions:
REMARK  status: ('A' for Active; 'I' for Inactive)
REMARK    1  A    between atoms: C_1  and  C_2
REMARK    2  A    between atoms: C_5  and  C_10
REMARK    3  A    between atoms: N_6  and  C_7
REMARK    4  A    between atoms: C_7  and  C_8
REMARK    5  A    between atoms: C_7  and  C_9
REMARK    6  A    between atoms: N_16  and  C_17
REMARK    7  A    between atoms: C_20  and  C_23
REMARK    8  A    between atoms: N_25  and  C_26
REMARK                            x       y       z     vdW  Elec       q    Type
REMARK                         _______ _______ _______ _____ _____    ______ ____
ROOT
ATOM      1  C   UNL     1       0.189  -3.078   1.663  0.00  0.00    +0.094 A 
ATOM      2  C   UNL     1       0.263  -2.867   3.046  0.00  0.00    +0.050 A 
ATOM      3  C   UNL     1       0.442  -3.962   3.869  0.00  0.00    +0.116 A 
ATOM      4  N   UNL     1       0.538  -5.169   3.332  0.00  0.00    -0.223 NA
ATOM      5  C   UNL     1       0.465  -5.340   2.020  0.00  0.00    +0.220 A 
ATOM      6  N   UNL     1       0.289  -4.322   1.194  0.00  0.00    -0.213 NA
ATOM      7  N   UNL     1       0.571  -6.621   1.500  0.00  0.00    -0.284 N 
ATOM      8  H   UNL     1       0.600  -6.753   0.540  0.00  0.00    +0.155 HD
ENDROOT
BRANCH   1  13
ATOM      9  C   UNL     1      -0.293   1.585  -0.187  0.00  0.00    +0.086 C 
ATOM     10  C   UNL     1      -0.214   0.085  -0.072  0.00  0.00    +0.107 A 
ATOM     11  N   UNL     1      -0.335  -0.759  -1.063  0.00  0.00    -0.240 NA
ATOM     12  C   UNL     1      -0.211  -2.009  -0.604  0.00  0.00    +0.140 A 
ATOM     13  C   UNL     1      -0.002  -1.941   0.740  0.00  0.00    +0.087 A 
ATOM     14  N   UNL     1      -0.001  -0.603   1.068  0.00  0.00    -0.324 N 
BRANCH  14  15
ATOM     15  C   UNL     1       0.192  -0.034   2.404  0.00  0.00    +0.083 C 
ATOM     16  C   UNL     1       1.637  -0.263   2.852  0.00  0.00    +0.030 C 
ATOM     17  C   UNL     1      -0.099   1.467   2.366  0.00  0.00    +0.030 C 
ENDBRANCH  14  15
ENDBRANCH   1  13
BRANCH   7  18
ATOM     18  C   UNL     1       0.635  -7.717   2.356  0.00  0.00    +0.034 A 
ATOM     19  C   UNL     1       1.418  -8.817   2.018  0.00  0.00    +0.024 A 
ATOM     20  C   UNL     1       1.483  -9.902   2.862  0.00  0.00    +0.015 A 
ATOM     21  C   UNL     1       0.763  -9.899   4.060  0.00  0.00    +0.037 A 
ATOM     22  C   UNL     1      -0.021  -8.792   4.397  0.00  0.00    +0.015 A 
ATOM     23  C   UNL     1      -0.078  -7.708   3.551  0.00  0.00    +0.024 A 
BRANCH  21  24
ATOM     24  C   UNL     1       0.831 -11.060   4.967  0.00  0.00    +0.244 C 
ATOM     25  O   UNL     1       1.513 -12.023   4.672  0.00  0.00    -0.270 OA
ATOM     26  N   UNL     1       0.136 -11.055   6.122  0.00  0.00    -0.308 N 
ATOM     27  H   UNL     1      -0.409 -10.288   6.357  0.00  0.00    +0.149 HD
BRANCH  26  28
ATOM     28  C   UNL     1       0.203 -12.209   7.022  0.00  0.00    +0.073 C 
ATOM     29  C   UNL     1      -1.107 -12.699   7.641  0.00  0.00    +0.024 C 
ATOM     30  C   UNL     1      -0.081 -11.965   8.505  0.00  0.00    +0.024 C 
ENDBRANCH  26  28
ENDBRANCH  21  24
ENDBRANCH   7  18
TORSDOF 5
