REMARK  Name = CHEMBL191519
REMARK  8 active torsions:
REMARK  status: ('A' for Active; 'I' for Inactive)
REMARK    1  A    between atoms: C_1  and  C_2
REMARK    2  A    between atoms: C_2  and  C_3
REMARK    3  A    between atoms: C_7  and  C_11
REMARK    4  A    between atoms: C_14  and  O_19
REMARK    5  A    between atoms: C_15  and  O_17
REMARK    6  A    between atoms: O_17  and  C_18
REMARK    7  A    between atoms: O_19  and  C_20
REMARK    8  A    between atoms: N_21  and  C_23
REMARK                            x       y       z     vdW  Elec       q    Type
REMARK                         _______ _______ _______ _____ _____    ______ ____
ROOT
ATOM      1  C   UNL     1      -1.451  -0.486   0.007  0.00  0.00    +0.078 A 
ATOM      2  C   UNL     1      -2.147  -0.850   1.174  0.00  0.00    +0.106 A 
ATOM      3  C   UNL     1      -3.396  -1.356   0.773  0.00  0.00    +0.171 A 
ATOM      4  N   UNL     1      -4.262  -1.779   1.702  0.00  0.00    -0.209 NA
ATOM      5  C   UNL     1      -3.979  -1.735   2.982  0.00  0.00    +0.143 A 
ATOM      6  N   UNL     1      -2.790  -1.259   3.460  0.00  0.00    -0.306 N 
ATOM      7  C   UNL     1      -1.844  -0.806   2.604  0.00  0.00    +0.263 A 
ATOM      8  O   UNL     1      -0.778  -0.378   3.010  0.00  0.00    -0.267 OA
ATOM      9  N   UNL     1      -3.424  -1.288  -0.588  0.00  0.00    -0.211 N 
ATOM     10  N   UNL     1      -2.210  -0.741  -1.024  0.00  0.00    -0.169 NA
ATOM     11  H   UNL     1      -2.623  -1.245   4.416  0.00  0.00    +0.170 HD
ENDROOT
BRANCH   9  12
ATOM     12  C   UNL     1      -4.485  -1.690  -1.409  0.00  0.00    +0.104 A 
ATOM     13  C   UNL     1      -5.761  -1.182  -1.198  0.00  0.00    +0.069 A 
ATOM     14  C   UNL     1      -6.806  -1.581  -2.010  0.00  0.00    +0.042 A 
ATOM     15  C   UNL     1      -6.582  -2.486  -3.032  0.00  0.00    +0.044 A 
ATOM     16  C   UNL     1      -5.313  -2.994  -3.245  0.00  0.00    +0.042 A 
ATOM     17  C   UNL     1      -4.263  -2.594  -2.441  0.00  0.00    +0.069 A 
ATOM     18 CL   UNL     1      -2.670  -3.227  -2.714  0.00  0.00    -0.081 Cl
ATOM     19 CL   UNL     1      -7.898  -2.985  -4.050  0.00  0.00    -0.083 Cl
ATOM     20 CL   UNL     1      -6.042  -0.047   0.086  0.00  0.00    -0.081 Cl
ENDBRANCH   9  12
BRANCH   5  21
ATOM     21  C   UNL     1      -4.986  -2.219   3.946  0.00  0.00    +0.021 A 
ATOM     22  C   UNL     1      -4.676  -2.290   5.306  0.00  0.00    +0.015 A 
ATOM     23  C   UNL     1      -5.617  -2.743   6.205  0.00  0.00    +0.050 A 
ATOM     24  C   UNL     1      -6.875  -3.128   5.763  0.00  0.00    +0.162 A 
ATOM     25  C   UNL     1      -7.191  -3.059   4.407  0.00  0.00    +0.162 A 
ATOM     26  C   UNL     1      -6.254  -2.602   3.501  0.00  0.00    +0.061 A 
BRANCH  25  27
ATOM     27  O   UNL     1      -8.425  -3.438   3.977  0.00  0.00    -0.491 OA
ATOM     28  C   UNL     1      -8.680  -3.342   2.574  0.00  0.00    +0.277 C 
ENDBRANCH  25  27
BRANCH  24  29
ATOM     29  O   UNL     1      -7.800  -3.574   6.652  0.00  0.00    -0.491 OA
ATOM     30  C   UNL     1      -7.409  -3.619   8.026  0.00  0.00    +0.277 C 
ENDBRANCH  24  29
ENDBRANCH   5  21
BRANCH   1  32
ATOM     31  C   UNL     1      -0.159   1.631   0.024  0.00  0.00    +0.010 C 
ATOM     32  C   UNL     1      -0.065   0.105  -0.044  0.00  0.00    +0.055 C 
ENDBRANCH   1  32
TORSDOF 5
