REMARK  Name = CHEMBL497854
REMARK  6 active torsions:
REMARK  status: ('A' for Active; 'I' for Inactive)
REMARK    1  A    between atoms: C_1  and  C_2
REMARK    2  A    between atoms: C_4  and  C_7
REMARK    3  A    between atoms: C_7  and  N_8
REMARK    4  A    between atoms: C_13  and  N_15
REMARK    5  A    between atoms: N_15  and  C_16
REMARK    6  A    between atoms: C_18  and  C_22
REMARK                            x       y       z     vdW  Elec       q    Type
REMARK                         _______ _______ _______ _____ _____    ______ ____
ROOT
ATOM      1  N   UNL     1       1.424  -3.694  -1.928  0.00  0.00    -0.306 N 
ATOM      2  C   UNL     1       1.688  -4.785  -2.739  0.00  0.00    +0.217 A 
ATOM      3  N   UNL     1       0.675  -5.476  -3.241  0.00  0.00    -0.222 NA
ATOM      4  C   UNL     1       0.887  -6.526  -4.021  0.00  0.00    +0.133 A 
ATOM      5  C   UNL     1       2.186  -6.901  -4.311  0.00  0.00    +0.076 A 
ATOM      6  C   UNL     1       3.232  -6.153  -3.766  0.00  0.00    +0.143 A 
ATOM      7  N   UNL     1       2.946  -5.108  -2.996  0.00  0.00    -0.198 NA
ATOM      8 BR   UNL     1       2.536  -8.393  -5.418  0.00  0.00    -0.045 Br
ATOM      9  H   UNL     1       2.156  -3.177  -1.557  0.00  0.00    +0.149 HD
ENDROOT
BRANCH   6  10
ATOM     10  N   UNL     1       4.551  -6.493  -4.029  0.00  0.00    -0.284 N 
ATOM     11  H   UNL     1       4.752  -7.255  -4.595  0.00  0.00    +0.155 HD
BRANCH  10  12
ATOM     12  C   UNL     1       5.587  -5.740  -3.481  0.00  0.00    +0.120 A 
ATOM     13  C   UNL     1       5.452  -4.652  -2.674  0.00  0.00    +0.068 A 
ATOM     14  C   UNL     1       6.733  -4.198  -2.349  0.00  0.00    +0.068 A 
ATOM     15  N   UNL     1       7.608  -4.977  -2.932  0.00  0.00    -0.177 NA
ATOM     16  H   UNL     1       7.316  -6.673  -4.173  0.00  0.00    +0.190 HD
ATOM     17  N   UNL     1       6.917  -5.961  -3.649  0.00  0.00    -0.264 N 
BRANCH  14  18
ATOM     18  C   UNL     1       7.053  -3.013  -1.475  0.00  0.00    +0.040 C 
ATOM     19  C   UNL     1       5.928  -2.012  -1.202  0.00  0.00    +0.010 C 
ATOM     20  C   UNL     1       7.079  -1.634  -2.137  0.00  0.00    +0.010 C 
ENDBRANCH  14  18
ENDBRANCH  10  12
ENDBRANCH   6  10
BRANCH   1  21
ATOM     21  C   UNL     1       0.039  -3.320  -1.631  0.00  0.00    +0.181 C 
BRANCH  21  25
ATOM     22  C   UNL     1      -0.018   1.503   0.010  0.00  0.00    +0.069 C 
ATOM     23  C   UNL     1       0.002  -0.004   0.002  0.00  0.00    +0.081 A 
ATOM     24  C   UNL     1       0.008  -0.824  -1.141  0.00  0.00    +0.072 A 
ATOM     25  C   UNL     1       0.027  -2.108  -0.735  0.00  0.00    +0.154 A 
ATOM     26  O   UNL     1       0.034  -2.119   0.606  0.00  0.00    -0.358 OA
ATOM     27  N   UNL     1       0.023  -0.775   1.052  0.00  0.00    -0.083 NA
ENDBRANCH  21  25
ENDBRANCH   1  21
TORSDOF 5
