REMARK  Name = CHEMBL560817
REMARK  5 active torsions:
REMARK  status: ('A' for Active; 'I' for Inactive)
REMARK    1  A    between atoms: C_1  and  N_2
REMARK    2  A    between atoms: C_5  and  C_7
REMARK    3  A    between atoms: N_18  and  C_19
REMARK    4  A    between atoms: C_22  and  N_25
REMARK    5  A    between atoms: N_28  and  C_31
REMARK                            x       y       z     vdW  Elec       q    Type
REMARK                         _______ _______ _______ _____ _____    ______ ____
ROOT
ATOM      1  C   UNL     1      -0.673   0.873  -0.248  0.00  0.00    +0.173 C 
ATOM      2  N   UNL     1       0.198  -0.300  -0.129  0.00  0.00    -0.264 N 
ATOM      3  C   UNL     1       0.932  -0.824  -1.128  0.00  0.00    +0.091 A 
ATOM      4  C   UNL     1       1.621  -1.896  -0.602  0.00  0.00    +0.012 A 
ATOM      5  C   UNL     1       1.231  -1.975   0.735  0.00  0.00    +0.151 A 
ATOM      6  N   UNL     1       0.380  -0.983   0.952  0.00  0.00    -0.166 NA
ATOM      7  C   UNL     1       2.582  -2.715  -1.414  0.00  0.00    +0.044 C 
ATOM      8  C   UNL     1       2.126  -2.751  -2.873  0.00  0.00    +0.043 C 
ATOM      9  C   UNL     1       1.721  -1.398  -3.382  0.00  0.00    -0.001 A 
ATOM     10  C   UNL     1       1.112  -0.454  -2.542  0.00  0.00    +0.097 A 
ATOM     11  N   UNL     1       0.732   0.716  -3.032  0.00  0.00    -0.212 NA
ATOM     12  C   UNL     1       0.946   1.005  -4.309  0.00  0.00    +0.220 A 
ATOM     13  N   UNL     1       1.540   0.145  -5.124  0.00  0.00    -0.222 NA
ATOM     14  C   UNL     1       1.933  -1.048  -4.702  0.00  0.00    +0.120 A 
ATOM     15  N   UNL     1       0.539   2.233  -4.802  0.00  0.00    -0.284 N 
ATOM     16  H   UNL     1       0.178   2.902  -4.200  0.00  0.00    +0.155 HD
ENDROOT
BRANCH  15  17
ATOM     17  C   UNL     1       0.649   2.510  -6.171  0.00  0.00    +0.034 A 
ATOM     18  C   UNL     1       0.390   1.514  -7.104  0.00  0.00    +0.025 A 
ATOM     19  C   UNL     1       0.499   1.786  -8.453  0.00  0.00    +0.025 A 
ATOM     20  C   UNL     1       0.867   3.056  -8.877  0.00  0.00    +0.030 A 
ATOM     21  C   UNL     1       1.126   4.052  -7.944  0.00  0.00    +0.025 A 
ATOM     22  C   UNL     1       1.012   3.781  -6.596  0.00  0.00    +0.025 A 
BRANCH  20  23
ATOM     23  N   UNL     1       0.978   3.332 -10.245  0.00  0.00    -0.333 N 
ATOM     24  C   UNL     1       1.488   4.629 -10.716  0.00  0.00    +0.086 C 
ATOM     25  C   UNL     1       2.592   4.372 -11.746  0.00  0.00    -0.060 C 
ATOM     26  N   UNL     1       2.075   3.502 -12.810  0.00  0.00    +0.380 N 
ATOM     27  C   UNL     1       1.736   2.184 -12.257  0.00  0.00    -0.060 C 
ATOM     28  C   UNL     1       0.594   2.331 -11.252  0.00  0.00    +0.086 C 
ATOM     29  C   UNL     1       3.098   3.345 -13.852  0.00  0.00    -0.096 C 
ATOM     30  H   UNL     1       1.249   3.919 -13.212  0.00  0.00    -0.082 HD
ENDBRANCH  20  23
ENDBRANCH  15  17
BRANCH   5  31
ATOM     31  C   UNL     1       1.685  -2.973   1.725  0.00  0.00    +0.262 C 
ATOM     32  O   UNL     1       2.478  -3.835   1.399  0.00  0.00    -0.269 OA
ATOM     33  N   UNL     1       1.221  -2.928   2.989  0.00  0.00    -0.324 N 
ATOM     34  H   UNL     1       0.589  -2.240   3.250  0.00  0.00    +0.145 HD
ATOM     35  H   UNL     1       1.520  -3.584   3.639  0.00  0.00    +0.145 HD
ENDBRANCH   5  31
TORSDOF 3
