REMARK  Name = CHEMBL355631
REMARK  5 active torsions:
REMARK  status: ('A' for Active; 'I' for Inactive)
REMARK    1  A    between atoms: C_1  and  O_2
REMARK    2  A    between atoms: O_2  and  C_3
REMARK    3  A    between atoms: C_8  and  C_9
REMARK    4  A    between atoms: C_16  and  C_17
REMARK    5  A    between atoms: C_18  and  C_19
REMARK                            x       y       z     vdW  Elec       q    Type
REMARK                         _______ _______ _______ _____ _____    ______ ____
ROOT
ATOM      1  C   UNL     1       0.272  -2.998  -0.420  0.00  0.00    +0.043 C 
ATOM      2  C   UNL     1       0.385  -4.325  -0.808  0.00  0.00    +0.049 C 
ATOM      3  C   UNL     1      -0.145  -5.508  -0.102  0.00  0.00    +0.027 A 
ATOM      4  C   UNL     1       0.218  -6.619  -0.875  0.00  0.00    +0.043 A 
ATOM      5  C   UNL     1      -0.149  -7.891  -0.453  0.00  0.00    +0.027 A 
ATOM      6  C   UNL     1      -0.865  -8.060   0.717  0.00  0.00    +0.041 A 
ATOM      7  C   UNL     1      -1.229  -6.971   1.488  0.00  0.00    +0.139 A 
ATOM      8  C   UNL     1      -0.872  -5.681   1.086  0.00  0.00    +0.070 A 
ATOM      9  F   UNL     1      -1.929  -7.154   2.629  0.00  0.00    -0.204 F 
ATOM     10  N   UNL     1       0.923  -6.167  -1.984  0.00  0.00    -0.281 N 
ATOM     11  C   UNL     1       1.029  -4.827  -1.972  0.00  0.00    +0.249 C 
ATOM     12  O   UNL     1       1.589  -4.153  -2.819  0.00  0.00    -0.270 OA
ATOM     13  H   UNL     1       1.286  -6.741  -2.677  0.00  0.00    +0.155 HD
ENDROOT
BRANCH   1  19
ATOM     14  C   UNL     1       0.517  -0.701  -1.367  0.00  0.00    +0.145 A 
ATOM     15  C   UNL     1       1.524  -0.056  -2.097  0.00  0.00    +0.065 A 
ATOM     16  C   UNL     1       2.533  -0.938  -2.291  0.00  0.00    +0.087 A 
ATOM     17  N   UNL     1       2.209  -2.122  -1.712  0.00  0.00    -0.358 N 
ATOM     18  H   UNL     1       2.761  -2.920  -1.706  0.00  0.00    +0.165 HD
ATOM     19  C   UNL     1       0.961  -2.000  -1.125  0.00  0.00    +0.082 A 
BRANCH  14  21
ATOM     20  C   UNL     1      -0.911   1.198  -1.328  0.00  0.00    +0.277 C 
ATOM     21  O   UNL     1      -0.662  -0.162  -0.966  0.00  0.00    -0.493 OA
ENDBRANCH  14  21
ENDBRANCH   1  19
BRANCH   8  22
ATOM     22  C   UNL     1      -1.244  -4.548   1.878  0.00  0.00    -0.064 C 
ATOM     23  C   UNL     1      -1.549  -3.619   2.527  0.00  0.00    -0.113 C 
BRANCH  23  24
ATOM     24  C   UNL     1      -1.931  -2.454   3.342  0.00  0.00    +0.006 C 
ATOM     25  C   UNL     1      -2.796  -1.489   2.504  0.00  0.00    -0.005 C 
ATOM     26  C   UNL     1      -2.307  -0.091   2.965  0.00  0.00    -0.020 C 
ATOM     27  C   UNL     1      -0.796  -0.347   3.192  0.00  0.00    -0.081 C 
ATOM     28  N   UNL     1      -0.725  -1.715   3.758  0.00  0.00    +0.388 N 
ATOM     29  H   UNL     1      -0.688  -1.666   4.765  0.00  0.00    -0.084 HD
ATOM     30  H   UNL     1       0.098  -2.185   3.411  0.00  0.00    -0.084 HD
ENDBRANCH  23  24
ENDBRANCH   8  22
TORSDOF 4
