REMARK  Name = CHEMBL186396
REMARK  10 active torsions:
REMARK  status: ('A' for Active; 'I' for Inactive)
REMARK    1  A    between atoms: C_1  and  N_2
REMARK    2  A    between atoms: N_5  and  C_8
REMARK    3  A    between atoms: C_8  and  C_9
REMARK    4  A    between atoms: C_9  and  O_10
REMARK    5  A    between atoms: O_10  and  C_11
REMARK    6  A    between atoms: C_14  and  C_18
REMARK    7  A    between atoms: C_18  and  C_20
REMARK    8  A    between atoms: C_21  and  N_39
REMARK    9  A    between atoms: C_26  and  C_29
REMARK   10  A    between atoms: C_29  and  C_31
REMARK                            x       y       z     vdW  Elec       q    Type
REMARK                         _______ _______ _______ _____ _____    ______ ____
ROOT
ATOM      1  C   UNL     1      -0.328  -5.045   9.912  0.00  0.00    +0.135 A 
ATOM      2  C   UNL     1      -1.361  -5.732  10.555  0.00  0.00    +0.146 A 
ATOM      3  N   UNL     1      -1.822  -4.958  11.532  0.00  0.00    -0.213 NA
ATOM      4  C   UNL     1      -1.148  -3.811  11.560  0.00  0.00    +0.140 A 
ATOM      5  N   UNL     1      -0.205  -3.829  10.570  0.00  0.00    -0.294 N 
ATOM      6  C   UNL     1       0.624  -2.781  10.382  0.00  0.00    +0.105 A 
ATOM      7  C   UNL     1       0.538  -1.667  11.192  0.00  0.00    +0.039 A 
ATOM      8  C   UNL     1      -0.428  -1.627  12.226  0.00  0.00    +0.017 A 
ATOM      9  C   UNL     1      -1.263  -2.685  12.400  0.00  0.00    +0.047 A 
ENDROOT
BRANCH   2  10
ATOM     10  N   UNL     1      -1.825  -6.997  10.229  0.00  0.00    -0.341 N 
ATOM     11  H   UNL     1      -1.376  -7.517   9.543  0.00  0.00    +0.144 HD
ATOM     12  H   UNL     1      -2.597  -7.364  10.688  0.00  0.00    +0.144 HD
ENDBRANCH   2  10
BRANCH   1  13
ATOM     13  C   UNL     1       0.439  -5.499   8.819  0.00  0.00    +0.219 C 
ATOM     14  O   UNL     1       1.415  -6.205   9.011  0.00  0.00    -0.285 OA
BRANCH  13  18
ATOM     15  C   UNL     1      -0.651  -4.408   4.859  0.00  0.00    +0.126 A 
ATOM     16  C   UNL     1       0.523  -5.116   5.083  0.00  0.00    +0.084 A 
ATOM     17  C   UNL     1       0.882  -5.473   6.367  0.00  0.00    +0.140 A 
ATOM     18  C   UNL     1       0.061  -5.120   7.444  0.00  0.00    +0.094 A 
ATOM     19  C   UNL     1      -1.121  -4.406   7.212  0.00  0.00    +0.140 A 
ATOM     20  C   UNL     1      -1.467  -4.050   5.924  0.00  0.00    +0.084 A 
ATOM     21  F   UNL     1      -1.919  -4.063   8.247  0.00  0.00    -0.205 F 
ATOM     22  F   UNL     1       2.023  -6.162   6.584  0.00  0.00    -0.205 F 
BRANCH  15  23
ATOM     23  O   UNL     1      -0.999  -4.060   3.594  0.00  0.00    -0.491 OA
BRANCH  23  24
ATOM     24  C   UNL     1      -0.115  -4.460   2.544  0.00  0.00    +0.244 C 
BRANCH  24  25
ATOM     25  C   UNL     1      -0.670  -3.982   1.201  0.00  0.00    +0.125 C 
BRANCH  25  30
ATOM     26  C   UNL     1      -0.102   1.502   0.037  0.00  0.00    -0.096 C 
ATOM     27  N   UNL     1      -0.071   0.033   0.022  0.00  0.00    +0.379 N 
ATOM     28  C   UNL     1      -1.445  -0.486   0.033  0.00  0.00    -0.064 C 
ATOM     29  C   UNL     1      -1.414  -2.015  -0.001  0.00  0.00    +0.066 C 
ATOM     30  N   UNL     1      -0.674  -2.513   1.167  0.00  0.00    -0.303 NA
ATOM     31  C   UNL     1       0.696  -1.982   1.183  0.00  0.00    +0.066 C 
ATOM     32  C   UNL     1       0.647  -0.453   1.207  0.00  0.00    -0.064 C 
ATOM     33  H   UNL     1       0.401  -0.285  -0.811  0.00  0.00    -0.082 HD
ENDBRANCH  25  30
ENDBRANCH  24  25
ENDBRANCH  23  24
ENDBRANCH  15  23
ENDBRANCH  13  18
ENDBRANCH   1  13
BRANCH   7  34
ATOM     34  C   UNL     1       1.447  -0.525  10.983  0.00  0.00    +0.197 C 
ATOM     35  O   UNL     1       2.337  -0.601  10.157  0.00  0.00    -0.287 OA
BRANCH  34  36
ATOM     36  C   UNL     1       1.278   0.709  11.775  0.00  0.00    +0.059 A 
ATOM     37  C   UNL     1       0.371   1.690  11.362  0.00  0.00    +0.053 A 
ATOM     38  C   UNL     1       0.218   2.841  12.109  0.00  0.00    +0.021 A 
ATOM     39  C   UNL     1       0.959   3.025  13.263  0.00  0.00    +0.003 A 
ATOM     40  C   UNL     1       1.859   2.059  13.678  0.00  0.00    +0.021 A 
ATOM     41  C   UNL     1       2.018   0.900  12.945  0.00  0.00    +0.053 A 
ATOM     42 CL   UNL     1       3.142  -0.315  13.473  0.00  0.00    -0.083 Cl
ATOM     43 CL   UNL     1      -0.559   1.461   9.915  0.00  0.00    -0.083 Cl
ENDBRANCH  34  36
ENDBRANCH   7  34
TORSDOF 9
