REMARK  Name = CHEMBL1164262
REMARK  6 active torsions:
REMARK  status: ('A' for Active; 'I' for Inactive)
REMARK    1  A    between atoms: C_1  and  N_2
REMARK    2  A    between atoms: C_3  and  C_7
REMARK    3  A    between atoms: C_7  and  N_8
REMARK    4  A    between atoms: C_9  and  C_11
REMARK    5  A    between atoms: C_16  and  C_21
REMARK    6  A    between atoms: C_22  and  C_27
REMARK                            x       y       z     vdW  Elec       q    Type
REMARK                         _______ _______ _______ _____ _____    ______ ____
ROOT
ATOM      1  C   UNL     1      -3.035   0.604  -4.620  0.00  0.00    +0.039 A 
ATOM      2  C   UNL     1      -4.088   0.398  -3.716  0.00  0.00    +0.014 A 
ATOM      3  C   UNL     1      -5.375   0.624  -4.093  0.00  0.00    +0.011 A 
ATOM      4  C   UNL     1      -5.658   1.066  -5.394  0.00  0.00    +0.000 A 
ATOM      5  C   UNL     1      -6.860   1.381  -6.071  0.00  0.00    +0.037 A 
ATOM      6  C   UNL     1      -6.538   1.762  -7.334  0.00  0.00    +0.068 A 
ATOM      7  N   UNL     1      -5.174   1.703  -7.493  0.00  0.00    -0.353 N 
ATOM      8  H   UNL     1      -4.689   1.925  -8.304  0.00  0.00    +0.166 HD
ATOM      9  C   UNL     1      -4.607   1.276  -6.309  0.00  0.00    +0.048 A 
ATOM     10  C   UNL     1      -3.298   1.048  -5.914  0.00  0.00    +0.039 A 
ENDROOT
BRANCH   6  11
ATOM     11  C   UNL     1      -7.503   2.174  -8.375  0.00  0.00    +0.116 A 
ATOM     12  C   UNL     1      -7.291   3.194  -9.403  0.00  0.00    +0.029 A 
ATOM     13  C   UNL     1      -8.434   3.248 -10.144  0.00  0.00    +0.114 A 
ATOM     14  N   UNL     1      -9.302   2.348  -9.642  0.00  0.00    -0.284 N 
ATOM     15  H   UNL     1     -10.194   2.179  -9.983  0.00  0.00    +0.188 HD
ATOM     16  N   UNL     1      -8.715   1.690  -8.556  0.00  0.00    -0.172 NA
BRANCH  12  17
ATOM     17  C   UNL     1      -6.069   4.011  -9.601  0.00  0.00    -0.014 A 
ATOM     18  C   UNL     1      -5.493   4.681  -8.523  0.00  0.00    +0.008 A 
ATOM     19  C   UNL     1      -4.356   5.440  -8.713  0.00  0.00    +0.001 A 
ATOM     20  C   UNL     1      -3.788   5.536  -9.970  0.00  0.00    +0.000 A 
ATOM     21  C   UNL     1      -4.355   4.874 -11.044  0.00  0.00    +0.001 A 
ATOM     22  C   UNL     1      -5.489   4.108 -10.865  0.00  0.00    +0.008 A 
ENDBRANCH  12  17
ENDBRANCH   6  11
BRANCH   1  24
ATOM     23  N   UNL     1      -1.387  -0.075  -2.946  0.00  0.00    -0.306 N 
ATOM     24  C   UNL     1      -1.644   0.354  -4.197  0.00  0.00    +0.244 C 
ATOM     25  O   UNL     1      -0.730   0.537  -4.977  0.00  0.00    -0.270 OA
ATOM     26  H   UNL     1      -2.117  -0.221  -2.323  0.00  0.00    +0.149 HD
BRANCH  23  27
ATOM     27  C   UNL     1      -0.005  -0.323  -2.526  0.00  0.00    +0.159 C 
BRANCH  27  30
ATOM     28  C   UNL     1      -0.018   1.461   0.010  0.00  0.00    +0.172 C 
ATOM     29  N   UNL     1       0.002  -0.004   0.002  0.00  0.00    -0.270 N 
ATOM     30  C   UNL     1       0.008  -0.792  -1.094  0.00  0.00    +0.056 A 
ATOM     31  C   UNL     1       0.027  -2.079  -0.676  0.00  0.00    +0.046 A 
ATOM     32  C   UNL     1       0.034  -2.078   0.723  0.00  0.00    +0.134 A 
ATOM     33  N   UNL     1       0.025  -0.834   1.130  0.00  0.00    -0.180 NA
ENDBRANCH  27  30
ENDBRANCH  23  27
ENDBRANCH   1  24
TORSDOF 5
