REMARK  Name = CHEMBL147012
REMARK  5 active torsions:
REMARK  status: ('A' for Active; 'I' for Inactive)
REMARK    1  A    between atoms: C_1  and  O_2
REMARK    2  A    between atoms: O_2  and  C_3
REMARK    3  A    between atoms: C_6  and  C_9
REMARK    4  A    between atoms: C_19  and  N_23
REMARK    5  A    between atoms: N_26  and  N_27
REMARK                            x       y       z     vdW  Elec       q    Type
REMARK                         _______ _______ _______ _____ _____    ______ ____
ROOT
ATOM      1  C   UNL     1      -4.980  -2.632   0.055  0.00  0.00    +0.104 A 
ATOM      2  C   UNL     1      -5.280  -3.849  -0.603  0.00  0.00    +0.075 A 
ATOM      3  C   UNL     1      -6.608  -4.148  -0.330  0.00  0.00    +0.078 A 
ATOM      4  N   UNL     1      -7.089  -3.160   0.455  0.00  0.00    -0.276 N 
ATOM      5  N   UNL     1      -6.065  -2.236   0.687  0.00  0.00    -0.173 NA
ATOM      6  H   UNL     1      -7.992  -3.104   0.804  0.00  0.00    +0.189 HD
ATOM      7  C   UNL     1      -6.962  -5.420  -1.005  0.00  0.00    +0.013 A 
ATOM      8  C   UNL     1      -8.141  -6.149  -1.054  0.00  0.00    +0.011 A 
ATOM      9  C   UNL     1      -8.200  -7.333  -1.777  0.00  0.00    +0.002 A 
ATOM     10  C   UNL     1      -7.094  -7.798  -2.452  0.00  0.00    +0.024 A 
ATOM     11  C   UNL     1      -5.896  -7.080  -2.416  0.00  0.00    +0.046 A 
ATOM     12  C   UNL     1      -5.827  -5.889  -1.693  0.00  0.00    +0.053 A 
ATOM     13  C   UNL     1      -4.734  -4.918  -1.463  0.00  0.00    +0.200 C 
ATOM     14  O   UNL     1      -3.602  -4.988  -1.899  0.00  0.00    -0.286 OA
ENDROOT
BRANCH   1  18
ATOM     15  C   UNL     1      -1.232  -0.623   0.016  0.00  0.00    +0.120 A 
ATOM     16  C   UNL     1      -2.411   0.110   0.035  0.00  0.00    +0.046 A 
ATOM     17  C   UNL     1      -3.628  -0.538   0.047  0.00  0.00    +0.013 A 
ATOM     18  C   UNL     1      -3.674  -1.932   0.041  0.00  0.00    +0.003 A 
ATOM     19  C   UNL     1      -2.488  -2.666   0.022  0.00  0.00    +0.013 A 
ATOM     20  C   UNL     1      -1.274  -2.011   0.004  0.00  0.00    +0.046 A 
BRANCH  15  22
ATOM     21  C   UNL     1      -0.064   1.447   0.017  0.00  0.00    +0.277 C 
ATOM     22  O   UNL     1      -0.035   0.018   0.004  0.00  0.00    -0.495 OA
ENDBRANCH  15  22
ENDBRANCH   1  18
BRANCH  11  23
ATOM     23  N   UNL     1      -4.779  -7.549  -3.098  0.00  0.00    -0.268 N 
ATOM     24  C   UNL     1      -4.931  -8.364  -4.160  0.00  0.00    +0.318 C 
ATOM     25  O   UNL     1      -6.043  -8.608  -4.585  0.00  0.00    -0.251 OA
ATOM     26  N   UNL     1      -3.849  -8.910  -4.751  0.00  0.00    -0.232 N 
ATOM     27  H   UNL     1      -3.890  -7.289  -2.809  0.00  0.00    +0.156 HD
ATOM     28  H   UNL     1      -3.958  -9.497  -5.516  0.00  0.00    +0.171 HD
BRANCH  26  29
ATOM     29  N   UNL     1      -2.599  -8.637  -4.273  0.00  0.00    -0.226 NA
ATOM     30  C   UNL     1      -1.921  -9.872  -3.825  0.00  0.00    +0.105 C 
ATOM     31  C   UNL     1      -1.008 -10.274  -5.010  0.00  0.00    +0.018 C 
ATOM     32  C   UNL     1      -0.529  -8.890  -5.521  0.00  0.00    +0.018 C 
ATOM     33  C   UNL     1      -1.767  -7.994  -5.307  0.00  0.00    +0.105 C 
ENDBRANCH  26  29
ENDBRANCH  11  23
TORSDOF 4
