REMARK  Name = CHEMBL143748
REMARK  5 active torsions:
REMARK  status: ('A' for Active; 'I' for Inactive)
REMARK    1  A    between atoms: C_5  and  N_7
REMARK    2  A    between atoms: N_10  and  C_11
REMARK    3  A    between atoms: C_13  and  C_17
REMARK    4  A    between atoms: C_17  and  N_18
REMARK    5  A    between atoms: N_18  and  C_19
REMARK                            x       y       z     vdW  Elec       q    Type
REMARK                         _______ _______ _______ _____ _____    ______ ____
ROOT
ATOM      1  N   UNL     1       1.231  -2.086  -0.011  0.00  0.00    -0.269 N 
ATOM      2  C   UNL     1       0.076  -2.774   0.089  0.00  0.00    +0.309 C 
ATOM      3  O   UNL     1      -0.986  -2.182   0.094  0.00  0.00    -0.252 OA
ATOM      4  N   UNL     1       0.099  -4.118   0.184  0.00  0.00    -0.254 N 
ATOM      5  H   UNL     1       2.072  -2.560  -0.097  0.00  0.00    +0.156 HD
ATOM      6  H   UNL     1       0.946  -4.590   0.180  0.00  0.00    +0.158 HD
ENDROOT
BRANCH   1  11
ATOM      7  C   UNL     1       0.150   1.372   0.648  0.00  0.00    +0.003 A 
ATOM      8  C   UNL     1       1.166   2.091   0.051  0.00  0.00    +0.013 A 
ATOM      9  C   UNL     1       2.217   1.425  -0.580  0.00  0.00    +0.044 A 
ATOM     10  C   UNL     1       2.242   0.026  -0.582  0.00  0.00    +0.006 A 
ATOM     11  C   UNL     1       1.216  -0.686   0.010  0.00  0.00    +0.040 A 
ATOM     12  C   UNL     1       0.168  -0.010   0.626  0.00  0.00    +0.024 A 
ATOM     13  C   UNL     1       3.514  -0.367  -1.274  0.00  0.00    +0.109 C 
ATOM     14  C   UNL     1       3.272  -1.299  -2.473  0.00  0.00    +0.029 C 
ATOM     15  C   UNL     1       4.269  -0.809  -3.549  0.00  0.00    +0.021 C 
ATOM     16  C   UNL     1       4.990   0.399  -2.901  0.00  0.00    +0.109 C 
ATOM     17  N   UNL     1       4.046   0.880  -1.870  0.00  0.00    -0.290 N 
ATOM     18  C   UNL     1       3.411   1.909  -1.305  0.00  0.00    +0.247 C 
ATOM     19  O   UNL     1       3.761   3.071  -1.377  0.00  0.00    -0.270 OA
ENDBRANCH   1  11
BRANCH   4  20
ATOM     20  C   UNL     1      -1.096  -4.830   0.287  0.00  0.00    +0.122 A 
ATOM     21  C   UNL     1      -2.349  -4.300   0.300  0.00  0.00    +0.069 A 
ATOM     22  C   UNL     1      -3.259  -5.355   0.416  0.00  0.00    +0.078 A 
ATOM     23  N   UNL     1      -2.585  -6.475   0.472  0.00  0.00    -0.176 NA
ATOM     24  N   UNL     1      -1.220  -6.173   0.388  0.00  0.00    -0.264 N 
ATOM     25  H   UNL     1      -0.492  -6.814   0.401  0.00  0.00    +0.190 HD
BRANCH  22  26
ATOM     26  C   UNL     1      -4.759  -5.224   0.470  0.00  0.00    +0.138 C 
BRANCH  26  27
ATOM     27  N   UNL     1      -5.314  -5.404  -0.878  0.00  0.00    -0.307 NA
ATOM     28  H   UNL     1      -4.904  -4.752  -1.529  0.00  0.00    +0.123 HD
BRANCH  27  29
ATOM     29  C   UNL     1      -6.779  -5.284  -0.865  0.00  0.00    +0.063 C 
ATOM     30  C   UNL     1      -7.210  -3.817  -1.075  0.00  0.00    +0.054 C 
ATOM     31  C   UNL     1      -8.481  -3.891  -1.893  0.00  0.00    -0.043 A 
ATOM     32  C   UNL     1      -9.465  -2.940  -2.110  0.00  0.00    +0.005 A 
ATOM     33  C   UNL     1     -10.554  -3.236  -2.907  0.00  0.00    +0.020 A 
ATOM     34  C   UNL     1     -10.662  -4.485  -3.491  0.00  0.00    +0.041 A 
ATOM     35  C   UNL     1      -9.681  -5.435  -3.276  0.00  0.00    +0.024 A 
ATOM     36  C   UNL     1      -8.589  -5.139  -2.477  0.00  0.00    -0.041 A 
ATOM     37  C   UNL     1      -7.399  -5.994  -2.087  0.00  0.00    +0.054 C 
ATOM     38 CL   UNL     1     -12.029  -4.860  -4.494  0.00  0.00    -0.084 Cl
ENDBRANCH  27  29
ENDBRANCH  26  27
ENDBRANCH  22  26
ENDBRANCH   4  20
TORSDOF 5
