REMARK  Name = CHEMBL1077107
REMARK  9 active torsions:
REMARK  status: ('A' for Active; 'I' for Inactive)
REMARK    1  A    between atoms: C_1  and  C_2
REMARK    2  A    between atoms: C_3  and  C_30
REMARK    3  A    between atoms: C_4  and  C_22
REMARK    4  A    between atoms: N_8  and  N_9
REMARK    5  A    between atoms: C_13  and  C_14
REMARK    6  A    between atoms: C_25  and  O_29
REMARK    7  A    between atoms: C_27  and  O_28
REMARK    8  A    between atoms: N_32  and  C_33
REMARK    9  A    between atoms: C_37  and  N_39
REMARK                            x       y       z     vdW  Elec       q    Type
REMARK                         _______ _______ _______ _____ _____    ______ ____
ROOT
ATOM      1  C   UNL     1      -0.888   2.250  -0.120  0.00  0.00    +0.061 C 
ATOM      2  C   UNL     1      -0.793   0.798  -0.513  0.00  0.00    +0.018 C 
ATOM      3  C   UNL     1      -1.910   0.135  -0.853  0.00  0.00    +0.058 C 
ATOM      4  C   UNL     1      -1.879  -1.306  -1.289  0.00  0.00    +0.167 C 
ATOM      5  N   UNL     1      -0.578  -1.890  -0.925  0.00  0.00    -0.205 NA
ATOM      6  C   UNL     1       0.531  -1.074  -1.084  0.00  0.00    +0.221 C 
ATOM      7  N   UNL     1       0.434   0.185  -0.520  0.00  0.00    -0.288 N 
ATOM      8  N   UNL     1       1.607  -1.470  -1.734  0.00  0.00    -0.138 NA
ATOM      9  H   UNL     1       1.212   0.621  -0.138  0.00  0.00    +0.155 HD
ENDROOT
BRANCH   8  10
ATOM     10  N   UNL     1       2.689  -0.595  -1.897  0.00  0.00    -0.139 N 
ATOM     11  C   UNL     1       3.414  -0.216  -0.854  0.00  0.00    +0.278 C 
ATOM     12  O   UNL     1       3.172  -0.610   0.272  0.00  0.00    -0.267 OA
ATOM     13  C   UNL     1       4.532   0.708  -1.131  0.00  0.00    +0.082 C 
ATOM     14  C   UNL     1       5.457   1.267  -0.230  0.00  0.00    +0.066 C 
ATOM     15  S   UNL     1       4.422   0.922  -2.796  0.00  0.00    -0.059 S 
ATOM     16  C   UNL     1       3.016  -0.125  -3.118  0.00  0.00    +0.142 C 
ATOM     17  S   UNL     1       2.260  -0.454  -4.618  0.00  0.00    -0.025 S 
BRANCH  14  18
ATOM     18  C   UNL     1       5.490   0.834   1.088  0.00  0.00    +0.129 A 
ATOM     19  C   UNL     1       6.266   1.392   2.130  0.00  0.00    +0.049 A 
ATOM     20  C   UNL     1       5.988   0.652   3.265  0.00  0.00    +0.042 A 
ATOM     21  C   UNL     1       5.072  -0.320   2.908  0.00  0.00    +0.195 A 
ATOM     22  O   UNL     1       4.783  -0.193   1.608  0.00  0.00    -0.463 OA
ENDBRANCH  14  18
ENDBRANCH   8  10
BRANCH   4  23
ATOM     23  C   UNL     1      -2.983  -2.066  -0.600  0.00  0.00    +0.021 A 
ATOM     24  C   UNL     1      -2.734  -2.711   0.597  0.00  0.00    +0.013 A 
ATOM     25  C   UNL     1      -3.744  -3.408   1.231  0.00  0.00    +0.046 A 
ATOM     26  C   UNL     1      -5.011  -3.462   0.668  0.00  0.00    +0.120 A 
ATOM     27  C   UNL     1      -5.263  -2.815  -0.532  0.00  0.00    +0.091 A 
ATOM     28  C   UNL     1      -4.250  -2.111  -1.164  0.00  0.00    +0.126 A 
BRANCH  28  29
ATOM     29  O   UNL     1      -4.495  -1.471  -2.337  0.00  0.00    -0.506 OA
ATOM     30  H   UNL     1      -4.341  -2.016  -3.122  0.00  0.00    +0.292 HD
ENDBRANCH  28  29
BRANCH  26  31
ATOM     31  O   UNL     1      -6.005  -4.148   1.292  0.00  0.00    -0.507 OA
ATOM     32  H   UNL     1      -6.519  -3.616   1.915  0.00  0.00    +0.292 HD
ENDBRANCH  26  31
ENDBRANCH   4  23
BRANCH   3  33
ATOM     33  C   UNL     1      -3.154   0.811  -0.800  0.00  0.00    +0.248 C 
ATOM     34  O   UNL     1      -3.673   1.213  -1.825  0.00  0.00    -0.270 OA
ATOM     35  N   UNL     1      -3.763   1.009   0.386  0.00  0.00    -0.282 N 
ATOM     36  H   UNL     1      -3.306   0.779   1.210  0.00  0.00    +0.155 HD
BRANCH  35  37
ATOM     37  C   UNL     1      -5.054   1.544   0.428  0.00  0.00    +0.036 A 
ATOM     38  C   UNL     1      -5.969   1.235  -0.571  0.00  0.00    +0.023 A 
ATOM     39  C   UNL     1      -7.243   1.766  -0.526  0.00  0.00    +0.004 A 
ATOM     40  C   UNL     1      -7.609   2.604   0.512  0.00  0.00    +0.033 A 
ATOM     41  C   UNL     1      -6.701   2.913   1.508  0.00  0.00    +0.128 A 
ATOM     42  C   UNL     1      -5.427   2.382   1.472  0.00  0.00    +0.056 A 
BRANCH  41  43
ATOM     43  N   UNL     1      -7.097   3.810   2.616  0.00  0.00    +0.056 N 
ATOM     44  O   UNL     1      -8.314   4.313   2.654  0.00  0.00    -0.126 OA
ATOM     45  O   UNL     1      -6.233   4.105   3.565  0.00  0.00    -0.126 OA
ENDBRANCH  41  43
ENDBRANCH  35  37
ENDBRANCH   3  33
TORSDOF 8
