REMARK  Name = CHEMBL559639
REMARK  4 active torsions:
REMARK  status: ('A' for Active; 'I' for Inactive)
REMARK    1  A    between atoms: C_1  and  N_2
REMARK    2  A    between atoms: C_5  and  C_7
REMARK    3  A    between atoms: N_9  and  C_10
REMARK    4  A    between atoms: N_21  and  C_22
REMARK                            x       y       z     vdW  Elec       q    Type
REMARK                         _______ _______ _______ _____ _____    ______ ____
ROOT
ATOM      1  C   UNL     1      -0.781   1.513  -0.133  0.00  0.00    +0.173 C 
ATOM      2  N   UNL     1      -0.578   0.064  -0.067  0.00  0.00    -0.264 N 
ATOM      3  C   UNL     1      -0.276  -0.725  -1.116  0.00  0.00    +0.091 A 
ATOM      4  C   UNL     1      -0.146  -2.009  -0.631  0.00  0.00    +0.012 A 
ATOM      5  C   UNL     1      -0.410  -1.923   0.737  0.00  0.00    +0.151 A 
ATOM      6  N   UNL     1      -0.655  -0.649   1.006  0.00  0.00    -0.166 NA
ATOM      7  C   UNL     1       0.226  -3.169  -1.507  0.00  0.00    +0.044 C 
ATOM      8  C   UNL     1      -0.315  -2.945  -2.919  0.00  0.00    +0.043 C 
ATOM      9  C   UNL     1      -0.060  -1.552  -3.419  0.00  0.00    -0.001 A 
ATOM     10  C   UNL     1      -0.063  -0.453  -2.548  0.00  0.00    +0.097 A 
ATOM     11  N   UNL     1       0.127   0.768  -3.025  0.00  0.00    -0.212 NA
ATOM     12  C   UNL     1       0.343   0.949  -4.322  0.00  0.00    +0.220 A 
ATOM     13  N   UNL     1       0.376  -0.070  -5.168  0.00  0.00    -0.222 NA
ATOM     14  C   UNL     1       0.180  -1.315  -4.759  0.00  0.00    +0.120 A 
ATOM     15  N   UNL     1       0.537   2.234  -4.802  0.00  0.00    -0.284 N 
ATOM     16  H   UNL     1       0.596   2.979  -4.184  0.00  0.00    +0.155 HD
ENDROOT
BRANCH  15  17
ATOM     17  C   UNL     1       0.650   2.456  -6.178  0.00  0.00    +0.034 A 
ATOM     18  C   UNL     1      -0.153   1.750  -7.065  0.00  0.00    +0.023 A 
ATOM     19  C   UNL     1      -0.039   1.973  -8.423  0.00  0.00    +0.002 A 
ATOM     20  C   UNL     1       0.872   2.897  -8.900  0.00  0.00    +0.000 A 
ATOM     21  C   UNL     1       1.673   3.600  -8.020  0.00  0.00    +0.002 A 
ATOM     22  C   UNL     1       1.560   3.387  -6.660  0.00  0.00    +0.023 A 
ENDBRANCH  15  17
BRANCH   5  23
ATOM     23  C   UNL     1      -0.410  -3.041   1.702  0.00  0.00    +0.265 C 
ATOM     24  O   UNL     1      -0.163  -4.170   1.325  0.00  0.00    -0.268 OA
ATOM     25  N   UNL     1      -0.684  -2.809   3.002  0.00  0.00    -0.307 N 
ATOM     26  H   UNL     1      -0.880  -1.908   3.302  0.00  0.00    +0.149 HD
BRANCH  25  27
ATOM     27  C   UNL     1      -0.684  -3.917   3.959  0.00  0.00    +0.073 C 
ATOM     28  C   UNL     1      -1.824  -3.971   4.978  0.00  0.00    +0.024 C 
ATOM     29  C   UNL     1      -0.415  -3.582   5.428  0.00  0.00    +0.024 C 
ENDBRANCH  25  27
ENDBRANCH   5  23
TORSDOF 3
