REMARK  Name = CHEMBL422455
REMARK  7 active torsions:
REMARK  status: ('A' for Active; 'I' for Inactive)
REMARK    1  A    between atoms: C_1  and  N_2
REMARK    2  A    between atoms: N_2  and  S_3
REMARK    3  A    between atoms: S_3  and  C_6
REMARK    4  A    between atoms: C_6  and  C_7
REMARK    5  A    between atoms: C_10  and  N_13
REMARK    6  A    between atoms: N_14  and  C_15
REMARK    7  A    between atoms: C_27  and  O_28
REMARK                            x       y       z     vdW  Elec       q    Type
REMARK                         _______ _______ _______ _____ _____    ______ ____
ROOT
ATOM      1  N   UNL     1       5.075  -3.343  -6.107  0.00  0.00    -0.149 NA
ATOM      2  N   UNL     1       5.452  -2.430  -6.938  0.00  0.00    -0.143 NA
ENDROOT
BRANCH   2   3
ATOM      3  C   UNL     1       4.900  -1.200  -6.885  0.00  0.00    +0.155 A 
ATOM      4  C   UNL     1       5.613   0.083  -6.742  0.00  0.00    +0.046 A 
ATOM      5  C   UNL     1       4.622   1.077  -6.736  0.00  0.00    +0.053 A 
ATOM      6  C   UNL     1       5.004   2.413  -6.611  0.00  0.00    +0.028 A 
ATOM      7  C   UNL     1       6.309   2.771  -6.496  0.00  0.00    +0.031 A 
ATOM      8  C   UNL     1       7.338   1.800  -6.497  0.00  0.00    +0.079 A 
ATOM      9  C   UNL     1       6.943   0.452  -6.623  0.00  0.00    +0.050 A 
ATOM     10  S   UNL     1       8.500  -0.396  -6.579  0.00  0.00    -0.075 S 
ATOM     11  C   UNL     1       9.496   0.950  -6.411  0.00  0.00    +0.157 A 
ATOM     12  N   UNL     1       8.674   1.959  -6.395  0.00  0.00    -0.247 NA
ATOM     13  N   UNL     1       3.394   0.455  -6.866  0.00  0.00    -0.324 N 
ATOM     14  H   UNL     1       2.540   0.915  -6.891  0.00  0.00    +0.169 HD
ATOM     15  C   UNL     1       3.550  -0.892  -6.960  0.00  0.00    +0.219 A 
BRANCH  15  16
ATOM     16  O   UNL     1       2.548  -1.790  -7.102  0.00  0.00    -0.492 OA
ATOM     17  H   UNL     1       2.124  -2.040  -6.270  0.00  0.00    +0.294 HD
ENDBRANCH  15  16
ENDBRANCH   2   3
BRANCH   1  21
ATOM     18  C   UNL     1       2.050  -2.553  -3.397  0.00  0.00    -0.025 A 
ATOM     19  C   UNL     1       1.899  -3.573  -4.321  0.00  0.00    +0.007 A 
ATOM     20  C   UNL     1       2.903  -3.842  -5.227  0.00  0.00    +0.030 A 
ATOM     21  C   UNL     1       4.075  -3.082  -5.212  0.00  0.00    +0.086 A 
ATOM     22  C   UNL     1       4.221  -2.054  -4.277  0.00  0.00    +0.030 A 
ATOM     23  C   UNL     1       3.206  -1.793  -3.380  0.00  0.00    +0.007 A 
BRANCH  18  24
ATOM     24  C   UNL     1       0.948  -2.266  -2.410  0.00  0.00    +0.220 C 
BRANCH  24  25
ATOM     25  S   UNL     1      -0.199  -1.053  -3.121  0.00  0.00    +0.033 S 
ATOM     26  O   UNL     1      -0.900  -1.626  -4.216  0.00  0.00    -0.158 OA
ATOM     27  O   UNL     1       0.442   0.208  -3.251  0.00  0.00    -0.158 OA
BRANCH  25  29
ATOM     28  C   UNL     1      -0.984  -0.218  -0.671  0.00  0.00    +0.127 C 
ATOM     29  N   UNL     1      -1.351  -0.823  -1.954  0.00  0.00    -0.197 NA
ATOM     30  H   UNL     1      -2.269  -1.089  -2.120  0.00  0.00    +0.147 HD
ENDBRANCH  25  29
ENDBRANCH  24  25
ENDBRANCH  18  24
ENDBRANCH   1  21
TORSDOF 6
