REMARK  Name = CHEMBL318522
REMARK  2 active torsions:
REMARK  status: ('A' for Active; 'I' for Inactive)
REMARK    1  A    between atoms: C_3  and  C_6
REMARK    2  A    between atoms: C_17  and  C_19
REMARK                            x       y       z     vdW  Elec       q    Type
REMARK                         _______ _______ _______ _____ _____    ______ ____
ROOT
ATOM      1  C   UNL     1       3.739   1.825  -0.024  0.00  0.00    -0.009 A 
ATOM      2  C   UNL     1       3.988   3.205  -0.014  0.00  0.00    +0.010 A 
ATOM      3  C   UNL     1       5.266   3.676  -0.024  0.00  0.00    +0.014 A 
ATOM      4  C   UNL     1       6.342   2.781  -0.045  0.00  0.00    +0.042 A 
ATOM      5  C   UNL     1       6.103   1.392  -0.055  0.00  0.00    +0.068 A 
ATOM      6  C   UNL     1       4.795   0.921  -0.039  0.00  0.00    +0.036 A 
ATOM      7  N   UNL     1       7.329   0.779  -0.075  0.00  0.00    -0.275 N 
ATOM      8  H   UNL     1       7.478  -0.180  -0.086  0.00  0.00    +0.189 HD
ATOM      9  N   UNL     1       8.331   1.755  -0.077  0.00  0.00    -0.157 NA
ATOM     10  C   UNL     1       7.795   2.946  -0.059  0.00  0.00    +0.154 A 
ATOM     11  N   UNL     1       8.488   4.163  -0.056  0.00  0.00    -0.268 N 
ATOM     12  C   UNL     1       9.835   4.171  -0.071  0.00  0.00    +0.221 C 
ATOM     13  O   UNL     1      10.448   3.125  -0.088  0.00  0.00    -0.275 OA
ATOM     14  H   UNL     1       7.997   5.000  -0.042  0.00  0.00    +0.156 HD
ENDROOT
BRANCH   1  17
ATOM     15  C   UNL     1      -0.016   1.354   0.009  0.00  0.00    +0.008 A 
ATOM     16  C   UNL     1       1.177   2.041   0.002  0.00  0.00    +0.016 A 
ATOM     17  C   UNL     1       2.347   1.329  -0.013  0.00  0.00    +0.019 A 
ATOM     18  S   UNL     1       1.752  -0.354  -0.017  0.00  0.00    -0.097 S 
ATOM     19  C   UNL     1       0.002  -0.004   0.002  0.00  0.00    +0.046 A 
ENDBRANCH   1  17
BRANCH  12  20
ATOM     20  C   UNL     1      10.581   5.481  -0.067  0.00  0.00    +0.075 C 
ATOM     21  C   UNL     1      11.346   5.862  -1.336  0.00  0.00    +0.013 C 
ATOM     22  C   UNL     1      12.110   5.424  -0.085  0.00  0.00    +0.013 C 
ENDBRANCH  12  20
TORSDOF 2
