REMARK  Name = CHEMBL232556
REMARK  6 active torsions:
REMARK  status: ('A' for Active; 'I' for Inactive)
REMARK    1  A    between atoms: C_1  and  C_2
REMARK    2  A    between atoms: C_8  and  C_21
REMARK    3  A    between atoms: C_11  and  N_13
REMARK    4  A    between atoms: N_17  and  C_20
REMARK    5  A    between atoms: C_24  and  O_28
REMARK    6  A    between atoms: C_25  and  O_27
REMARK                            x       y       z     vdW  Elec       q    Type
REMARK                         _______ _______ _______ _____ _____    ______ ____
ROOT
ATOM      1  C   UNL     1       0.302   1.505  -0.026  0.00  0.00    +0.044 C 
ATOM      2  C   UNL     1       0.303  -0.002  -0.032  0.00  0.00    -0.048 A 
ATOM      3  C   UNL     1       0.042  -0.682  -1.201  0.00  0.00    +0.019 A 
ATOM      4  C   UNL     1       0.044  -2.078  -1.204  0.00  0.00    +0.070 A 
ATOM      5  C   UNL     1      -0.231  -2.839  -2.438  0.00  0.00    +0.240 A 
ATOM      6  O   UNL     1      -0.468  -2.273  -3.493  0.00  0.00    -0.283 OA
ATOM      7  C   UNL     1      -0.208  -4.253  -2.350  0.00  0.00    +0.268 A 
ATOM      8  C   UNL     1       0.063  -4.848  -1.142  0.00  0.00    +0.186 A 
ATOM      9  O   UNL     1       0.311  -4.135  -0.031  0.00  0.00    -0.449 OA
ATOM     10  C   UNL     1       0.310  -2.786  -0.023  0.00  0.00    +0.161 A 
ATOM     11  C   UNL     1       0.572  -2.080   1.152  0.00  0.00    +0.089 A 
ATOM     12  C   UNL     1       0.573  -0.696   1.138  0.00  0.00    +0.031 A 
ATOM     13  O   UNL     1      -0.454  -5.014  -3.451  0.00  0.00    -0.280 OA
ENDROOT
BRANCH  11  14
ATOM     14  N   UNL     1       0.840  -2.771   2.343  0.00  0.00    -0.189 N 
ATOM     15  C   UNL     1       2.073  -3.137   2.745  0.00  0.00    +0.245 C 
ATOM     16  O   UNL     1       3.121  -2.938   2.167  0.00  0.00    -0.273 OA
ATOM     17  C   UNL     1       1.879  -3.847   4.070  0.00  0.00    +0.205 C 
ATOM     18  N   UNL     1       0.422  -3.794   4.280  0.00  0.00    -0.279 N 
ATOM     19  C   UNL     1      -0.096  -3.143   3.223  0.00  0.00    +0.316 C 
ATOM     20  O   UNL     1      -1.283  -2.921   3.082  0.00  0.00    -0.252 OA
ATOM     21  C   UNL     1      -0.318  -4.340   5.421  0.00  0.00    +0.134 C 
ENDBRANCH  11  14
BRANCH   8  22
ATOM     22  C   UNL     1       0.084  -6.320  -1.062  0.00  0.00    +0.025 A 
ATOM     23  C   UNL     1       0.788  -7.064  -2.013  0.00  0.00    +0.015 A 
ATOM     24  C   UNL     1       0.806  -8.440  -1.937  0.00  0.00    +0.050 A 
ATOM     25  C   UNL     1       0.126  -9.091  -0.916  0.00  0.00    +0.158 A 
ATOM     26  C   UNL     1      -0.579  -8.356   0.035  0.00  0.00    +0.159 A 
ATOM     27  C   UNL     1      -0.597  -6.976  -0.031  0.00  0.00    +0.060 A 
BRANCH  26  28
ATOM     28  O   UNL     1      -1.245  -8.997   1.033  0.00  0.00    -0.503 OA
ATOM     29  H   UNL     1      -0.715  -9.145   1.828  0.00  0.00    +0.292 HD
ENDBRANCH  26  28
BRANCH  25  30
ATOM     30  O   UNL     1       0.147 -10.447  -0.846  0.00  0.00    -0.503 OA
ATOM     31  H   UNL     1       0.876 -10.803  -0.319  0.00  0.00    +0.292 HD
ENDBRANCH  25  30
ENDBRANCH   8  22
TORSDOF 4
