REMARK  Name = CHEMBL343996
REMARK  11 active torsions:
REMARK  status: ('A' for Active; 'I' for Inactive)
REMARK    1  A    between atoms: C_3  and  S_23
REMARK    2  A    between atoms: C_6  and  N_7
REMARK    3  A    between atoms: C_8  and  C_9
REMARK    4  A    between atoms: C_21  and  O_22
REMARK    5  A    between atoms: S_23  and  N_26
REMARK    6  A    between atoms: N_26  and  C_27
REMARK    7  A    between atoms: C_27  and  C_28
REMARK    8  A    between atoms: C_28  and  O_29
REMARK    9  A    between atoms: O_29  and  C_30
REMARK   10  A    between atoms: C_30  and  C_31
REMARK   11  A    between atoms: C_31  and  O_32
REMARK                            x       y       z     vdW  Elec       q    Type
REMARK                         _______ _______ _______ _____ _____    ______ ____
ROOT
ATOM      1  C   UNL     1      -0.017   1.393   0.010  0.00  0.00    +0.029 A 
ATOM      2  C   UNL     1       1.170   2.095   0.002  0.00  0.00    +0.030 A 
ATOM      3  C   UNL     1       2.378   1.420  -0.013  0.00  0.00    +0.105 A 
ATOM      4  C   UNL     1       2.404   0.036  -0.021  0.00  0.00    +0.030 A 
ATOM      5  C   UNL     1       1.225  -0.679  -0.013  0.00  0.00    +0.029 A 
ATOM      6  C   UNL     1       0.002  -0.004   0.002  0.00  0.00    +0.064 A 
ENDROOT
BRANCH   3   7
ATOM      7  S   UNL     1       3.889   2.325  -0.024  0.00  0.00    +0.058 S 
ATOM      8  O   UNL     1       4.872   1.469  -0.589  0.00  0.00    -0.153 OA
ATOM      9  O   UNL     1       3.592   3.605  -0.566  0.00  0.00    -0.153 OA
BRANCH   7  10
ATOM     10  N   UNL     1       4.325   2.569   1.555  0.00  0.00    -0.188 NA
ATOM     11  H   UNL     1       4.351   3.468   1.917  0.00  0.00    +0.148 HD
BRANCH  10  12
ATOM     12  C   UNL     1       4.671   1.427   2.404  0.00  0.00    +0.134 C 
BRANCH  12  13
ATOM     13  C   UNL     1       5.382   1.924   3.664  0.00  0.00    +0.176 C 
BRANCH  13  14
ATOM     14  O   UNL     1       4.479   2.713   4.441  0.00  0.00    -0.376 OA
BRANCH  14  15
ATOM     15  C   UNL     1       5.047   3.229   5.646  0.00  0.00    +0.187 C 
BRANCH  15  16
ATOM     16  C   UNL     1       3.996   4.053   6.393  0.00  0.00    +0.184 C 
BRANCH  16  17
ATOM     17  O   UNL     1       2.931   3.198   6.813  0.00  0.00    -0.393 OA
ATOM     18  H   UNL     1       2.227   3.653   7.295  0.00  0.00    +0.209 HD
ENDBRANCH  16  17
ENDBRANCH  15  16
ENDBRANCH  14  15
ENDBRANCH  13  14
ENDBRANCH  12  13
ENDBRANCH  10  12
ENDBRANCH   7  10
ENDBRANCH   3   7
BRANCH   6  19
ATOM     19  N   UNL     1      -1.171  -0.707   0.010  0.00  0.00    -0.255 NA
ATOM     20  C   UNL     1      -1.329  -1.727  -0.796  0.00  0.00    +0.125 C 
BRANCH  20  21
ATOM     21  C   UNL     1      -2.544  -2.456  -0.788  0.00  0.00    +0.063 A 
ATOM     22  C   UNL     1      -2.879  -3.626  -1.622  0.00  0.00    +0.028 A 
ATOM     23  C   UNL     1      -4.183  -3.998  -1.260  0.00  0.00    +0.051 A 
ATOM     24  C   UNL     1      -4.776  -5.091  -1.893  0.00  0.00    +0.028 A 
ATOM     25  C   UNL     1      -4.121  -5.800  -2.848  0.00  0.00    +0.031 A 
ATOM     26  C   UNL     1      -2.805  -5.457  -3.241  0.00  0.00    +0.079 A 
ATOM     27  C   UNL     1      -2.215  -4.352  -2.597  0.00  0.00    +0.049 A 
ATOM     28  S   UNL     1      -0.621  -4.280  -3.372  0.00  0.00    -0.075 S 
ATOM     29  C   UNL     1      -0.804  -5.593  -4.409  0.00  0.00    +0.157 A 
ATOM     30  N   UNL     1      -2.002  -6.035  -4.160  0.00  0.00    -0.247 NA
ATOM     31  N   UNL     1      -4.618  -3.125  -0.279  0.00  0.00    -0.325 N 
ATOM     32  H   UNL     1      -5.489  -3.161   0.146  0.00  0.00    +0.169 HD
ATOM     33  C   UNL     1      -3.652  -2.214   0.010  0.00  0.00    +0.200 A 
BRANCH  33  34
ATOM     34  O   UNL     1      -3.756  -1.226   0.927  0.00  0.00    -0.493 OA
ATOM     35  H   UNL     1      -4.113  -0.399   0.576  0.00  0.00    +0.294 HD
ENDBRANCH  33  34
ENDBRANCH  20  21
ENDBRANCH   6  19
TORSDOF 11
