REMARK  Name = CHEMBL178190
REMARK  1 active torsions:
REMARK  status: ('A' for Active; 'I' for Inactive)
REMARK    1  A    between atoms: C_18  and  C_20
REMARK                            x       y       z     vdW  Elec       q    Type
REMARK                         _______ _______ _______ _____ _____    ______ ____
ROOT
ATOM      1  C   UNL     1      -0.017   1.380   0.010  0.00  0.00    +0.005 A 
ATOM      2  C   UNL     1       1.194   2.058   0.002  0.00  0.00    +0.020 A 
ATOM      3  C   UNL     1       2.373   1.338  -0.013  0.00  0.00    +0.113 A 
ATOM      4  N   UNL     1       2.359   0.019  -0.020  0.00  0.00    -0.236 NA
ATOM      5  C   UNL     1       1.225  -0.663  -0.013  0.00  0.00    +0.155 A 
ATOM      6  C   UNL     1       0.002  -0.004   0.002  0.00  0.00    +0.048 A 
ATOM      7  N   UNL     1       1.259  -2.060  -0.021  0.00  0.00    -0.213 N 
ATOM      8  C   UNL     1       2.286  -2.824  -0.502  0.00  0.00    +0.088 A 
ATOM      9  C   UNL     1       1.930  -4.162  -0.327  0.00  0.00    +0.033 A 
ATOM     10  C   UNL     1       2.788  -5.208  -0.726  0.00  0.00    +0.014 A 
ATOM     11  C   UNL     1       3.990  -4.981  -1.294  0.00  0.00    +0.031 A 
ATOM     12  C   UNL     1       4.449  -3.614  -1.519  0.00  0.00    +0.095 A 
ATOM     13  C   UNL     1       3.574  -2.504  -1.113  0.00  0.00    +0.046 A 
ATOM     14  C   UNL     1       4.240  -1.342  -1.434  0.00  0.00    +0.115 A 
ATOM     15  N   UNL     1       5.415  -1.680  -1.988  0.00  0.00    -0.284 N 
ATOM     16  N   UNL     1       5.536  -3.073  -2.034  0.00  0.00    -0.174 NA
ATOM     17  H   UNL     1       6.082  -1.052  -2.307  0.00  0.00    +0.188 HD
ATOM     18  C   UNL     1       0.602  -4.153   0.301  0.00  0.00    +0.155 A 
ATOM     19  N   UNL     1       0.250  -2.896   0.466  0.00  0.00    -0.159 NA
ENDROOT
BRANCH  18  20
ATOM     20  C   UNL     1      -0.191  -5.337   0.681  0.00  0.00    +0.262 C 
ATOM     21  O   UNL     1       0.248  -6.453   0.479  0.00  0.00    -0.269 OA
ATOM     22  N   UNL     1      -1.402  -5.183   1.252  0.00  0.00    -0.324 N 
ATOM     23  H   UNL     1      -1.752  -4.293   1.413  0.00  0.00    +0.145 HD
ATOM     24  H   UNL     1      -1.923  -5.962   1.502  0.00  0.00    +0.145 HD
ENDBRANCH  18  20
TORSDOF 1
