REMARK  Name = CHEMBL180903
REMARK  7 active torsions:
REMARK  status: ('A' for Active; 'I' for Inactive)
REMARK    1  A    between atoms: C_4  and  C_7
REMARK    2  A    between atoms: N_9  and  S_10
REMARK    3  A    between atoms: S_10  and  C_13
REMARK    4  A    between atoms: C_16  and  N_19
REMARK    5  A    between atoms: N_19  and  C_20
REMARK    6  A    between atoms: C_24  and  C_29
REMARK    7  A    between atoms: C_29  and  C_31
REMARK                            x       y       z     vdW  Elec       q    Type
REMARK                         _______ _______ _______ _____ _____    ______ ____
ROOT
ATOM      1  N   UNL     1       3.820  -8.539  -0.091  0.00  0.00    -0.298 N 
ATOM      2  H   UNL     1       3.860  -9.039   0.739  0.00  0.00    +0.154 HD
ENDROOT
BRANCH   1   3
ATOM      3  C   UNL     1       3.576  -9.204  -1.299  0.00  0.00    +0.142 A 
ATOM      4  C   UNL     1       3.253 -10.515  -1.431  0.00  0.00    +0.136 A 
ATOM      5  N   UNL     1       3.101 -10.758  -2.773  0.00  0.00    -0.304 N 
ATOM      6  C   UNL     1       2.784 -11.881  -3.468  0.00  0.00    +0.104 A 
ATOM      7  C   UNL     1       2.695 -11.848  -4.842  0.00  0.00    +0.039 A 
ATOM      8  C   UNL     1       2.937 -10.634  -5.534  0.00  0.00    +0.017 A 
ATOM      9  C   UNL     1       3.253  -9.517  -4.834  0.00  0.00    +0.047 A 
ATOM     10  C   UNL     1       3.338  -9.575  -3.426  0.00  0.00    +0.140 A 
ATOM     11  N   UNL     1       3.616  -8.651  -2.518  0.00  0.00    -0.213 NA
BRANCH   7  12
ATOM     12  C   UNL     1       2.351 -13.071  -5.591  0.00  0.00    +0.197 C 
ATOM     13  O   UNL     1       2.034 -14.081  -4.993  0.00  0.00    -0.287 OA
BRANCH  12  14
ATOM     14  C   UNL     1       2.390 -13.068  -7.067  0.00  0.00    +0.059 A 
ATOM     15  C   UNL     1       3.582 -13.360  -7.738  0.00  0.00    +0.053 A 
ATOM     16  C   UNL     1       3.610 -13.355  -9.119  0.00  0.00    +0.021 A 
ATOM     17  C   UNL     1       2.464 -13.063  -9.837  0.00  0.00    +0.003 A 
ATOM     18  C   UNL     1       1.282 -12.774  -9.180  0.00  0.00    +0.021 A 
ATOM     19  C   UNL     1       1.235 -12.780  -7.800  0.00  0.00    +0.053 A 
ATOM     20 CL   UNL     1      -0.252 -12.424  -6.978  0.00  0.00    -0.083 Cl
ATOM     21 CL   UNL     1       5.021 -13.725  -6.839  0.00  0.00    -0.083 Cl
ENDBRANCH  12  14
ENDBRANCH   7  12
ENDBRANCH   1   3
BRANCH   1  25
ATOM     22  C   UNL     1       4.373  -4.412  -0.061  0.00  0.00    +0.113 A 
ATOM     23  C   UNL     1       4.809  -5.158  -1.140  0.00  0.00    +0.031 A 
ATOM     24  C   UNL     1       4.627  -6.527  -1.153  0.00  0.00    +0.025 A 
ATOM     25  C   UNL     1       4.005  -7.154  -0.081  0.00  0.00    +0.033 A 
ATOM     26  C   UNL     1       3.569  -6.401   1.002  0.00  0.00    +0.025 A 
ATOM     27  C   UNL     1       3.758  -5.033   1.011  0.00  0.00    +0.031 A 
BRANCH  22  28
ATOM     28  S   UNL     1       4.607  -2.665  -0.048  0.00  0.00    +0.102 S 
ATOM     29  O   UNL     1       3.628  -2.130   0.832  0.00  0.00    -0.146 OA
ATOM     30  O   UNL     1       4.714  -2.260  -1.406  0.00  0.00    -0.146 OA
BRANCH  28  33
ATOM     31  C   UNL     1       6.505  -1.153   0.785  0.00  0.00    +0.295 C 
ATOM     32  O   UNL     1       5.744  -0.120   0.356  0.00  0.00    -0.264 OA
ATOM     33  N   UNL     1       6.080  -2.374   0.650  0.00  0.00    -0.086 NA
BRANCH  31  37
ATOM     34  C   UNL     1      10.284  -0.406   2.578  0.00  0.00    +0.000 A 
ATOM     35  C   UNL     1       9.508   0.653   2.139  0.00  0.00    +0.001 A 
ATOM     36  C   UNL     1       8.280   0.416   1.556  0.00  0.00    +0.013 A 
ATOM     37  C   UNL     1       7.822  -0.893   1.409  0.00  0.00    +0.043 A 
ATOM     38  C   UNL     1       8.608  -1.955   1.853  0.00  0.00    +0.013 A 
ATOM     39  C   UNL     1       9.835  -1.706   2.435  0.00  0.00    +0.001 A 
ENDBRANCH  31  37
ENDBRANCH  28  33
ENDBRANCH  22  28
ENDBRANCH   1  25
TORSDOF 7
