REMARK  Name = CHEMBL187903
REMARK  5 active torsions:
REMARK  status: ('A' for Active; 'I' for Inactive)
REMARK    1  A    between atoms: C_1  and  C_2
REMARK    2  A    between atoms: C_7  and  C_8
REMARK    3  A    between atoms: N_9  and  C_12
REMARK    4  A    between atoms: C_12  and  C_13
REMARK    5  A    between atoms: C_19  and  C_21
REMARK                            x       y       z     vdW  Elec       q    Type
REMARK                         _______ _______ _______ _____ _____    ______ ____
ROOT
ATOM      1  C   UNL     1      -1.330  -5.568   1.040  0.00  0.00    +0.238 C 
ATOM      2  O   UNL     1      -2.260  -4.923   0.603  0.00  0.00    -0.273 OA
ATOM      3  N   UNL     1      -1.557  -6.577   1.903  0.00  0.00    -0.263 N 
ATOM      4  C   UNL     1      -2.857  -6.879   2.294  0.00  0.00    +0.165 A 
ATOM      5  N   UNL     1      -3.977  -6.298   1.924  0.00  0.00    -0.233 NA
ATOM      6  C   UNL     1      -5.143  -6.706   2.389  0.00  0.00    +0.124 A 
ATOM      7  C   UNL     1      -5.130  -7.745   3.260  0.00  0.00    +0.014 A 
ATOM      8  S   UNL     1      -3.379  -8.082   3.349  0.00  0.00    -0.057 S 
ATOM      9  H   UNL     1      -0.814  -7.093   2.252  0.00  0.00    +0.157 HD
ENDROOT
BRANCH   7  10
ATOM     10  C   UNL     1      -6.277  -8.430   3.957  0.00  0.00    +0.027 C 
ATOM     11  C   UNL     1      -5.957  -8.851   5.402  0.00  0.00    +0.009 C 
ATOM     12  C   UNL     1      -6.734 -10.146   5.112  0.00  0.00    +0.001 C 
ATOM     13  C   UNL     1      -6.391  -9.928   3.629  0.00  0.00    +0.009 C 
ENDBRANCH   7  10
BRANCH   1  14
ATOM     14  C   UNL     1       0.078  -5.240   0.616  0.00  0.00    +0.219 C 
BRANCH  14  23
ATOM     15  C   UNL     1      -0.018   1.503   0.010  0.00  0.00    +0.044 C 
ATOM     16  C   UNL     1       0.002  -0.004   0.002  0.00  0.00    -0.045 A 
ATOM     17  C   UNL     1       0.006  -0.674  -1.189  0.00  0.00    +0.033 A 
ATOM     18  C   UNL     1       0.025  -2.071  -1.202  0.00  0.00    +0.089 A 
ATOM     19  C   UNL     1       0.041  -2.773   0.015  0.00  0.00    +0.069 A 
ATOM     20  C   UNL     1       0.037  -2.076   1.215  0.00  0.00    +0.031 A 
ATOM     21  C   UNL     1       0.023  -0.697   1.204  0.00  0.00    -0.045 A 
ATOM     22  C   UNL     1       0.024   0.062   2.506  0.00  0.00    +0.044 C 
ATOM     23  N   UNL     1       0.058  -4.113  -0.319  0.00  0.00    -0.321 N 
ATOM     24  C   UNL     1       0.052  -4.192  -1.677  0.00  0.00    +0.200 A 
ATOM     25  N   UNL     1       0.033  -2.998  -2.194  0.00  0.00    -0.236 NA
ENDBRANCH  14  23
ENDBRANCH   1  14
TORSDOF 3
