REMARK  Name = CHEMBL147122
REMARK  4 active torsions:
REMARK  status: ('A' for Active; 'I' for Inactive)
REMARK    1  A    between atoms: C_1  and  C_2
REMARK    2  A    between atoms: N_4  and  C_5
REMARK    3  A    between atoms: C_18  and  C_19
REMARK    4  A    between atoms: C_22  and  N_25
REMARK                            x       y       z     vdW  Elec       q    Type
REMARK                         _______ _______ _______ _____ _____    ______ ____
ROOT
ATOM      1  C   UNL     1       0.097  -2.060  -1.127  0.00  0.00    +0.045 A 
ATOM      2  C   UNL     1       0.103  -2.722   0.097  0.00  0.00    +0.024 A 
ATOM      3  C   UNL     1       0.217  -4.096   0.142  0.00  0.00    +0.002 A 
ATOM      4  C   UNL     1       0.326  -4.832  -1.026  0.00  0.00    +0.011 A 
ATOM      5  C   UNL     1       0.321  -4.193  -2.259  0.00  0.00    +0.015 A 
ATOM      6  C   UNL     1       0.200  -2.793  -2.316  0.00  0.00    +0.053 A 
ATOM      7  C   UNL     1       0.214  -2.370  -3.731  0.00  0.00    +0.200 C 
ATOM      8  O   UNL     1       0.133  -1.226  -4.138  0.00  0.00    -0.286 OA
ATOM      9  C   UNL     1       0.345  -3.577  -4.557  0.00  0.00    +0.075 A 
ATOM     10  C   UNL     1       0.422  -4.720  -3.643  0.00  0.00    +0.105 A 
ATOM     11  N   UNL     1       0.543  -5.799  -4.376  0.00  0.00    -0.173 NA
ATOM     12  H   UNL     1       0.650  -6.065  -6.469  0.00  0.00    +0.189 HD
ATOM     13  N   UNL     1       0.567  -5.444  -5.728  0.00  0.00    -0.276 N 
ATOM     14  C   UNL     1       0.434  -4.093  -5.843  0.00  0.00    +0.077 A 
ENDROOT
BRANCH  14  15
ATOM     15  C   UNL     1       0.412  -3.319  -7.099  0.00  0.00    +0.001 A 
ATOM     16  C   UNL     1      -0.523  -2.295  -7.275  0.00  0.00    +0.012 A 
ATOM     17  C   UNL     1      -0.540  -1.575  -8.448  0.00  0.00    +0.024 A 
ATOM     18  C   UNL     1       0.372  -1.866  -9.458  0.00  0.00    +0.030 A 
ATOM     19  C   UNL     1       1.305  -2.884  -9.286  0.00  0.00    +0.024 A 
ATOM     20  C   UNL     1       1.331  -3.605  -8.113  0.00  0.00    +0.012 A 
BRANCH  18  21
ATOM     21  N   UNL     1       0.352  -1.136 -10.644  0.00  0.00    -0.326 N 
ATOM     22  C   UNL     1       1.224  -1.499 -11.772  0.00  0.00    +0.133 C 
ATOM     23  C   UNL     1       0.364  -1.592 -13.038  0.00  0.00    +0.178 C 
ATOM     24  O   UNL     1      -0.393  -0.388 -13.182  0.00  0.00    -0.377 OA
ATOM     25  C   UNL     1      -1.317  -0.146 -12.118  0.00  0.00    +0.178 C 
ATOM     26  C   UNL     1      -0.546   0.018 -10.808  0.00  0.00    +0.133 C 
ENDBRANCH  18  21
ENDBRANCH  14  15
BRANCH   1  30
ATOM     27  C   UNL     1      -0.622   1.492  -0.138  0.00  0.00    +0.109 C 
ATOM     28  C   UNL     1      -0.608  -0.014  -0.152  0.00  0.00    +0.214 C 
ATOM     29  O   UNL     1      -1.127  -0.634   0.752  0.00  0.00    -0.276 OA
ATOM     30  N   UNL     1      -0.019  -0.673  -1.169  0.00  0.00    -0.285 N 
ATOM     31  H   UNL     1       0.325  -0.181  -1.931  0.00  0.00    +0.155 HD
ENDBRANCH   1  30
TORSDOF 3
