REMARK  Name = CHEMBL186120
REMARK  5 active torsions:
REMARK  status: ('A' for Active; 'I' for Inactive)
REMARK    1  A    between atoms: C_1  and  C_2
REMARK    2  A    between atoms: C_2  and  C_3
REMARK    3  A    between atoms: C_2  and  C_4
REMARK    4  A    between atoms: C_10  and  O_12
REMARK    5  A    between atoms: O_12  and  C_13
REMARK                            x       y       z     vdW  Elec       q    Type
REMARK                         _______ _______ _______ _____ _____    ______ ____
ROOT
ATOM      1  C   UNL     1      -1.461  -0.395  -0.046  0.00  0.00    +0.014 A 
ATOM      2  C   UNL     1      -2.098  -1.177  -0.952  0.00  0.00    +0.124 A 
ATOM      3  N   UNL     1      -3.343  -1.520  -0.678  0.00  0.00    -0.233 NA
ATOM      4  C   UNL     1      -3.932  -1.116   0.426  0.00  0.00    +0.167 A 
ATOM      5  S   UNL     1      -2.739  -0.204   1.185  0.00  0.00    -0.057 S 
ATOM      6  N   UNL     1      -5.225  -1.382   0.863  0.00  0.00    -0.230 N 
ATOM      7  C   UNL     1      -6.045  -2.147   0.116  0.00  0.00    +0.411 C 
ATOM      8  O   UNL     1      -5.654  -2.603  -0.941  0.00  0.00    -0.226 OA
ATOM      9  H   UNL     1      -5.536  -1.018   1.707  0.00  0.00    +0.160 HD
ENDROOT
BRANCH   1  11
ATOM     10  C   UNL     1      -0.109   1.683  -0.028  0.00  0.00    +0.013 C 
ATOM     11  C   UNL     1      -0.058   0.155  -0.070  0.00  0.00    +0.021 C 
ATOM     12  C   UNL     1       0.714  -0.363   1.145  0.00  0.00    +0.013 C 
ENDBRANCH   1  11
BRANCH   7  13
ATOM     13  O   UNL     1      -7.297  -2.405   0.539  0.00  0.00    -0.411 OA
BRANCH  13  14
ATOM     14  C   UNL     1      -8.122  -3.094  -0.292  0.00  0.00    +0.133 A 
ATOM     15  C   UNL     1      -9.105  -2.425  -1.007  0.00  0.00    +0.046 A 
ATOM     16  C   UNL     1      -9.943  -3.128  -1.852  0.00  0.00    +0.004 A 
ATOM     17  C   UNL     1      -9.802  -4.497  -1.985  0.00  0.00    +0.000 A 
ATOM     18  C   UNL     1      -8.823  -5.166  -1.274  0.00  0.00    +0.004 A 
ATOM     19  C   UNL     1      -7.979  -4.467  -0.432  0.00  0.00    +0.046 A 
ENDBRANCH  13  14
ENDBRANCH   7  13
TORSDOF 3
