REMARK  Name = CHEMBL183950
REMARK  6 active torsions:
REMARK  status: ('A' for Active; 'I' for Inactive)
REMARK    1  A    between atoms: C_1  and  O_2
REMARK    2  A    between atoms: O_2  and  C_3
REMARK    3  A    between atoms: C_6  and  C_9
REMARK    4  A    between atoms: C_19  and  N_23
REMARK    5  A    between atoms: N_26  and  N_27
REMARK    6  A    between atoms: N_30  and  C_31
REMARK                            x       y       z     vdW  Elec       q    Type
REMARK                         _______ _______ _______ _____ _____    ______ ____
ROOT
ATOM      1  C   UNL     1      -4.652  -2.829  -0.296  0.00  0.00    +0.077 A 
ATOM      2  C   UNL     1      -5.057  -3.842   0.563  0.00  0.00    +0.075 A 
ATOM      3  C   UNL     1      -6.472  -4.092   0.277  0.00  0.00    +0.105 A 
ATOM      4  N   UNL     1      -6.828  -3.270  -0.680  0.00  0.00    -0.173 NA
ATOM      5  N   UNL     1      -5.734  -2.479  -1.047  0.00  0.00    -0.276 N 
ATOM      6  H   UNL     1      -5.744  -1.791  -1.730  0.00  0.00    +0.189 HD
ATOM      7  C   UNL     1      -6.927  -5.174   1.184  0.00  0.00    +0.015 A 
ATOM      8  C   UNL     1      -8.161  -5.794   1.335  0.00  0.00    +0.011 A 
ATOM      9  C   UNL     1      -8.328  -6.798   2.275  0.00  0.00    +0.002 A 
ATOM     10  C   UNL     1      -7.273  -7.195   3.071  0.00  0.00    +0.024 A 
ATOM     11  C   UNL     1      -6.028  -6.588   2.938  0.00  0.00    +0.046 A 
ATOM     12  C   UNL     1      -5.847  -5.572   1.991  0.00  0.00    +0.053 A 
ATOM     13  C   UNL     1      -4.662  -4.766   1.635  0.00  0.00    +0.200 C 
ATOM     14  O   UNL     1      -3.558  -4.851   2.138  0.00  0.00    -0.286 OA
ENDROOT
BRANCH   1  18
ATOM     15  C   UNL     1      -0.769  -1.125  -0.526  0.00  0.00    +0.120 A 
ATOM     16  C   UNL     1      -1.889  -0.301  -0.521  0.00  0.00    +0.046 A 
ATOM     17  C   UNL     1      -3.150  -0.850  -0.447  0.00  0.00    +0.013 A 
ATOM     18  C   UNL     1      -3.303  -2.237  -0.376  0.00  0.00    +0.001 A 
ATOM     19  C   UNL     1      -2.175  -3.062  -0.382  0.00  0.00    +0.013 A 
ATOM     20  C   UNL     1      -0.918  -2.505  -0.462  0.00  0.00    +0.046 A 
BRANCH  15  22
ATOM     21  C   UNL     1       0.552   0.845  -0.662  0.00  0.00    +0.277 C 
ATOM     22  O   UNL     1       0.472  -0.580  -0.599  0.00  0.00    -0.495 OA
ENDBRANCH  15  22
ENDBRANCH   1  18
BRANCH  11  23
ATOM     23  N   UNL     1      -4.966  -6.990   3.744  0.00  0.00    -0.268 N 
ATOM     24  C   UNL     1      -4.986  -8.205   4.328  0.00  0.00    +0.320 C 
ATOM     25  O   UNL     1      -5.876  -8.991   4.067  0.00  0.00    -0.251 OA
ATOM     26  N   UNL     1      -4.018  -8.549   5.200  0.00  0.00    -0.217 N 
ATOM     27  H   UNL     1      -4.213  -6.396   3.885  0.00  0.00    +0.156 HD
ATOM     28  H   UNL     1      -4.031  -9.423   5.620  0.00  0.00    +0.174 HD
BRANCH  26  29
ATOM     29  N   UNL     1      -2.991  -7.643   5.500  0.00  0.00    -0.217 N 
ATOM     30  C   UNL     1      -2.023  -7.987   6.372  0.00  0.00    +0.320 C 
ATOM     31  O   UNL     1      -1.133  -7.201   6.633  0.00  0.00    -0.251 OA
ATOM     32  N   UNL     1      -2.042  -9.201   6.956  0.00  0.00    -0.268 N 
ATOM     33  H   UNL     1      -2.978  -6.769   5.080  0.00  0.00    +0.174 HD
ATOM     34  H   UNL     1      -2.710  -9.855   6.695  0.00  0.00    +0.156 HD
BRANCH  32  35
ATOM     35  C   UNL     1      -1.099  -9.520   7.939  0.00  0.00    +0.035 A 
ATOM     36  C   UNL     1      -0.626 -10.821   8.055  0.00  0.00    +0.023 A 
ATOM     37  C   UNL     1       0.305 -11.132   9.027  0.00  0.00    +0.002 A 
ATOM     38  C   UNL     1       0.766 -10.150   9.884  0.00  0.00    +0.000 A 
ATOM     39  C   UNL     1       0.298  -8.854   9.771  0.00  0.00    +0.002 A 
ATOM     40  C   UNL     1      -0.629  -8.535   8.798  0.00  0.00    +0.023 A 
ENDBRANCH  32  35
ENDBRANCH  26  29
ENDBRANCH  11  23
TORSDOF 5
