REMARK  Name = CHEMBL383104
REMARK  8 active torsions:
REMARK  status: ('A' for Active; 'I' for Inactive)
REMARK    1  A    between atoms: C_1  and  C_2
REMARK    2  A    between atoms: C_2  and  C_3
REMARK    3  A    between atoms: C_3  and  C_4
REMARK    4  A    between atoms: C_4  and  N_5
REMARK    5  A    between atoms: C_15  and  N_16
REMARK    6  A    between atoms: C_17  and  C_19
REMARK    7  A    between atoms: C_19  and  C_20
REMARK    8  A    between atoms: C_23  and  N_26
REMARK                            x       y       z     vdW  Elec       q    Type
REMARK                         _______ _______ _______ _____ _____    ______ ____
ROOT
ATOM      1  N   UNL     1      -2.787  -2.571   0.015  0.00  0.00    -0.299 N 
ATOM      2  C   UNL     1      -3.015  -3.899   0.010  0.00  0.00    +0.303 C 
ATOM      3  O   UNL     1      -2.080  -4.676  -0.003  0.00  0.00    -0.253 OA
ATOM      4  N   UNL     1      -4.280  -4.365   0.019  0.00  0.00    -0.275 N 
ATOM      5  C   UNL     1      -4.688  -5.774   0.022  0.00  0.00    +0.150 C 
ATOM      6  C   UNL     1      -6.194  -5.816   0.034  0.00  0.00    +0.034 A 
ATOM      7  C   UNL     1      -6.678  -4.506   0.039  0.00  0.00    +0.087 A 
ATOM      8  N   UNL     1      -7.988  -4.552   0.050  0.00  0.00    -0.175 NA
ATOM      9  N   UNL     1      -8.382  -5.896   0.053  0.00  0.00    -0.263 N 
ATOM     10  H   UNL     1      -9.296  -6.223   0.060  0.00  0.00    +0.190 HD
ATOM     11  C   UNL     1      -7.265  -6.657   0.043  0.00  0.00    +0.125 A 
ATOM     12  C   UNL     1      -5.504  -3.559   0.036  0.00  0.00    +0.167 C 
ATOM     13  H   UNL     1      -3.533  -1.950   0.025  0.00  0.00    +0.150 HD
ENDROOT
BRANCH  11  14
ATOM     14  N   UNL     1      -7.217  -8.051   0.041  0.00  0.00    -0.270 N 
ATOM     15  C   UNL     1      -8.361  -8.764   0.051  0.00  0.00    +0.223 C 
ATOM     16  O   UNL     1      -9.431  -8.194   0.061  0.00  0.00    -0.275 OA
ATOM     17  H   UNL     1      -6.361  -8.508   0.033  0.00  0.00    +0.156 HD
BRANCH  15  18
ATOM     18  C   UNL     1      -8.310 -10.271   0.049  0.00  0.00    +0.131 C 
BRANCH  18  19
ATOM     19  C   UNL     1      -9.713 -10.821   0.061  0.00  0.00    -0.039 A 
ATOM     20  C   UNL     1     -10.346 -11.069   1.265  0.00  0.00    +0.006 A 
ATOM     21  C   UNL     1     -11.632 -11.573   1.279  0.00  0.00    +0.023 A 
ATOM     22  C   UNL     1     -12.288 -11.832   0.083  0.00  0.00    +0.030 A 
ATOM     23  C   UNL     1     -11.649 -11.582  -1.125  0.00  0.00    +0.023 A 
ATOM     24  C   UNL     1     -10.365 -11.072  -1.132  0.00  0.00    +0.006 A 
BRANCH  22  25
ATOM     25  N   UNL     1     -13.588 -12.342   0.094  0.00  0.00    -0.330 N 
ATOM     26  C   UNL     1     -14.380 -12.645   1.295  0.00  0.00    +0.105 C 
ATOM     27  C   UNL     1     -15.736 -13.209   0.821  0.00  0.00    +0.020 C 
ATOM     28  C   UNL     1     -15.418 -13.721  -0.609  0.00  0.00    +0.020 C 
ATOM     29  C   UNL     1     -14.397 -12.660  -1.097  0.00  0.00    +0.105 C 
ENDBRANCH  22  25
ENDBRANCH  18  19
ENDBRANCH  15  18
ENDBRANCH  11  14
BRANCH   1  30
ATOM     30  C   UNL     1      -1.413  -2.063   0.004  0.00  0.00    +0.106 C 
BRANCH  30  31
ATOM     31  C   UNL     1      -1.433  -0.534   0.013  0.00  0.00    +0.018 C 
BRANCH  31  33
ATOM     32  C   UNL     1      -0.019   1.526   0.010  0.00  0.00    +0.004 C 
ATOM     33  C   UNL     1       0.002  -0.004   0.002  0.00  0.00    -0.002 C 
ENDBRANCH  31  33
ENDBRANCH  30  31
ENDBRANCH   1  30
TORSDOF 7
