REMARK  Name = CHEMBL192440
REMARK  7 active torsions:
REMARK  status: ('A' for Active; 'I' for Inactive)
REMARK    1  A    between atoms: C_1  and  C_2
REMARK    2  A    between atoms: C_2  and  C_3
REMARK    3  A    between atoms: C_2  and  C_21
REMARK    4  A    between atoms: C_6  and  N_9
REMARK    5  A    between atoms: C_10  and  C_15
REMARK    6  A    between atoms: N_23  and  C_24
REMARK    7  A    between atoms: C_26  and  C_30
REMARK                            x       y       z     vdW  Elec       q    Type
REMARK                         _______ _______ _______ _____ _____    ______ ____
ROOT
ATOM      1  C   UNL     1      -1.412  -0.526   0.013  0.00  0.00    -0.036 A 
ATOM      2  C   UNL     1      -2.265  -0.228  -1.034  0.00  0.00    +0.006 A 
ATOM      3  C   UNL     1      -3.561  -0.704  -1.027  0.00  0.00    +0.024 A 
ATOM      4  C   UNL     1      -4.007  -1.484   0.032  0.00  0.00    +0.037 A 
ATOM      5  C   UNL     1      -3.148  -1.782   1.081  0.00  0.00    +0.024 A 
ATOM      6  C   UNL     1      -1.851  -1.306   1.066  0.00  0.00    +0.006 A 
ENDROOT
BRANCH   4   7
ATOM      7  N   UNL     1      -5.320  -1.968   0.042  0.00  0.00    -0.264 N 
ATOM      8  C   UNL     1      -5.850  -2.903   1.042  0.00  0.00    +0.112 C 
ATOM      9  C   UNL     1      -7.144  -3.478   0.423  0.00  0.00    +0.037 C 
ATOM     10  C   UNL     1      -7.555  -2.350  -0.552  0.00  0.00    +0.098 C 
ATOM     11  C   UNL     1      -6.260  -1.632  -0.859  0.00  0.00    +0.220 C 
ATOM     12  O   UNL     1      -6.092  -0.866  -1.784  0.00  0.00    -0.275 OA
BRANCH   8  13
ATOM     13  C   UNL     1      -4.859  -4.008   1.299  0.00  0.00    -0.027 A 
ATOM     14  C   UNL     1      -4.146  -4.555   0.249  0.00  0.00    +0.005 A 
ATOM     15  C   UNL     1      -3.236  -5.569   0.485  0.00  0.00    +0.000 A 
ATOM     16  C   UNL     1      -3.041  -6.036   1.771  0.00  0.00    +0.000 A 
ATOM     17  C   UNL     1      -3.754  -5.489   2.821  0.00  0.00    +0.000 A 
ATOM     18  C   UNL     1      -4.660  -4.472   2.586  0.00  0.00    +0.005 A 
ENDBRANCH   8  13
ENDBRANCH   4   7
BRANCH   1  20
ATOM     19  C   UNL     1      -0.019   1.526  -0.028  0.00  0.00    +0.022 C 
ATOM     20  C   UNL     1       0.002  -0.004   0.002  0.00  0.00    +0.102 C 
BRANCH  20  21
ATOM     21  C   UNL     1       0.719  -0.521  -1.219  0.00  0.00    +0.225 C 
ATOM     22  O   UNL     1       0.139  -1.241  -2.003  0.00  0.00    -0.275 OA
ATOM     23  N   UNL     1       2.005  -0.182  -1.439  0.00  0.00    -0.270 N 
ATOM     24  H   UNL     1       2.469   0.395  -0.812  0.00  0.00    +0.156 HD
BRANCH  23  25
ATOM     25  C   UNL     1       2.668  -0.660  -2.569  0.00  0.00    +0.121 A 
ATOM     26  C   UNL     1       2.142  -1.472  -3.527  0.00  0.00    +0.068 A 
ATOM     27  C   UNL     1       3.138  -1.710  -4.479  0.00  0.00    +0.068 A 
ATOM     28  N   UNL     1       4.219  -1.070  -4.113  0.00  0.00    -0.177 NA
ATOM     29  H   UNL     1       4.571   0.160  -2.421  0.00  0.00    +0.190 HD
ATOM     30  N   UNL     1       3.949  -0.396  -2.915  0.00  0.00    -0.264 N 
BRANCH  27  31
ATOM     31  C   UNL     1       2.991  -2.560  -5.715  0.00  0.00    +0.040 C 
ATOM     32  C   UNL     1       1.802  -3.521  -5.774  0.00  0.00    +0.010 C 
ATOM     33  C   UNL     1       3.216  -4.066  -5.568  0.00  0.00    +0.010 C 
ENDBRANCH  27  31
ENDBRANCH  23  25
ENDBRANCH  20  21
ENDBRANCH   1  20
TORSDOF 6
