REMARK  Name = CHEMBL318076
REMARK  2 active torsions:
REMARK  status: ('A' for Active; 'I' for Inactive)
REMARK    1  A    between atoms: C_22  and  C_25
REMARK    2  A    between atoms: C_25  and  O_26
REMARK                            x       y       z     vdW  Elec       q    Type
REMARK                         _______ _______ _______ _____ _____    ______ ____
ROOT
ATOM      1  C   UNL     1       0.592  -0.378  -2.731  0.00  0.00    +0.001 A 
ATOM      2  C   UNL     1       0.900   0.432  -1.642  0.00  0.00    +0.006 A 
ATOM      3  C   UNL     1       2.140   0.380  -1.056  0.00  0.00    -0.023 A 
ATOM      4  C   UNL     1       3.050  -0.519  -1.608  0.00  0.00    +0.054 A 
ATOM      5  C   UNL     1       2.758  -1.341  -2.704  0.00  0.00    +0.009 A 
ATOM      6  C   UNL     1       1.492  -1.274  -3.289  0.00  0.00    +0.010 A 
ATOM      7  C   UNL     1       3.976  -2.109  -2.948  0.00  0.00    +0.023 A 
ATOM      8  C   UNL     1       4.329  -3.087  -3.888  0.00  0.00    +0.060 A 
ATOM      9  C   UNL     1       5.613  -3.656  -3.870  0.00  0.00    +0.060 A 
ATOM     10  C   UNL     1       6.547  -3.246  -2.909  0.00  0.00    +0.022 A 
ATOM     11  C   UNL     1       7.929  -3.622  -2.616  0.00  0.00    +0.008 A 
ATOM     12  C   UNL     1       8.791  -4.540  -3.219  0.00  0.00    +0.013 A 
ATOM     13  C   UNL     1      10.061  -4.651  -2.679  0.00  0.00    +0.039 A 
ATOM     14  C   UNL     1      10.462  -3.888  -1.593  0.00  0.00    +0.125 A 
ATOM     15  C   UNL     1       9.619  -2.972  -0.982  0.00  0.00    +0.064 A 
ATOM     16  C   UNL     1       8.334  -2.842  -1.508  0.00  0.00    +0.050 A 
ATOM     17  N   UNL     1       7.287  -2.042  -1.136  0.00  0.00    -0.352 N 
ATOM     18  H   UNL     1       7.306  -1.409  -0.401  0.00  0.00    +0.166 HD
ATOM     19  C   UNL     1       6.197  -2.265  -1.964  0.00  0.00    +0.073 A 
ATOM     20  C   UNL     1       4.919  -1.695  -1.977  0.00  0.00    +0.075 A 
ATOM     21  N   UNL     1       4.339  -0.736  -1.177  0.00  0.00    -0.333 N 
ATOM     22  C   UNL     1       4.869   0.013  -0.029  0.00  0.00    +0.114 C 
ATOM     23  C   UNL     1       3.694   0.409   0.875  0.00  0.00    +0.032 C 
ATOM     24  C   UNL     1       2.617   1.189   0.114  0.00  0.00    +0.039 C 
ATOM     25  F   UNL     1      11.715  -4.044  -1.112  0.00  0.00    -0.205 F 
ATOM     26  C   UNL     1       5.641  -4.630  -4.976  0.00  0.00    +0.252 C 
ATOM     27  O   UNL     1       6.588  -5.328  -5.282  0.00  0.00    -0.270 OA
ATOM     28  N   UNL     1       4.444  -4.617  -5.588  0.00  0.00    -0.248 N 
ATOM     29  C   UNL     1       3.615  -3.733  -5.005  0.00  0.00    +0.252 C 
ATOM     30  O   UNL     1       2.470  -3.505  -5.342  0.00  0.00    -0.270 OA
ATOM     31  H   UNL     1       4.210  -5.172  -6.349  0.00  0.00    +0.158 HD
ENDROOT
BRANCH  22  32
ATOM     32  C   UNL     1       5.847  -0.866   0.753  0.00  0.00    +0.180 C 
BRANCH  32  33
ATOM     33  O   UNL     1       5.454  -0.911   2.127  0.00  0.00    -0.393 OA
ATOM     34  H   UNL     1       6.030  -1.452   2.683  0.00  0.00    +0.209 HD
ENDBRANCH  32  33
ENDBRANCH  22  32
TORSDOF 2
