REMARK  Name = CHEMBL496569
REMARK  5 active torsions:
REMARK  status: ('A' for Active; 'I' for Inactive)
REMARK    1  A    between atoms: C_4  and  C_7
REMARK    2  A    between atoms: N_9  and  C_10
REMARK    3  A    between atoms: C_15  and  C_16
REMARK    4  A    between atoms: C_22  and  C_26
REMARK    5  A    between atoms: C_26  and  N_27
REMARK                            x       y       z     vdW  Elec       q    Type
REMARK                         _______ _______ _______ _____ _____    ______ ____
ROOT
ATOM      1  C   UNL     1       4.051  -5.103  -0.053  0.00  0.00    +0.159 A 
ATOM      2  N   UNL     1       4.255  -6.459  -0.051  0.00  0.00    -0.337 N 
ATOM      3  H   UNL     1       5.113  -6.912  -0.057  0.00  0.00    +0.167 HD
ATOM      4  C   UNL     1       3.010  -7.059  -0.038  0.00  0.00    +0.067 A 
ATOM      5  C   UNL     1       2.577  -8.377  -0.031  0.00  0.00    +0.028 A 
ATOM      6  C   UNL     1       1.226  -8.653  -0.018  0.00  0.00    +0.007 A 
ATOM      7  C   UNL     1       0.297  -7.622  -0.013  0.00  0.00    -0.031 A 
ATOM      8  C   UNL     1       0.704  -6.318  -0.020  0.00  0.00    +0.034 A 
ATOM      9  C   UNL     1       2.069  -6.013  -0.032  0.00  0.00    +0.090 A 
ATOM     10  N   UNL     1       2.762  -4.849  -0.036  0.00  0.00    -0.226 NA
ENDROOT
BRANCH   1  16
ATOM     11  C   UNL     1       4.941  -2.712  -0.061  0.00  0.00    +0.082 A 
ATOM     12  C   UNL     1       6.212  -2.128  -0.070  0.00  0.00    +0.158 A 
ATOM     13  N   UNL     1       7.112  -3.078  -0.084  0.00  0.00    -0.180 NA
ATOM     14  H   UNL     1       6.894  -5.188  -0.092  0.00  0.00    +0.189 HD
ATOM     15  N   UNL     1       6.463  -4.319  -0.084  0.00  0.00    -0.272 N 
ATOM     16  C   UNL     1       5.114  -4.087  -0.064  0.00  0.00    +0.122 A 
BRANCH  11  19
ATOM     17  C   UNL     1       3.695  -0.684  -0.037  0.00  0.00    +0.248 C 
ATOM     18  O   UNL     1       4.738  -0.060  -0.044  0.00  0.00    -0.270 OA
ATOM     19  N   UNL     1       3.717  -2.032  -0.045  0.00  0.00    -0.278 N 
ATOM     20  H   UNL     1       2.885  -2.530  -0.039  0.00  0.00    +0.155 HD
BRANCH  17  24
ATOM     21  C   UNL     1      -0.017   1.379   0.010  0.00  0.00    +0.000 A 
ATOM     22  C   UNL     1       1.168   2.094   0.002  0.00  0.00    +0.001 A 
ATOM     23  C   UNL     1       2.377   1.429  -0.013  0.00  0.00    +0.013 A 
ATOM     24  C   UNL     1       2.404   0.034  -0.021  0.00  0.00    +0.037 A 
ATOM     25  C   UNL     1       1.204  -0.681  -0.013  0.00  0.00    +0.013 A 
ATOM     26  C   UNL     1       0.002  -0.004   0.002  0.00  0.00    +0.001 A 
ENDBRANCH  17  24
ENDBRANCH  11  19
ENDBRANCH   1  16
BRANCH   7  27
ATOM     27  C   UNL     1      -1.175  -7.944   0.001  0.00  0.00    +0.119 C 
BRANCH  27  28
ATOM     28  N   UNL     1      -1.642  -8.046   1.390  0.00  0.00    -0.294 NA
ATOM     29  C   UNL     1      -1.032  -9.199   2.068  0.00  0.00    +0.113 C 
ATOM     30  C   UNL     1      -1.497  -9.232   3.526  0.00  0.00    +0.175 C 
ATOM     31  O   UNL     1      -2.926  -9.275   3.564  0.00  0.00    -0.377 OA
ATOM     32  C   UNL     1      -3.553  -8.166   2.913  0.00  0.00    +0.175 C 
ATOM     33  C   UNL     1      -3.108  -8.123   1.449  0.00  0.00    +0.113 C 
ENDBRANCH  27  28
ENDBRANCH   7  27
TORSDOF 5
