REMARK  Name = CHEMBL363077
REMARK  6 active torsions:
REMARK  status: ('A' for Active; 'I' for Inactive)
REMARK    1  A    between atoms: C_1  and  O_2
REMARK    2  A    between atoms: O_2  and  C_3
REMARK    3  A    between atoms: C_6  and  C_9
REMARK    4  A    between atoms: C_19  and  N_23
REMARK    5  A    between atoms: N_26  and  N_27
REMARK    6  A    between atoms: C_28  and  C_30
REMARK                            x       y       z     vdW  Elec       q    Type
REMARK                         _______ _______ _______ _____ _____    ______ ____
ROOT
ATOM      1  C   UNL     1       2.603  -2.553   4.300  0.00  0.00    +0.104 A 
ATOM      2  C   UNL     1       2.213  -3.777   4.894  0.00  0.00    +0.075 A 
ATOM      3  C   UNL     1       3.120  -4.051   5.908  0.00  0.00    +0.078 A 
ATOM      4  N   UNL     1       4.017  -3.041   5.928  0.00  0.00    -0.276 N 
ATOM      5  N   UNL     1       3.682  -2.127   4.923  0.00  0.00    -0.173 NA
ATOM      6  H   UNL     1       4.769  -2.963   6.536  0.00  0.00    +0.189 HD
ATOM      7  C   UNL     1       2.744  -5.330   6.556  0.00  0.00    +0.013 A 
ATOM      8  C   UNL     1       3.309  -6.042   7.604  0.00  0.00    +0.011 A 
ATOM      9  C   UNL     1       2.743  -7.240   8.021  0.00  0.00    +0.002 A 
ATOM     10  C   UNL     1       1.616  -7.735   7.402  0.00  0.00    +0.024 A 
ATOM     11  C   UNL     1       1.031  -7.034   6.344  0.00  0.00    +0.046 A 
ATOM     12  C   UNL     1       1.593  -5.830   5.919  0.00  0.00    +0.053 A 
ATOM     13  C   UNL     1       1.222  -4.872   4.854  0.00  0.00    +0.200 C 
ATOM     14  O   UNL     1       0.280  -4.967   4.092  0.00  0.00    -0.286 OA
ENDROOT
BRANCH   1  18
ATOM     15  C   UNL     1       0.646  -0.603   1.067  0.00  0.00    +0.120 A 
ATOM     16  C   UNL     1       1.233   0.149   2.076  0.00  0.00    +0.046 A 
ATOM     17  C   UNL     1       1.868  -0.480   3.126  0.00  0.00    +0.013 A 
ATOM     18  C   UNL     1       1.920  -1.873   3.174  0.00  0.00    +0.003 A 
ATOM     19  C   UNL     1       1.330  -2.625   2.158  0.00  0.00    +0.013 A 
ATOM     20  C   UNL     1       0.692  -1.990   1.114  0.00  0.00    +0.046 A 
BRANCH  15  22
ATOM     21  C   UNL     1       0.011   1.449   0.049  0.00  0.00    +0.277 C 
ATOM     22  O   UNL     1       0.021   0.020   0.034  0.00  0.00    -0.495 OA
ENDBRANCH  15  22
ENDBRANCH   1  18
BRANCH  11  23
ATOM     23  N   UNL     1      -0.106  -7.534   5.719  0.00  0.00    -0.268 N 
ATOM     24  C   UNL     1      -0.929  -8.368   6.383  0.00  0.00    +0.320 C 
ATOM     25  O   UNL     1      -0.735  -8.603   7.561  0.00  0.00    -0.251 OA
ATOM     26  N   UNL     1      -1.967  -8.943   5.744  0.00  0.00    -0.218 N 
ATOM     27  H   UNL     1      -0.306  -7.282   4.804  0.00  0.00    +0.156 HD
ATOM     28  H   UNL     1      -2.559  -9.543   6.222  0.00  0.00    +0.174 HD
BRANCH  26  29
ATOM     29  N   UNL     1      -2.190  -8.672   4.387  0.00  0.00    -0.229 N 
ATOM     30  C   UNL     1      -3.228  -9.246   3.748  0.00  0.00    +0.262 C 
ATOM     31  O   UNL     1      -3.971  -9.999   4.347  0.00  0.00    -0.269 OA
ATOM     32  H   UNL     1      -1.598  -8.071   3.909  0.00  0.00    +0.173 HD
BRANCH  30  33
ATOM     33  C   UNL     1      -3.464  -8.960   2.316  0.00  0.00    +0.056 A 
ATOM     34  C   UNL     1      -4.542  -9.546   1.642  0.00  0.00    +0.016 A 
ATOM     35  C   UNL     1      -4.719  -9.245   0.303  0.00  0.00    +0.020 A 
ATOM     36  C   UNL     1      -3.833  -8.384  -0.321  0.00  0.00    +0.111 A 
ATOM     37  N   UNL     1      -2.826  -7.848   0.340  0.00  0.00    -0.263 NA
ATOM     38  C   UNL     1      -2.619  -8.098   1.617  0.00  0.00    +0.123 A 
ENDBRANCH  30  33
ENDBRANCH  26  29
ENDBRANCH  11  23
TORSDOF 5
