REMARK  Name = CHEMBL185781
REMARK  6 active torsions:
REMARK  status: ('A' for Active; 'I' for Inactive)
REMARK    1  A    between atoms: C_1  and  O_2
REMARK    2  A    between atoms: O_2  and  C_3
REMARK    3  A    between atoms: C_6  and  C_9
REMARK    4  A    between atoms: C_19  and  N_23
REMARK    5  A    between atoms: N_26  and  N_27
REMARK    6  A    between atoms: C_28  and  C_30
REMARK                            x       y       z     vdW  Elec       q    Type
REMARK                         _______ _______ _______ _____ _____    ______ ____
ROOT
ATOM      1  C   UNL     1      -4.980  -2.632   0.055  0.00  0.00    +0.104 A 
ATOM      2  C   UNL     1      -5.280  -3.849  -0.603  0.00  0.00    +0.075 A 
ATOM      3  C   UNL     1      -6.608  -4.148  -0.330  0.00  0.00    +0.078 A 
ATOM      4  N   UNL     1      -7.089  -3.161   0.456  0.00  0.00    -0.276 N 
ATOM      5  N   UNL     1      -6.065  -2.236   0.687  0.00  0.00    -0.173 NA
ATOM      6  H   UNL     1      -7.993  -3.104   0.805  0.00  0.00    +0.189 HD
ATOM      7  C   UNL     1      -6.962  -5.420  -1.005  0.00  0.00    +0.013 A 
ATOM      8  C   UNL     1      -8.141  -6.150  -1.054  0.00  0.00    +0.011 A 
ATOM      9  C   UNL     1      -8.200  -7.334  -1.776  0.00  0.00    +0.002 A 
ATOM     10  C   UNL     1      -7.093  -7.799  -2.451  0.00  0.00    +0.024 A 
ATOM     11  C   UNL     1      -5.896  -7.080  -2.415  0.00  0.00    +0.046 A 
ATOM     12  C   UNL     1      -5.827  -5.890  -1.693  0.00  0.00    +0.053 A 
ATOM     13  C   UNL     1      -4.734  -4.918  -1.463  0.00  0.00    +0.200 C 
ATOM     14  O   UNL     1      -3.602  -4.987  -1.900  0.00  0.00    -0.286 OA
ENDROOT
BRANCH   1  18
ATOM     15  C   UNL     1      -1.233  -0.623   0.015  0.00  0.00    +0.120 A 
ATOM     16  C   UNL     1      -2.412   0.111   0.034  0.00  0.00    +0.046 A 
ATOM     17  C   UNL     1      -3.628  -0.538   0.047  0.00  0.00    +0.013 A 
ATOM     18  C   UNL     1      -3.674  -1.932   0.041  0.00  0.00    +0.003 A 
ATOM     19  C   UNL     1      -2.488  -2.665   0.022  0.00  0.00    +0.013 A 
ATOM     20  C   UNL     1      -1.275  -2.011   0.004  0.00  0.00    +0.046 A 
BRANCH  15  22
ATOM     21  C   UNL     1      -0.065   1.448   0.016  0.00  0.00    +0.277 C 
ATOM     22  O   UNL     1      -0.036   0.019   0.003  0.00  0.00    -0.495 OA
ENDBRANCH  15  22
ENDBRANCH   1  18
BRANCH  11  23
ATOM     23  N   UNL     1      -4.778  -7.550  -3.097  0.00  0.00    -0.268 N 
ATOM     24  C   UNL     1      -4.930  -8.366  -4.158  0.00  0.00    +0.320 C 
ATOM     25  O   UNL     1      -6.042  -8.610  -4.584  0.00  0.00    -0.251 OA
ATOM     26  N   UNL     1      -3.848  -8.912  -4.748  0.00  0.00    -0.218 N 
ATOM     27  H   UNL     1      -3.889  -7.290  -2.808  0.00  0.00    +0.156 HD
ATOM     28  H   UNL     1      -3.957  -9.500  -5.512  0.00  0.00    +0.174 HD
BRANCH  26  29
ATOM     29  N   UNL     1      -2.566  -8.631  -4.258  0.00  0.00    -0.229 N 
ATOM     30  C   UNL     1      -1.484  -9.177  -4.848  0.00  0.00    +0.260 C 
ATOM     31  O   UNL     1      -1.621  -9.914  -5.806  0.00  0.00    -0.269 OA
ATOM     32  H   UNL     1      -2.457  -8.044  -3.494  0.00  0.00    +0.173 HD
BRANCH  30  33
ATOM     33  C   UNL     1      -0.132  -8.881  -4.331  0.00  0.00    +0.039 A 
ATOM     34  C   UNL     1       0.020  -8.033  -3.219  0.00  0.00    +0.014 A 
ATOM     35  C   UNL     1       1.251  -7.746  -2.726  0.00  0.00    +0.009 A 
ATOM     36  C   UNL     1       2.397  -8.298  -3.327  0.00  0.00    -0.018 A 
ATOM     37  C   UNL     1       3.682  -8.016  -2.834  0.00  0.00    +0.008 A 
ATOM     38  C   UNL     1       4.772  -8.566  -3.436  0.00  0.00    +0.001 A 
ATOM     39  C   UNL     1       4.635  -9.407  -4.539  0.00  0.00    +0.001 A 
ATOM     40  C   UNL     1       3.407  -9.704  -5.045  0.00  0.00    +0.008 A 
ATOM     41  C   UNL     1       2.257  -9.155  -4.449  0.00  0.00    -0.017 A 
ATOM     42  C   UNL     1       0.976  -9.445  -4.941  0.00  0.00    +0.021 A 
ENDBRANCH  30  33
ENDBRANCH  26  29
ENDBRANCH  11  23
TORSDOF 5
