REMARK  Name = CHEMBL179599
REMARK  3 active torsions:
REMARK  status: ('A' for Active; 'I' for Inactive)
REMARK    1  A    between atoms: C_3  and  N_12
REMARK    2  A    between atoms: C_6  and  C_7
REMARK    3  A    between atoms: C_23  and  C_25
REMARK                            x       y       z     vdW  Elec       q    Type
REMARK                         _______ _______ _______ _____ _____    ______ ____
ROOT
ATOM      1  N   UNL     1       3.581   2.134  -0.021  0.00  0.00    -0.231 N 
ATOM      2  C   UNL     1       4.710   1.798   0.681  0.00  0.00    +0.086 A 
ATOM      3  C   UNL     1       5.677   2.770   0.398  0.00  0.00    +0.033 A 
ATOM      4  C   UNL     1       6.951   2.689   0.982  0.00  0.00    +0.014 A 
ATOM      5  C   UNL     1       7.260   1.670   1.826  0.00  0.00    +0.028 A 
ATOM      6  C   UNL     1       6.314   0.684   2.127  0.00  0.00    +0.068 A 
ATOM      7  C   UNL     1       5.032   0.741   1.557  0.00  0.00    +0.045 A 
ATOM      8  C   UNL     1       4.313  -0.374   2.044  0.00  0.00    +0.144 A 
ATOM      9  N   UNL     1       5.088  -1.053   2.841  0.00  0.00    -0.181 NA
ATOM     10  N   UNL     1       6.340  -0.432   2.922  0.00  0.00    -0.277 N 
ATOM     11  H   UNL     1       7.095  -0.738   3.449  0.00  0.00    +0.189 HD
ATOM     12  C   UNL     1       5.049   3.720  -0.529  0.00  0.00    +0.155 A 
ATOM     13  N   UNL     1       3.821   3.302  -0.750  0.00  0.00    -0.161 NA
ENDROOT
BRANCH   1  16
ATOM     14  C   UNL     1       0.674   0.247   1.200  0.00  0.00    +0.013 A 
ATOM     15  C   UNL     1       1.857   0.954   1.189  0.00  0.00    +0.028 A 
ATOM     16  C   UNL     1       2.381   1.417  -0.013  0.00  0.00    +0.066 A 
ATOM     17  C   UNL     1       1.714   1.169  -1.207  0.00  0.00    +0.028 A 
ATOM     18  C   UNL     1       0.530   0.463  -1.203  0.00  0.00    +0.013 A 
ATOM     19  C   UNL     1       0.002  -0.004   0.002  0.00  0.00    +0.016 A 
BRANCH  19  20
ATOM     20  C   UNL     1      -1.267  -0.763   0.010  0.00  0.00    +0.116 A 
ATOM     21  N   UNL     1      -1.874  -1.253   1.091  0.00  0.00    -0.346 N 
ATOM     22  C   UNL     1      -3.000  -1.878   0.692  0.00  0.00    +0.102 A 
ATOM     23  C   UNL     1      -3.077  -1.764  -0.650  0.00  0.00    +0.102 A 
ATOM     24  N   UNL     1      -2.000  -1.065  -1.061  0.00  0.00    -0.346 N 
ATOM     25  H   UNL     1      -1.792  -0.827  -1.978  0.00  0.00    +0.167 HD
ATOM     26  H   UNL     1      -1.559  -1.175   2.005  0.00  0.00    +0.167 HD
ENDBRANCH  19  20
ENDBRANCH   1  16
BRANCH  12  27
ATOM     27  C   UNL     1       5.680   4.919  -1.109  0.00  0.00    +0.262 C 
ATOM     28  O   UNL     1       6.830   5.197  -0.828  0.00  0.00    -0.269 OA
ATOM     29  N   UNL     1       4.982   5.707  -1.951  0.00  0.00    -0.324 N 
ATOM     30  H   UNL     1       4.065   5.485  -2.175  0.00  0.00    +0.145 HD
ATOM     31  H   UNL     1       5.398   6.496  -2.333  0.00  0.00    +0.145 HD
ENDBRANCH  12  27
TORSDOF 3
