REMARK  Name = CHEMBL112136
REMARK  3 active torsions:
REMARK  status: ('A' for Active; 'I' for Inactive)
REMARK    1  A    between atoms: C_6  and  C_7
REMARK    2  A    between atoms: N_9  and  C_10
REMARK    3  A    between atoms: C_12  and  C_16
REMARK                            x       y       z     vdW  Elec       q    Type
REMARK                         _______ _______ _______ _____ _____    ______ ____
ROOT
ATOM      1  C   UNL     1      -1.266  -0.763   0.011  0.00  0.00    +0.249 C 
ATOM      2  O   UNL     1      -2.328  -0.172   0.024  0.00  0.00    -0.270 OA
ATOM      3  N   UNL     1      -1.244  -2.111   0.003  0.00  0.00    -0.267 N 
ATOM      4  H   UNL     1      -0.397  -2.582  -0.008  0.00  0.00    +0.157 HD
ENDROOT
BRANCH   1  10
ATOM      5  C   UNL     1      -0.017   1.392   0.010  0.00  0.00    +0.014 A 
ATOM      6  C   UNL     1       1.170   2.095   0.002  0.00  0.00    +0.016 A 
ATOM      7  C   UNL     1       2.378   1.419  -0.013  0.00  0.00    +0.018 A 
ATOM      8  C   UNL     1       2.404   0.034  -0.021  0.00  0.00    +0.016 A 
ATOM      9  C   UNL     1       1.224  -0.680  -0.014  0.00  0.00    +0.014 A 
ATOM     10  C   UNL     1       0.002  -0.004   0.002  0.00  0.00    +0.037 A 
ATOM     11 BR   UNL     1       4.000   2.390  -0.023  0.00  0.00    -0.050 Br
ENDBRANCH   1  10
BRANCH   3  12
ATOM     12  C   UNL     1      -2.440  -2.827   0.011  0.00  0.00    +0.121 A 
ATOM     13  C   UNL     1      -3.695  -2.299   0.026  0.00  0.00    +0.068 A 
ATOM     14  C   UNL     1      -4.606  -3.358   0.030  0.00  0.00    +0.068 A 
ATOM     15  N   UNL     1      -3.934  -4.481   0.017  0.00  0.00    -0.177 NA
ATOM     16  H   UNL     1      -1.840  -4.821  -0.016  0.00  0.00    +0.190 HD
ATOM     17  N   UNL     1      -2.567  -4.179  -0.001  0.00  0.00    -0.264 N 
BRANCH  14  18
ATOM     18  C   UNL     1      -6.107  -3.230   0.045  0.00  0.00    +0.040 C 
ATOM     19  C   UNL     1      -6.606  -1.805  -0.247  0.00  0.00    +0.010 C 
ATOM     20  C   UNL     1      -7.665  -2.036   0.844  0.00  0.00    +0.001 C 
ATOM     21  C   UNL     1      -6.696  -3.062   1.456  0.00  0.00    +0.010 C 
ENDBRANCH  14  18
ENDBRANCH   3  12
TORSDOF 3
