REMARK  Name = CHEMBL190091
REMARK  5 active torsions:
REMARK  status: ('A' for Active; 'I' for Inactive)
REMARK    1  A    between atoms: C_1  and  C_2
REMARK    2  A    between atoms: C_2  and  C_3
REMARK    3  A    between atoms: C_7  and  C_11
REMARK    4  A    between atoms: C_11  and  C_12
REMARK    5  A    between atoms: N_18  and  C_20
REMARK                            x       y       z     vdW  Elec       q    Type
REMARK                         _______ _______ _______ _____ _____    ______ ____
ROOT
ATOM      1  C   UNL     1       0.631  -1.377  -0.945  0.00  0.00    +0.078 A 
ATOM      2  C   UNL     1       0.155  -1.129  -2.246  0.00  0.00    +0.106 A 
ATOM      3  C   UNL     1       1.202  -1.419  -3.136  0.00  0.00    +0.171 A 
ATOM      4  N   UNL     1       1.003  -1.263  -4.454  0.00  0.00    -0.214 NA
ATOM      5  C   UNL     1      -0.134  -0.850  -4.933  0.00  0.00    +0.118 A 
ATOM      6  N   UNL     1      -1.200  -0.546  -4.150  0.00  0.00    -0.310 N 
ATOM      7  C   UNL     1      -1.115  -0.665  -2.805  0.00  0.00    +0.263 A 
ATOM      8  O   UNL     1      -2.061  -0.397  -2.086  0.00  0.00    -0.267 OA
ATOM      9  N   UNL     1       2.255  -1.824  -2.376  0.00  0.00    -0.211 N 
ATOM     10  N   UNL     1       1.869  -1.780  -1.030  0.00  0.00    -0.169 NA
ATOM     11  H   UNL     1      -2.026  -0.241  -4.557  0.00  0.00    +0.170 HD
ENDROOT
BRANCH   9  12
ATOM     12  C   UNL     1       3.513  -2.213  -2.857  0.00  0.00    +0.104 A 
ATOM     13  C   UNL     1       4.663  -1.597  -2.378  0.00  0.00    +0.069 A 
ATOM     14  C   UNL     1       5.902  -1.982  -2.854  0.00  0.00    +0.042 A 
ATOM     15  C   UNL     1       5.998  -2.982  -3.807  0.00  0.00    +0.044 A 
ATOM     16  C   UNL     1       4.855  -3.598  -4.285  0.00  0.00    +0.042 A 
ATOM     17  C   UNL     1       3.614  -3.221  -3.808  0.00  0.00    +0.069 A 
ATOM     18 CL   UNL     1       2.181  -3.999  -4.403  0.00  0.00    -0.081 Cl
ATOM     19 CL   UNL     1       7.556  -3.462  -4.403  0.00  0.00    -0.083 Cl
ATOM     20 CL   UNL     1       4.543  -0.342  -1.184  0.00  0.00    -0.081 Cl
ENDBRANCH   9  12
BRANCH   1  22
ATOM     21  C   UNL     1       0.033   0.226   0.850  0.00  0.00    +0.010 C 
ATOM     22  C   UNL     1      -0.154  -1.201   0.329  0.00  0.00    +0.055 C 
ENDBRANCH   1  22
BRANCH   5  23
ATOM     23  C   UNL     1      -0.273  -0.702  -6.426  0.00  0.00    +0.129 C 
BRANCH  23  24
ATOM     24  C   UNL     1       1.058  -0.963  -7.083  0.00  0.00    +0.049 A 
ATOM     25  C   UNL     1       1.164  -1.950  -8.044  0.00  0.00    +0.024 A 
ATOM     26  C   UNL     1       2.393  -2.183  -8.642  0.00  0.00    +0.003 A 
ATOM     27  C   UNL     1       3.475  -1.409  -8.249  0.00  0.00    +0.020 A 
ATOM     28  C   UNL     1       3.293  -0.439  -7.281  0.00  0.00    +0.111 A 
ATOM     29  N   UNL     1       2.108  -0.242  -6.738  0.00  0.00    -0.259 NA
ENDBRANCH  23  24
ENDBRANCH   5  23
TORSDOF 4
