REMARK  Name = CHEMBL213713
REMARK  8 active torsions:
REMARK  status: ('A' for Active; 'I' for Inactive)
REMARK    1  A    between atoms: C_1  and  O_2
REMARK    2  A    between atoms: O_2  and  C_3
REMARK    3  A    between atoms: C_8  and  C_9
REMARK    4  A    between atoms: C_9  and  C_11
REMARK    5  A    between atoms: C_16  and  N_17
REMARK    6  A    between atoms: N_18  and  C_19
REMARK    7  A    between atoms: N_22  and  S_25
REMARK    8  A    between atoms: S_25  and  C_28
REMARK                            x       y       z     vdW  Elec       q    Type
REMARK                         _______ _______ _______ _____ _____    ______ ____
ROOT
ATOM      1  C   UNL     1       0.099  -4.300  -0.036  0.00  0.00    +0.080 A 
ATOM      2  C   UNL     1       0.758  -5.022  -1.038  0.00  0.00    +0.129 A 
ATOM      3  N   UNL     1       0.770  -6.340  -0.976  0.00  0.00    -0.222 NA
ATOM      4  C   UNL     1       0.171  -6.987   0.017  0.00  0.00    +0.217 A 
ATOM      5  N   UNL     1      -0.466  -6.349   0.988  0.00  0.00    -0.199 NA
ATOM      6  C   UNL     1      -0.522  -5.022   1.007  0.00  0.00    +0.132 A 
ATOM      7  N   UNL     1       0.211  -8.365   0.037  0.00  0.00    -0.310 N 
ATOM      8  H   UNL     1      -0.222  -8.852   0.755  0.00  0.00    +0.149 HD
ENDROOT
BRANCH   7   9
ATOM      9  C   UNL     1       0.908  -9.093  -1.026  0.00  0.00    +0.076 C 
ATOM     10  C   UNL     1      -0.034  -9.284  -2.216  0.00  0.00    +0.039 C 
ATOM     11  C   UNL     1       0.709 -10.015  -3.339  0.00  0.00    +0.111 C 
ATOM     12  N   UNL     1       1.264 -11.265  -2.803  0.00  0.00    -0.181 NA
ATOM     13  C   UNL     1       2.111 -11.205  -1.604  0.00  0.00    +0.111 C 
ATOM     14  C   UNL     1       1.352 -10.461  -0.501  0.00  0.00    +0.039 C 
BRANCH  12  15
ATOM     15  S   UNL     1       0.940 -12.714  -3.535  0.00  0.00    +0.029 S 
ATOM     16  O   UNL     1       1.066 -13.680  -2.501  0.00  0.00    -0.158 OA
ATOM     17  O   UNL     1      -0.303 -12.518  -4.195  0.00  0.00    -0.158 OA
ATOM     18  C   UNL     1       2.267 -12.928  -4.754  0.00  0.00    +0.215 C 
ENDBRANCH  12  15
ENDBRANCH   7   9
BRANCH   6  19
ATOM     19  N   UNL     1      -1.180  -4.362   2.023  0.00  0.00    -0.342 N 
ATOM     20  H   UNL     1      -1.280  -3.398   1.990  0.00  0.00    +0.144 HD
ATOM     21  H   UNL     1      -1.543  -4.862   2.771  0.00  0.00    +0.144 HD
ENDBRANCH   6  19
BRANCH   1  22
ATOM     22  C   UNL     1       0.060  -2.829  -0.065  0.00  0.00    +0.204 C 
ATOM     23  O   UNL     1       1.044  -2.188   0.253  0.00  0.00    -0.286 OA
BRANCH  22  29
ATOM     24  C   UNL     1      -1.252  -0.735  -0.397  0.00  0.00    +0.137 A 
ATOM     25  C   UNL     1      -2.410  -0.088  -0.792  0.00  0.00    +0.087 A 
ATOM     26  C   UNL     1      -3.488  -0.819  -1.262  0.00  0.00    +0.165 A 
ATOM     27  C   UNL     1      -3.418  -2.204  -1.339  0.00  0.00    +0.194 A 
ATOM     28  C   UNL     1      -2.269  -2.864  -0.948  0.00  0.00    +0.176 A 
ATOM     29  C   UNL     1      -1.171  -2.133  -0.478  0.00  0.00    +0.102 A 
ATOM     30  F   UNL     1      -2.204  -4.211  -1.024  0.00  0.00    -0.202 F 
ATOM     31  F   UNL     1      -4.476  -2.907  -1.799  0.00  0.00    -0.199 F 
ATOM     32  F   UNL     1      -4.616  -0.181  -1.647  0.00  0.00    -0.202 F 
BRANCH  24  34
ATOM     33  C   UNL     1      -0.350   1.402   0.118  0.00  0.00    +0.277 C 
ATOM     34  O   UNL     1      -0.195  -0.017   0.064  0.00  0.00    -0.494 OA
ENDBRANCH  24  34
ENDBRANCH  22  29
ENDBRANCH   1  22
TORSDOF 6
