REMARK  Name = CHEMBL361833
REMARK  6 active torsions:
REMARK  status: ('A' for Active; 'I' for Inactive)
REMARK    1  A    between atoms: C_4  and  S_7
REMARK    2  A    between atoms: S_7  and  C_10
REMARK    3  A    between atoms: C_13  and  N_16
REMARK    4  A    between atoms: N_16  and  C_17
REMARK    5  A    between atoms: N_27  and  C_28
REMARK    6  A    between atoms: C_31  and  N_34
REMARK                            x       y       z     vdW  Elec       q    Type
REMARK                         _______ _______ _______ _____ _____    ______ ____
ROOT
ATOM      1  C   UNL     1       5.221  -2.863   6.305  0.00  0.00    +0.130 A 
ATOM      2  C   UNL     1       4.542  -3.884   5.707  0.00  0.00    +0.087 A 
ATOM      3  C   UNL     1       4.248  -5.041   6.446  0.00  0.00    +0.125 A 
ATOM      4  N   UNL     1       4.627  -5.137   7.709  0.00  0.00    -0.212 NA
ATOM      5  C   UNL     1       5.294  -4.138   8.306  0.00  0.00    +0.173 A 
ATOM      6  N   UNL     1       5.604  -2.995   7.616  0.00  0.00    -0.199 N 
ATOM      7  N   UNL     1       6.300  -2.149   8.487  0.00  0.00    -0.171 NA
ATOM      8  C   UNL     1       6.416  -2.742   9.653  0.00  0.00    +0.152 A 
ATOM      9  C   UNL     1       5.797  -3.984   9.591  0.00  0.00    +0.082 A 
ATOM     10 BR   UNL     1       5.676  -5.243  10.996  0.00  0.00    -0.045 Br
ATOM     11  N   UNL     1       3.559  -6.085   5.850  0.00  0.00    -0.326 N 
ATOM     12  H   UNL     1       3.281  -6.016   4.924  0.00  0.00    +0.148 HD
ENDROOT
BRANCH  11  13
ATOM     13  C   UNL     1       3.252  -7.293   6.620  0.00  0.00    +0.072 C 
ATOM     14  C   UNL     1       4.446  -8.248   6.570  0.00  0.00    +0.020 C 
ATOM     15  C   UNL     1       4.125  -9.509   7.374  0.00  0.00    -0.014 C 
ATOM     16  C   UNL     1       2.897 -10.197   6.773  0.00  0.00    -0.075 C 
ATOM     17  C   UNL     1       1.702  -9.243   6.822  0.00  0.00    -0.014 C 
ATOM     18  C   UNL     1       2.024  -7.981   6.019  0.00  0.00    +0.020 C 
BRANCH  16  19
ATOM     19  N   UNL     1       2.589 -11.409   7.545  0.00  0.00    +0.380 N 
ATOM     20  H   UNL     1       2.398 -11.158   8.503  0.00  0.00    -0.090 HD
ATOM     21  H   UNL     1       1.779 -11.863   7.148  0.00  0.00    -0.090 HD
ATOM     22  H   UNL     1       3.377 -12.038   7.512  0.00  0.00    -0.090 HD
ENDBRANCH  16  19
ENDBRANCH  11  13
BRANCH   1  23
ATOM     23  N   UNL     1       5.523  -1.716   5.600  0.00  0.00    -0.299 N 
ATOM     24  H   UNL     1       6.047  -1.770   4.786  0.00  0.00    +0.154 HD
BRANCH  23  28
ATOM     25  C   UNL     1       4.184   1.982   6.971  0.00  0.00    +0.094 A 
ATOM     26  C   UNL     1       3.761   0.822   7.593  0.00  0.00    +0.029 A 
ATOM     27  C   UNL     1       4.203  -0.406   7.141  0.00  0.00    +0.025 A 
ATOM     28  C   UNL     1       5.073  -0.474   6.060  0.00  0.00    +0.032 A 
ATOM     29  C   UNL     1       5.495   0.693   5.437  0.00  0.00    +0.025 A 
ATOM     30  C   UNL     1       5.045   1.917   5.891  0.00  0.00    +0.029 A 
BRANCH  25  31
ATOM     31  S   UNL     1       3.617   3.547   7.551  0.00  0.00    +0.025 S 
ATOM     32  O   UNL     1       4.582   4.506   7.140  0.00  0.00    -0.164 OA
ATOM     33  O   UNL     1       3.253   3.368   8.912  0.00  0.00    -0.164 OA
BRANCH  31  37
ATOM     34  C   UNL     1      -0.195   4.508   5.308  0.00  0.00    +0.000 A 
ATOM     35  C   UNL     1      -0.252   3.813   6.501  0.00  0.00    +0.002 A 
ATOM     36  C   UNL     1       0.912   3.520   7.186  0.00  0.00    +0.027 A 
ATOM     37  C   UNL     1       2.133   3.920   6.677  0.00  0.00    +0.094 A 
ATOM     38  C   UNL     1       2.190   4.614   5.483  0.00  0.00    +0.027 A 
ATOM     39  C   UNL     1       1.026   4.909   4.799  0.00  0.00    +0.002 A 
ENDBRANCH  31  37
ENDBRANCH  25  31
ENDBRANCH  23  28
ENDBRANCH   1  23
TORSDOF 6
