REMARK  Name = CHEMBL336906
REMARK  5 active torsions:
REMARK  status: ('A' for Active; 'I' for Inactive)
REMARK    1  A    between atoms: C_3  and  S_25
REMARK    2  A    between atoms: C_6  and  N_7
REMARK    3  A    between atoms: N_8  and  C_9
REMARK    4  A    between atoms: C_23  and  O_24
REMARK    5  A    between atoms: S_25  and  N_28
REMARK                            x       y       z     vdW  Elec       q    Type
REMARK                         _______ _______ _______ _____ _____    ______ ____
ROOT
ATOM      1  C   UNL     1       0.113  -2.534  -0.240  0.00  0.00    +0.155 A 
ATOM      2  C   UNL     1       0.304  -3.988  -0.366  0.00  0.00    +0.043 A 
ATOM      3  C   UNL     1       1.634  -4.241  -0.020  0.00  0.00    +0.052 A 
ATOM      4  C   UNL     1       2.118  -5.551  -0.046  0.00  0.00    +0.028 A 
ATOM      5  C   UNL     1       1.309  -6.588  -0.404  0.00  0.00    +0.030 A 
ATOM      6  C   UNL     1      -0.023  -6.363  -0.755  0.00  0.00    +0.068 A 
ATOM      7  C   UNL     1      -0.539  -5.056  -0.739  0.00  0.00    +0.050 A 
ATOM      8  C   UNL     1      -1.893  -5.142  -1.134  0.00  0.00    +0.159 A 
ATOM      9  N   UNL     1      -2.181  -6.391  -1.371  0.00  0.00    -0.161 NA
ATOM     10  N   UNL     1      -1.049  -7.184  -1.148  0.00  0.00    -0.276 N 
ATOM     11  H   UNL     1      -0.999  -8.147  -1.253  0.00  0.00    +0.189 HD
ATOM     12 CL   UNL     1      -2.992  -3.805  -1.279  0.00  0.00    -0.059 Cl
ATOM     13  N   UNL     1       2.228  -3.031   0.299  0.00  0.00    -0.324 N 
ATOM     14  H   UNL     1       3.152  -2.923   0.574  0.00  0.00    +0.169 HD
ATOM     15  C   UNL     1       1.335  -2.015   0.165  0.00  0.00    +0.219 A 
ENDROOT
BRANCH   1  17
ATOM     16  N   UNL     1      -1.515  -1.080   0.440  0.00  0.00    -0.149 NA
ATOM     17  N   UNL     1      -1.022  -1.843  -0.476  0.00  0.00    -0.143 NA
BRANCH  16  23
ATOM     18  C   UNL     1      -0.624  -2.038   2.448  0.00  0.00    +0.031 A 
ATOM     19  C   UNL     1       0.039  -1.879   3.647  0.00  0.00    +0.030 A 
ATOM     20  C   UNL     1       0.470  -0.624   4.041  0.00  0.00    +0.105 A 
ATOM     21  C   UNL     1       0.241   0.478   3.237  0.00  0.00    +0.030 A 
ATOM     22  C   UNL     1      -0.421   0.334   2.036  0.00  0.00    +0.031 A 
ATOM     23  C   UNL     1      -0.859  -0.929   1.631  0.00  0.00    +0.086 A 
BRANCH  20  24
ATOM     24  S   UNL     1       1.316  -0.430   5.575  0.00  0.00    +0.056 S 
ATOM     25  O   UNL     1       1.135   0.922   5.971  0.00  0.00    -0.153 OA
ATOM     26  O   UNL     1       0.925  -1.523   6.395  0.00  0.00    -0.153 OA
BRANCH  24  27
ATOM     27  N   UNL     1       2.932  -0.622   5.271  0.00  0.00    -0.204 NA
ATOM     28  H   UNL     1       3.237  -0.805   4.368  0.00  0.00    +0.144 HD
ATOM     29  H   UNL     1       3.574  -0.551   5.995  0.00  0.00    +0.144 HD
ENDBRANCH  24  27
ENDBRANCH  20  24
ENDBRANCH  16  23
ENDBRANCH   1  17
BRANCH  15  30
ATOM     30  O   UNL     1       1.595  -0.708   0.394  0.00  0.00    -0.492 OA
ATOM     31  H   UNL     1       1.532  -0.451   1.324  0.00  0.00    +0.294 HD
ENDBRANCH  15  30
TORSDOF 5
