REMARK  Name = CHEMBL148865
REMARK  2 active torsions:
REMARK  status: ('A' for Active; 'I' for Inactive)
REMARK    1  A    between atoms: C_5  and  N_7
REMARK    2  A    between atoms: C_18  and  C_19
REMARK                            x       y       z     vdW  Elec       q    Type
REMARK                         _______ _______ _______ _____ _____    ______ ____
ROOT
ATOM      1  C   UNL     1      -0.030   1.370   0.043  0.00  0.00    +0.002 A 
ATOM      2  C   UNL     1       1.151   2.094   0.038  0.00  0.00    +0.011 A 
ATOM      3  C   UNL     1       2.375   1.438   0.013  0.00  0.00    +0.015 A 
ATOM      4  C   UNL     1       2.409   0.032  -0.006  0.00  0.00    +0.053 A 
ATOM      5  C   UNL     1       1.208  -0.689  -0.002  0.00  0.00    +0.046 A 
ATOM      6  C   UNL     1      -0.006  -0.009   0.024  0.00  0.00    +0.024 A 
ATOM      7  C   UNL     1       3.818  -0.411  -0.030  0.00  0.00    +0.199 C 
ATOM      8  O   UNL     1       4.207  -1.563  -0.051  0.00  0.00    -0.286 OA
ATOM      9  C   UNL     1       4.666   0.794  -0.024  0.00  0.00    +0.071 A 
ATOM     10  C   UNL     1       3.767   1.951   0.003  0.00  0.00    +0.104 A 
ATOM     11  N   UNL     1       4.521   3.022   0.009  0.00  0.00    -0.173 NA
ATOM     12  H   UNL     1       6.624   3.233  -0.015  0.00  0.00    +0.189 HD
ATOM     13  N   UNL     1       5.864   2.630  -0.014  0.00  0.00    -0.280 N 
ATOM     14  C   UNL     1       5.938   1.285  -0.034  0.00  0.00    +0.051 A 
ENDROOT
BRANCH   5  15
ATOM     15  N   UNL     1       1.229  -2.080  -0.022  0.00  0.00    -0.269 N 
ATOM     16  C   UNL     1       0.174  -2.763  -0.508  0.00  0.00    +0.301 C 
ATOM     17  O   UNL     1      -0.751  -2.166  -1.024  0.00  0.00    -0.253 OA
ATOM     18  N   UNL     1       0.145  -4.108  -0.425  0.00  0.00    -0.313 N 
ATOM     19  H   UNL     1       2.003  -2.558   0.315  0.00  0.00    +0.156 HD
ATOM     20  H   UNL     1       0.884  -4.584  -0.014  0.00  0.00    +0.146 HD
ATOM     21  H   UNL     1      -0.614  -4.599  -0.775  0.00  0.00    +0.146 HD
ENDBRANCH   5  15
BRANCH  14  22
ATOM     22  C   UNL     1       7.203   0.467  -0.061  0.00  0.00    +0.038 C 
ATOM     23  C   UNL     1       8.527   1.207   0.136  0.00  0.00    +0.010 C 
ATOM     24  C   UNL     1       8.150   0.669  -1.246  0.00  0.00    +0.010 C 
ENDBRANCH  14  22
TORSDOF 2
