REMARK  Name = CHEMBL397531
REMARK  4 active torsions:
REMARK  status: ('A' for Active; 'I' for Inactive)
REMARK    1  A    between atoms: C_1  and  C_2
REMARK    2  A    between atoms: C_2  and  N_3
REMARK    3  A    between atoms: C_9  and  N_12
REMARK    4  A    between atoms: C_17  and  C_19
REMARK                            x       y       z     vdW  Elec       q    Type
REMARK                         _______ _______ _______ _____ _____    ______ ____
ROOT
ATOM      1  N   UNL     1       5.328  -3.726   3.520  0.00  0.00    -0.310 N 
ATOM      2  C   UNL     1       5.801  -4.542   4.534  0.00  0.00    +0.216 A 
ATOM      3  N   UNL     1       4.935  -5.115   5.358  0.00  0.00    -0.221 NA
ATOM      4  C   UNL     1       5.346  -5.903   6.341  0.00  0.00    +0.136 A 
ATOM      5  C   UNL     1       6.698  -6.129   6.508  0.00  0.00    +0.087 A 
ATOM      6  C   UNL     1       7.593  -5.510   5.621  0.00  0.00    +0.112 A 
ATOM      7  N   UNL     1       7.105  -4.734   4.651  0.00  0.00    -0.211 NA
ATOM      8 CL   UNL     1       7.278  -7.153   7.784  0.00  0.00    -0.080 Cl
ATOM      9  H   UNL     1       5.950  -3.304   2.907  0.00  0.00    +0.149 HD
ENDROOT
BRANCH   1  16
ATOM     10  N   UNL     1       0.627  -1.684   0.230  0.00  0.00    -0.300 N 
ATOM     11  C   UNL     1       0.754  -2.906   0.785  0.00  0.00    +0.302 C 
ATOM     12  O   UNL     1       0.171  -3.857   0.300  0.00  0.00    -0.253 OA
ATOM     13  N   UNL     1       1.526  -3.073   1.877  0.00  0.00    -0.286 N 
ATOM     14  C   UNL     1       2.143  -1.918   2.541  0.00  0.00    +0.111 C 
ATOM     15  C   UNL     1       3.650  -2.166   2.662  0.00  0.00    +0.041 C 
ATOM     16  C   UNL     1       3.888  -3.501   3.373  0.00  0.00    +0.076 C 
ATOM     17  C   UNL     1       3.276  -4.636   2.548  0.00  0.00    +0.041 C 
ATOM     18  C   UNL     1       1.760  -4.415   2.429  0.00  0.00    +0.111 C 
ATOM     19  H   UNL     1       1.033  -0.913   0.657  0.00  0.00    +0.150 HD
BRANCH  10  21
ATOM     20  C   UNL     1      -0.114  -0.046  -1.428  0.00  0.00    +0.024 C 
ATOM     21  C   UNL     1      -0.123  -1.520  -1.018  0.00  0.00    +0.102 C 
ENDBRANCH  10  21
ENDBRANCH   1  16
BRANCH   6  22
ATOM     22  C   UNL     1       9.044  -5.718   5.755  0.00  0.00    +0.093 A 
ATOM     23  C   UNL     1       9.939  -5.965   4.736  0.00  0.00    +0.141 A 
ATOM     24  N   UNL     1      11.150  -6.093   5.266  0.00  0.00    -0.235 NA
ATOM     25  C   UNL     1      11.079  -5.939   6.584  0.00  0.00    +0.138 A 
ATOM     26  N   UNL     1       9.775  -5.697   6.924  0.00  0.00    -0.298 N 
ATOM     27  C   UNL     1       9.424  -5.496   8.224  0.00  0.00    +0.093 A 
ATOM     28  C   UNL     1      10.356  -5.528   9.202  0.00  0.00    +0.018 A 
ATOM     29  C   UNL     1      11.701  -5.770   8.886  0.00  0.00    +0.005 A 
ATOM     30  C   UNL     1      12.062  -5.980   7.591  0.00  0.00    +0.047 A 
ENDBRANCH   6  22
TORSDOF 3
