REMARK  Name = CHEMBL313682
REMARK  9 active torsions:
REMARK  status: ('A' for Active; 'I' for Inactive)
REMARK    1  A    between atoms: C_3  and  C_24
REMARK    2  A    between atoms: C_9  and  O_23
REMARK    3  A    between atoms: C_10  and  N_11
REMARK    4  A    between atoms: N_12  and  C_13
REMARK    5  A    between atoms: C_16  and  S_19
REMARK    6  A    between atoms: S_19  and  N_22
REMARK    7  A    between atoms: C_24  and  C_25
REMARK    8  A    between atoms: C_25  and  C_26
REMARK    9  A    between atoms: C_29  and  O_32
REMARK                            x       y       z     vdW  Elec       q    Type
REMARK                         _______ _______ _______ _____ _____    ______ ____
ROOT
ATOM      1  C   UNL     1       2.154  -4.985  -2.013  0.00  0.00    +0.002 A 
ATOM      2  C   UNL     1       2.480  -3.752  -2.557  0.00  0.00    +0.004 A 
ATOM      3  C   UNL     1       3.376  -2.924  -1.915  0.00  0.00    -0.036 A 
ATOM      4  C   UNL     1       3.955  -3.333  -0.716  0.00  0.00    +0.034 A 
ATOM      5  C   UNL     1       3.626  -4.581  -0.164  0.00  0.00    +0.052 A 
ATOM      6  C   UNL     1       2.720  -5.401  -0.827  0.00  0.00    +0.026 A 
ATOM      7  N   UNL     1       4.338  -4.725   1.013  0.00  0.00    -0.324 N 
ATOM      8  H   UNL     1       4.295  -5.500   1.595  0.00  0.00    +0.169 HD
ATOM      9  C   UNL     1       5.108  -3.626   1.241  0.00  0.00    +0.219 A 
ATOM     10  C   UNL     1       4.924  -2.717   0.210  0.00  0.00    +0.155 A 
ENDROOT
BRANCH  10  11
ATOM     11  N   UNL     1       5.514  -1.511   0.081  0.00  0.00    -0.143 NA
ATOM     12  N   UNL     1       5.488  -0.672   1.060  0.00  0.00    -0.149 NA
BRANCH  12  13
ATOM     13  C   UNL     1       4.869  -1.008   2.233  0.00  0.00    +0.086 A 
ATOM     14  C   UNL     1       5.605  -1.084   3.418  0.00  0.00    +0.031 A 
ATOM     15  C   UNL     1       4.973  -1.423   4.597  0.00  0.00    +0.030 A 
ATOM     16  C   UNL     1       3.615  -1.688   4.607  0.00  0.00    +0.105 A 
ATOM     17  C   UNL     1       2.880  -1.614   3.436  0.00  0.00    +0.030 A 
ATOM     18  C   UNL     1       3.497  -1.271   2.252  0.00  0.00    +0.031 A 
BRANCH  16  19
ATOM     19  S   UNL     1       2.817  -2.120   6.117  0.00  0.00    +0.056 S 
ATOM     20  O   UNL     1       1.650  -2.850   5.765  0.00  0.00    -0.153 OA
ATOM     21  O   UNL     1       3.822  -2.653   6.969  0.00  0.00    -0.153 OA
BRANCH  19  22
ATOM     22  N   UNL     1       2.300  -0.712   6.819  0.00  0.00    -0.204 NA
ATOM     23  H   UNL     1       1.508  -0.711   7.378  0.00  0.00    +0.144 HD
ATOM     24  H   UNL     1       2.790   0.113   6.669  0.00  0.00    +0.144 HD
ENDBRANCH  19  22
ENDBRANCH  16  19
ENDBRANCH  12  13
ENDBRANCH  10  11
BRANCH   9  25
ATOM     25  O   UNL     1       5.924  -3.449   2.305  0.00  0.00    -0.492 OA
ATOM     26  H   UNL     1       6.803  -3.838   2.196  0.00  0.00    +0.294 HD
ENDBRANCH   9  25
BRANCH   3  27
ATOM     27  C   UNL     1       3.729  -1.585  -2.508  0.00  0.00    +0.040 C 
BRANCH  27  28
ATOM     28  C   UNL     1       5.006  -1.716  -3.340  0.00  0.00    +0.040 C 
BRANCH  28  29
ATOM     29  C   UNL     1       5.359  -0.376  -3.933  0.00  0.00    -0.047 A 
ATOM     30  C   UNL     1       4.859  -0.017  -5.171  0.00  0.00    +0.007 A 
ATOM     31  C   UNL     1       5.181   1.211  -5.718  0.00  0.00    +0.045 A 
ATOM     32  C   UNL     1       6.007   2.083  -5.023  0.00  0.00    +0.117 A 
ATOM     33  C   UNL     1       6.507   1.720  -3.781  0.00  0.00    +0.045 A 
ATOM     34  C   UNL     1       6.178   0.493  -3.237  0.00  0.00    +0.007 A 
BRANCH  32  35
ATOM     35  O   UNL     1       6.326   3.290  -5.558  0.00  0.00    -0.507 OA
ATOM     36  H   UNL     1       5.711   3.999  -5.324  0.00  0.00    +0.292 HD
ENDBRANCH  32  35
ENDBRANCH  28  29
ENDBRANCH  27  28
ENDBRANCH   3  27
TORSDOF 9
