REMARK  Name = CHEMBL148580
REMARK  6 active torsions:
REMARK  status: ('A' for Active; 'I' for Inactive)
REMARK    1  A    between atoms: C_1  and  O_2
REMARK    2  A    between atoms: O_2  and  C_3
REMARK    3  A    between atoms: C_6  and  C_9
REMARK    4  A    between atoms: C_19  and  N_23
REMARK    5  A    between atoms: C_24  and  C_26
REMARK    6  A    between atoms: C_26  and  N_27
REMARK                            x       y       z     vdW  Elec       q    Type
REMARK                         _______ _______ _______ _____ _____    ______ ____
ROOT
ATOM      1  C   UNL     1      -5.390  -2.725   0.176  0.00  0.00    +0.104 A 
ATOM      2  C   UNL     1      -5.625  -3.943  -0.505  0.00  0.00    +0.075 A 
ATOM      3  C   UNL     1      -6.956  -4.281  -0.297  0.00  0.00    +0.078 A 
ATOM      4  N   UNL     1      -7.500  -3.315   0.472  0.00  0.00    -0.276 N 
ATOM      5  N   UNL     1      -6.515  -2.364   0.759  0.00  0.00    -0.173 NA
ATOM      6  H   UNL     1      -8.421  -3.286   0.778  0.00  0.00    +0.189 HD
ATOM      7  C   UNL     1      -7.242  -5.556  -0.998  0.00  0.00    +0.013 A 
ATOM      8  C   UNL     1      -8.396  -6.317  -1.108  0.00  0.00    +0.011 A 
ATOM      9  C   UNL     1      -8.389  -7.496  -1.842  0.00  0.00    +0.002 A 
ATOM     10  C   UNL     1      -7.239  -7.924  -2.468  0.00  0.00    +0.024 A 
ATOM     11  C   UNL     1      -6.065  -7.173  -2.370  0.00  0.00    +0.045 A 
ATOM     12  C   UNL     1      -6.064  -5.988  -1.635  0.00  0.00    +0.053 A 
ATOM     13  C   UNL     1      -5.010  -4.989  -1.346  0.00  0.00    +0.200 C 
ATOM     14  O   UNL     1      -3.857  -5.023  -1.730  0.00  0.00    -0.286 OA
ENDROOT
BRANCH   1  18
ATOM     15  C   UNL     1      -1.703  -0.613   0.329  0.00  0.00    +0.120 A 
ATOM     16  C   UNL     1      -2.901   0.088   0.298  0.00  0.00    +0.046 A 
ATOM     17  C   UNL     1      -4.099  -0.594   0.248  0.00  0.00    +0.013 A 
ATOM     18  C   UNL     1      -4.105  -1.988   0.229  0.00  0.00    +0.003 A 
ATOM     19  C   UNL     1      -2.900  -2.689   0.260  0.00  0.00    +0.013 A 
ATOM     20  C   UNL     1      -1.705  -2.001   0.305  0.00  0.00    +0.046 A 
BRANCH  15  22
ATOM     21  C   UNL     1      -0.595   1.489   0.400  0.00  0.00    +0.277 C 
ATOM     22  O   UNL     1      -0.525   0.062   0.378  0.00  0.00    -0.495 OA
ENDBRANCH  15  22
ENDBRANCH   1  18
BRANCH  11  23
ATOM     23  N   UNL     1      -4.904  -7.605  -3.002  0.00  0.00    -0.284 N 
ATOM     24  C   UNL     1      -4.653  -8.924  -3.123  0.00  0.00    +0.231 C 
ATOM     25  O   UNL     1      -5.481  -9.734  -2.764  0.00  0.00    -0.274 OA
ATOM     26  H   UNL     1      -4.275  -6.957  -3.357  0.00  0.00    +0.155 HD
BRANCH  24  27
ATOM     27  C   UNL     1      -3.344  -9.392  -3.704  0.00  0.00    +0.180 C 
BRANCH  27  28
ATOM     28  N   UNL     1      -3.316 -10.860  -3.728  0.00  0.00    -0.291 NA
ATOM     29  C   UNL     1      -3.318 -11.409  -2.365  0.00  0.00    +0.104 C 
ATOM     30  C   UNL     1      -3.471 -12.932  -2.431  0.00  0.00    +0.123 C 
ATOM     31  N   UNL     1      -2.425 -13.469  -3.316  0.00  0.00    -0.303 N 
ATOM     32  C   UNL     1      -2.272 -12.873  -4.652  0.00  0.00    +0.123 C 
ATOM     33  C   UNL     1      -2.166 -11.352  -4.498  0.00  0.00    +0.104 C 
ATOM     34  C   UNL     1      -1.617 -14.494  -2.907  0.00  0.00    +0.151 C 
ATOM     35  N   UNL     1      -0.340 -14.525  -3.281  0.00  0.00    -0.375 N 
ATOM     36  N   UNL     1      -2.109 -15.461  -2.135  0.00  0.00    -0.333 N 
ATOM     37  H   UNL     1       0.001 -13.859  -3.899  0.00  0.00    +0.158 HD
ATOM     38  H   UNL     1      -3.056 -15.480  -1.924  0.00  0.00    +0.145 HD
ATOM     39  H   UNL     1      -1.520 -16.147  -1.783  0.00  0.00    +0.145 HD
ATOM     40  H   UNL     1       0.250 -15.214  -2.937  0.00  0.00    +0.158 HD
ENDBRANCH  27  28
ENDBRANCH  24  27
ENDBRANCH  11  23
TORSDOF 5
