REMARK  Name = CHEMBL439514
REMARK  5 active torsions:
REMARK  status: ('A' for Active; 'I' for Inactive)
REMARK    1  A    between atoms: C_1  and  C_2
REMARK    2  A    between atoms: C_2  and  C_3
REMARK    3  A    between atoms: C_2  and  N_4
REMARK    4  A    between atoms: C_14  and  N_15
REMARK    5  A    between atoms: C_16  and  C_18
REMARK                            x       y       z     vdW  Elec       q    Type
REMARK                         _______ _______ _______ _____ _____    ______ ____
ROOT
ATOM      1  N   UNL     1      -1.372  -0.511   0.012  0.00  0.00    -0.297 N 
ATOM      2  C   UNL     1      -1.643  -1.734  -0.485  0.00  0.00    +0.303 C 
ATOM      3  O   UNL     1      -0.747  -2.417  -0.942  0.00  0.00    -0.253 OA
ATOM      4  N   UNL     1      -2.908  -2.201  -0.475  0.00  0.00    -0.275 N 
ATOM      5  C   UNL     1      -3.358  -3.505  -0.971  0.00  0.00    +0.150 C 
ATOM      6  C   UNL     1      -4.847  -3.589  -0.756  0.00  0.00    +0.034 A 
ATOM      7  C   UNL     1      -5.281  -2.403  -0.162  0.00  0.00    +0.087 A 
ATOM      8  N   UNL     1      -6.576  -2.484   0.023  0.00  0.00    -0.175 NA
ATOM      9  N   UNL     1      -7.014  -3.727  -0.449  0.00  0.00    -0.263 N 
ATOM     10  H   UNL     1      -7.928  -4.053  -0.437  0.00  0.00    +0.190 HD
ATOM     11  C   UNL     1      -5.932  -4.395  -0.925  0.00  0.00    +0.126 A 
ATOM     12  C   UNL     1      -4.089  -1.502   0.039  0.00  0.00    +0.167 C 
ATOM     13  H   UNL     1      -2.087   0.033   0.377  0.00  0.00    +0.150 HD
ENDROOT
BRANCH  11  14
ATOM     14  N   UNL     1      -5.932  -5.672  -1.485  0.00  0.00    -0.266 N 
ATOM     15  C   UNL     1      -7.086  -6.361  -1.592  0.00  0.00    +0.249 C 
ATOM     16  O   UNL     1      -8.126  -5.869  -1.200  0.00  0.00    -0.270 OA
ATOM     17  H   UNL     1      -5.102  -6.064  -1.798  0.00  0.00    +0.157 HD
BRANCH  15  18
ATOM     18  C   UNL     1      -7.085  -7.713  -2.184  0.00  0.00    +0.041 A 
ATOM     19  C   UNL     1      -5.890  -8.282  -2.630  0.00  0.00    +0.017 A 
ATOM     20  C   UNL     1      -5.892  -9.543  -3.183  0.00  0.00    +0.050 A 
ATOM     21  C   UNL     1      -7.079 -10.254  -3.300  0.00  0.00    +0.166 A 
ATOM     22  C   UNL     1      -8.277  -9.691  -2.857  0.00  0.00    +0.167 A 
ATOM     23  C   UNL     1      -8.280  -8.429  -2.296  0.00  0.00    +0.062 A 
ATOM     24  O   UNL     1      -9.286 -10.582  -3.083  0.00  0.00    -0.453 OA
ATOM     25  C   UNL     1      -8.761 -11.522  -4.038  0.00  0.00    +0.466 C 
ATOM     26  O   UNL     1      -7.341 -11.494  -3.802  0.00  0.00    -0.453 OA
ENDBRANCH  15  18
ENDBRANCH  11  14
BRANCH   1  28
ATOM     27  C   UNL     1      -0.019   1.526   0.010  0.00  0.00    +0.027 C 
ATOM     28  C   UNL     1       0.002  -0.004   0.002  0.00  0.00    +0.068 C 
ATOM     29  C   UNL     1       0.742  -0.511   1.242  0.00  0.00    +0.027 C 
ENDBRANCH   1  28
TORSDOF 3
