REMARK  Name = CHEMBL189657
REMARK  3 active torsions:
REMARK  status: ('A' for Active; 'I' for Inactive)
REMARK    1  A    between atoms: C_1  and  C_2
REMARK    2  A    between atoms: C_2  and  N_3
REMARK    3  A    between atoms: C_11  and  C_12
REMARK                            x       y       z     vdW  Elec       q    Type
REMARK                         _______ _______ _______ _____ _____    ______ ____
ROOT
ATOM      1  N   UNL     1       0.711  -0.489   1.189  0.00  0.00    -0.322 N 
ATOM      2  C   UNL     1       2.058  -0.738   1.289  0.00  0.00    +0.072 A 
ATOM      3  C   UNL     1       3.144  -0.644   0.425  0.00  0.00    +0.047 A 
ATOM      4  C   UNL     1       4.394  -0.992   0.889  0.00  0.00    +0.113 A 
ATOM      5  N   UNL     1       4.575  -1.409   2.131  0.00  0.00    -0.261 NA
ATOM      6  C   UNL     1       3.584  -1.517   2.990  0.00  0.00    +0.140 A 
ATOM      7  C   UNL     1       2.282  -1.186   2.607  0.00  0.00    +0.108 A 
ATOM      8  N   UNL     1       1.083  -1.189   3.234  0.00  0.00    -0.224 NA
ATOM      9  C   UNL     1       0.154  -0.774   2.408  0.00  0.00    +0.167 A 
ENDROOT
BRANCH   9  10
ATOM     10  C   UNL     1      -1.281  -0.637   2.741  0.00  0.00    +0.190 A 
ATOM     11  C   UNL     1      -1.895  -0.932   4.042  0.00  0.00    +0.191 A 
ATOM     12  N   UNL     1      -3.174  -0.693   3.955  0.00  0.00    -0.033 NA
ATOM     13  O   UNL     1      -3.447  -0.246   2.639  0.00  0.00    -0.240 OA
ATOM     14  N   UNL     1      -2.221  -0.228   1.928  0.00  0.00    -0.044 NA
ATOM     15  N   UNL     1      -1.228  -1.387   5.171  0.00  0.00    -0.339 N 
ATOM     16  H   UNL     1      -0.270  -1.537   5.141  0.00  0.00    +0.144 HD
ATOM     17  H   UNL     1      -1.719  -1.555   5.990  0.00  0.00    +0.144 HD
ENDBRANCH   9  10
BRANCH   1  19
ATOM     18  C   UNL     1      -0.019   1.526   0.010  0.00  0.00    +0.027 C 
ATOM     19  C   UNL     1       0.002  -0.004   0.002  0.00  0.00    +0.120 C 
ENDBRANCH   1  19
TORSDOF 2
