REMARK  Name = CHEMBL483590
REMARK  11 active torsions:
REMARK  status: ('A' for Active; 'I' for Inactive)
REMARK    1  A    between atoms: C_1  and  C_2
REMARK    2  A    between atoms: C_5  and  C_10
REMARK    3  A    between atoms: N_6  and  C_7
REMARK    4  A    between atoms: N_16  and  C_17
REMARK    5  A    between atoms: C_20  and  S_23
REMARK    6  A    between atoms: S_23  and  N_26
REMARK    7  A    between atoms: N_26  and  C_27
REMARK    8  A    between atoms: N_26  and  C_28
REMARK    9  A    between atoms: C_28  and  C_29
REMARK   10  A    between atoms: C_29  and  O_30
REMARK   11  A    between atoms: O_30  and  C_31
REMARK                            x       y       z     vdW  Elec       q    Type
REMARK                         _______ _______ _______ _____ _____    ______ ____
ROOT
ATOM      1  C   UNL     1       1.598  -3.790   1.483  0.00  0.00    +0.094 A 
ATOM      2  C   UNL     1       2.306  -3.615   2.679  0.00  0.00    +0.050 A 
ATOM      3  C   UNL     1       2.580  -4.728   3.450  0.00  0.00    +0.116 A 
ATOM      4  N   UNL     1       2.169  -5.919   3.040  0.00  0.00    -0.223 NA
ATOM      5  C   UNL     1       1.501  -6.057   1.904  0.00  0.00    +0.220 A 
ATOM      6  N   UNL     1       1.212  -5.018   1.136  0.00  0.00    -0.213 NA
ATOM      7  N   UNL     1       1.091  -7.320   1.512  0.00  0.00    -0.284 N 
ATOM      8  H   UNL     1       0.559  -7.430   0.707  0.00  0.00    +0.155 HD
ENDROOT
BRANCH   1  13
ATOM      9  C   UNL     1       1.393   0.870  -0.424  0.00  0.00    +0.084 C 
ATOM     10  C   UNL     1       1.185  -0.607  -0.212  0.00  0.00    +0.084 A 
ATOM     11  N   UNL     1       0.469  -1.390  -0.975  0.00  0.00    -0.349 N 
ATOM     12  C   UNL     1       0.503  -2.636  -0.495  0.00  0.00    +0.112 A 
ATOM     13  C   UNL     1       1.280  -2.632   0.624  0.00  0.00    +0.085 A 
ATOM     14  N   UNL     1       1.714  -1.335   0.792  0.00  0.00    -0.325 N 
ATOM     15  H   UNL     1      -0.014  -1.109  -1.768  0.00  0.00    +0.166 HD
BRANCH  14  16
ATOM     16  C   UNL     1       2.583  -0.841   1.863  0.00  0.00    +0.089 C 
ATOM     17  C   UNL     1       3.725   0.097   1.468  0.00  0.00    +0.027 C 
ATOM     18  C   UNL     1       4.028  -1.343   1.888  0.00  0.00    +0.027 C 
ENDBRANCH  14  16
ENDBRANCH   1  13
BRANCH   7  19
ATOM     19  C   UNL     1       1.442  -8.438   2.275  0.00  0.00    +0.034 A 
ATOM     20  C   UNL     1       1.502  -8.344   3.659  0.00  0.00    +0.025 A 
ATOM     21  C   UNL     1       1.849  -9.449   4.411  0.00  0.00    +0.030 A 
ATOM     22  C   UNL     1       2.136 -10.649   3.786  0.00  0.00    +0.106 A 
ATOM     23  C   UNL     1       2.077 -10.746   2.408  0.00  0.00    +0.030 A 
ATOM     24  C   UNL     1       1.725  -9.646   1.651  0.00  0.00    +0.025 A 
BRANCH  22  25
ATOM     25  S   UNL     1       2.578 -12.058   4.748  0.00  0.00    +0.061 S 
ATOM     26  O   UNL     1       3.329 -12.912   3.897  0.00  0.00    -0.153 OA
ATOM     27  O   UNL     1       3.092 -11.564   5.978  0.00  0.00    -0.153 OA
BRANCH  25  28
ATOM     28  N   UNL     1       1.177 -12.863   5.110  0.00  0.00    -0.177 NA
ATOM     29  C   UNL     1       0.677 -13.905   4.210  0.00  0.00    +0.131 C 
BRANCH  28  30
ATOM     30  C   UNL     1       0.436 -12.532   6.330  0.00  0.00    +0.137 C 
BRANCH  30  31
ATOM     31  C   UNL     1      -0.661 -11.518   6.002  0.00  0.00    +0.176 C 
BRANCH  31  32
ATOM     32  O   UNL     1      -1.620 -12.119   5.130  0.00  0.00    -0.382 OA
ATOM     33  C   UNL     1      -2.693 -11.252   4.760  0.00  0.00    +0.194 C 
ENDBRANCH  31  32
ENDBRANCH  30  31
ENDBRANCH  28  30
ENDBRANCH  25  28
ENDBRANCH  22  25
ENDBRANCH   7  19
TORSDOF 8
