REMARK  Name = CHEMBL82243
REMARK  7 active torsions:
REMARK  status: ('A' for Active; 'I' for Inactive)
REMARK    1  A    between atoms: C_1  and  C_2
REMARK    2  A    between atoms: C_2  and  C_3
REMARK    3  A    between atoms: C_3  and  C_4
REMARK    4  A    between atoms: C_4  and  O_5
REMARK    5  A    between atoms: O_5  and  C_6
REMARK    6  A    between atoms: C_7  and  C_15
REMARK    7  A    between atoms: C_15  and  C_17
REMARK                            x       y       z     vdW  Elec       q    Type
REMARK                         _______ _______ _______ _____ _____    ______ ____
ROOT
ATOM      1  C   UNL     1       1.650  -3.864   2.700  0.00  0.00    +0.145 A 
ATOM      2  C   UNL     1       0.690  -4.555   3.456  0.00  0.00    +0.083 A 
ATOM      3  C   UNL     1       0.971  -5.860   3.882  0.00  0.00    +0.128 A 
ATOM      4  N   UNL     1       2.107  -6.446   3.588  0.00  0.00    -0.235 NA
ATOM      5  C   UNL     1       3.052  -5.838   2.874  0.00  0.00    +0.159 A 
ATOM      6  N   UNL     1       4.291  -6.221   2.445  0.00  0.00    -0.260 N 
ATOM      7  N   UNL     1       4.871  -5.177   1.719  0.00  0.00    -0.180 NA
ATOM      8  C   UNL     1       4.059  -4.160   1.672  0.00  0.00    +0.148 A 
ATOM      9  C   UNL     1       2.851  -4.527   2.401  0.00  0.00    +0.081 A 
ATOM     10  H   UNL     1       4.703  -7.082   2.617  0.00  0.00    +0.191 HD
ENDROOT
BRANCH   2  11
ATOM     11  C   UNL     1      -0.594  -3.917   3.799  0.00  0.00    +0.205 C 
ATOM     12  O   UNL     1      -0.765  -2.733   3.570  0.00  0.00    -0.286 OA
BRANCH  11  13
ATOM     13  C   UNL     1      -1.663  -4.706   4.414  0.00  0.00    +0.060 A 
ATOM     14  C   UNL     1      -2.884  -4.281   4.920  0.00  0.00    +0.019 A 
ATOM     15  C   UNL     1      -3.689  -5.266   5.441  0.00  0.00    +0.008 A 
ATOM     16  C   UNL     1      -3.252  -6.550   5.428  0.00  0.00    +0.046 A 
ATOM     17  S   UNL     1      -1.740  -6.464   4.702  0.00  0.00    -0.093 S 
ENDBRANCH  11  13
ENDBRANCH   2  11
BRANCH   1  18
ATOM     18  O   UNL     1       1.423  -2.601   2.267  0.00  0.00    -0.490 OA
BRANCH  18  19
ATOM     19  C   UNL     1       0.795  -2.456   0.992  0.00  0.00    +0.229 C 
BRANCH  19  20
ATOM     20  C   UNL     1       0.622  -0.969   0.676  0.00  0.00    +0.041 C 
BRANCH  20  22
ATOM     21  C   UNL     1      -0.223   0.674  -1.006  0.00  0.00    +0.004 C 
ATOM     22  C   UNL     1      -0.050  -0.813  -0.690  0.00  0.00    -0.000 C 
ENDBRANCH  20  22
ENDBRANCH  19  20
ENDBRANCH  18  19
ENDBRANCH   1  18
TORSDOF 6
