REMARK  Name = CHEMBL269882
REMARK  4 active torsions:
REMARK  status: ('A' for Active; 'I' for Inactive)
REMARK    1  A    between atoms: C_3  and  S_24
REMARK    2  A    between atoms: C_6  and  N_7
REMARK    3  A    between atoms: N_7  and  N_8
REMARK    4  A    between atoms: S_24  and  N_27
REMARK                            x       y       z     vdW  Elec       q    Type
REMARK                         _______ _______ _______ _____ _____    ______ ____
ROOT
ATOM      1  N   UNL     1      -1.176  -2.010   0.003  0.00  0.00    -0.177 NA
ATOM      2  C   UNL     1      -2.306  -2.685   0.011  0.00  0.00    +0.153 C 
ATOM      3  C   UNL     1      -2.477  -4.150   0.010  0.00  0.00    +0.040 A 
ATOM      4  C   UNL     1      -3.843  -4.397   0.020  0.00  0.00    +0.044 A 
ATOM      5  C   UNL     1      -4.320  -5.718   0.022  0.00  0.00    +0.026 A 
ATOM      6  C   UNL     1      -3.499  -6.793   0.014  0.00  0.00    +0.032 A 
ATOM      7  C   UNL     1      -2.096  -6.637   0.005  0.00  0.00    +0.095 A 
ATOM      8  C   UNL     1      -1.542  -5.273   0.002  0.00  0.00    +0.049 A 
ATOM      9  C   UNL     1      -0.171  -5.407  -0.008  0.00  0.00    +0.133 A 
ATOM     10  N   UNL     1       0.117  -6.718  -0.012  0.00  0.00    -0.265 N 
ATOM     11  N   UNL     1      -1.067  -7.465  -0.004  0.00  0.00    -0.173 NA
ATOM     12  H   UNL     1       1.012  -7.093  -0.019  0.00  0.00    +0.190 HD
ATOM     13 CL   UNL     1       0.982  -4.109  -0.015  0.00  0.00    -0.062 Cl
ATOM     14  N   UNL     1      -4.526  -3.182   0.026  0.00  0.00    -0.280 N 
ATOM     15  C   UNL     1      -3.675  -2.142   0.028  0.00  0.00    +0.269 C 
ATOM     16  O   UNL     1      -3.981  -0.963   0.037  0.00  0.00    -0.268 OA
ATOM     17  H   UNL     1      -5.492  -3.098   0.033  0.00  0.00    +0.155 HD
ENDROOT
BRANCH   1  18
ATOM     18  N   UNL     1      -1.195  -0.720   0.010  0.00  0.00    -0.237 N 
ATOM     19  H   UNL     1      -2.043  -0.247   0.021  0.00  0.00    +0.174 HD
BRANCH  18  25
ATOM     20  C   UNL     1      -0.017   1.386   0.010  0.00  0.00    +0.026 A 
ATOM     21  C   UNL     1       1.171   2.091   0.002  0.00  0.00    +0.030 A 
ATOM     22  C   UNL     1       2.377   1.415  -0.013  0.00  0.00    +0.105 A 
ATOM     23  C   UNL     1       2.400   0.033  -0.021  0.00  0.00    +0.030 A 
ATOM     24  C   UNL     1       1.217  -0.679  -0.013  0.00  0.00    +0.026 A 
ATOM     25  C   UNL     1       0.002  -0.004   0.002  0.00  0.00    +0.048 A 
BRANCH  22  26
ATOM     26  S   UNL     1       3.890   2.319  -0.024  0.00  0.00    +0.056 S 
ATOM     27  O   UNL     1       4.872   1.462  -0.589  0.00  0.00    -0.153 OA
ATOM     28  O   UNL     1       3.594   3.599  -0.566  0.00  0.00    -0.153 OA
BRANCH  26  29
ATOM     29  N   UNL     1       4.326   2.563   1.555  0.00  0.00    -0.204 NA
ATOM     30  H   UNL     1       3.768   2.221   2.270  0.00  0.00    +0.144 HD
ATOM     31  H   UNL     1       5.140   3.047   1.764  0.00  0.00    +0.144 HD
ENDBRANCH  26  29
ENDBRANCH  22  26
ENDBRANCH  18  25
ENDBRANCH   1  18
TORSDOF 4
