REMARK  Name = CHEMBL215803
REMARK  2 active torsions:
REMARK  status: ('A' for Active; 'I' for Inactive)
REMARK    1  A    between atoms: C_1  and  C_2
REMARK    2  A    between atoms: C_12  and  O_32
REMARK                            x       y       z     vdW  Elec       q    Type
REMARK                         _______ _______ _______ _____ _____    ______ ____
ROOT
ATOM      1  C   UNL     1      -0.019   1.526   0.010  0.00  0.00    +0.024 C 
ATOM      2  C   UNL     1       0.002  -0.004   0.002  0.00  0.00    +0.057 C 
ATOM      3  C   UNL     1      -1.424  -0.543   0.174  0.00  0.00    +0.064 C 
ATOM      4  C   UNL     1      -1.396  -1.463   1.400  0.00  0.00    +0.189 C 
ATOM      5  C   UNL     1       0.066  -1.479   1.881  0.00  0.00    +0.129 C 
ATOM      6  N   UNL     1       0.803  -0.490   1.111  0.00  0.00    -0.294 NA
ATOM      7  C   UNL     1       1.597   0.462   1.828  0.00  0.00    +0.108 C 
ATOM      8  C   UNL     1       2.922  -0.137   2.299  0.00  0.00    +0.162 C 
ATOM      9  N   UNL     1       2.709  -0.927   3.511  0.00  0.00    -0.231 N 
ATOM     10  C   UNL     1       3.657  -1.265   4.401  0.00  0.00    +0.219 A 
ATOM     11  C   UNL     1       3.052  -2.033   5.393  0.00  0.00    +0.064 A 
ATOM     12  C   UNL     1       3.490  -2.671   6.569  0.00  0.00    +0.015 A 
ATOM     13  C   UNL     1       2.617  -3.378   7.339  0.00  0.00    +0.002 A 
ATOM     14  C   UNL     1       1.271  -3.511   7.019  0.00  0.00    +0.012 A 
ATOM     15  C   UNL     1       0.739  -2.917   5.887  0.00  0.00    +0.033 A 
ATOM     16  C   UNL     1       1.631  -2.133   5.024  0.00  0.00    +0.106 A 
ATOM     17  N   UNL     1       1.472  -1.450   3.912  0.00  0.00    -0.167 NA
ATOM     18  C   UNL     1      -0.682  -3.075   5.536  0.00  0.00    +0.138 A 
ATOM     19  C   UNL     1      -1.531  -3.986   6.325  0.00  0.00    +0.275 A 
ATOM     20  N   UNL     1      -2.829  -4.134   5.986  0.00  0.00    -0.319 N 
ATOM     21  C   UNL     1      -3.324  -3.421   4.905  0.00  0.00    +0.071 A 
ATOM     22  C   UNL     1      -4.653  -3.582   4.523  0.00  0.00    +0.028 A 
ATOM     23  C   UNL     1      -5.153  -2.869   3.451  0.00  0.00    +0.006 A 
ATOM     24  C   UNL     1      -4.341  -1.989   2.750  0.00  0.00    +0.048 A 
ATOM     25  C   UNL     1      -3.019  -1.813   3.109  0.00  0.00    +0.148 A 
ATOM     26  C   UNL     1      -2.486  -2.549   4.187  0.00  0.00    +0.130 A 
ATOM     27  N   UNL     1      -1.190  -2.412   4.522  0.00  0.00    -0.236 NA
ATOM     28  O   UNL     1      -2.237  -0.939   2.426  0.00  0.00    -0.485 OA
ATOM     29  O   UNL     1      -1.067  -4.596   7.270  0.00  0.00    -0.266 OA
ATOM     30  H   UNL     1      -3.405  -4.729   6.490  0.00  0.00    +0.169 HD
ENDROOT
BRANCH  10  31
ATOM     31  O   UNL     1       4.967  -0.922   4.343  0.00  0.00    -0.492 OA
ATOM     32  H   UNL     1       5.175  -0.089   4.788  0.00  0.00    +0.294 HD
ENDBRANCH  10  31
TORSDOF 1
