REMARK  Name = CHEMBL178452
REMARK  4 active torsions:
REMARK  status: ('A' for Active; 'I' for Inactive)
REMARK    1  A    between atoms: C_1  and  C_2
REMARK    2  A    between atoms: C_2  and  C_3
REMARK    3  A    between atoms: C_2  and  C_4
REMARK    4  A    between atoms: C_4  and  C_5
REMARK                            x       y       z     vdW  Elec       q    Type
REMARK                         _______ _______ _______ _____ _____    ______ ____
ROOT
ATOM      1  C   UNL     1      -0.042  -0.124   2.497  0.00  0.00    +0.042 C 
ATOM      2  C   UNL     1       0.767  -0.524   3.732  0.00  0.00    +0.048 C 
ATOM      3  C   UNL     1       0.662  -2.002   3.997  0.00  0.00    -0.002 A 
ATOM      4  C   UNL     1       1.542  -2.850   4.544  0.00  0.00    +0.109 A 
ATOM      5  N   UNL     1       0.967  -4.075   4.597  0.00  0.00    -0.284 N 
ATOM      6  H   UNL     1       1.376  -4.880   4.952  0.00  0.00    +0.188 HD
ATOM      7  N   UNL     1      -0.324  -3.978   4.048  0.00  0.00    -0.174 NA
ATOM      8  C   UNL     1      -0.507  -2.753   3.675  0.00  0.00    +0.099 A 
ATOM      9  C   UNL     1      -1.620  -2.050   2.994  0.00  0.00    +0.043 A 
ATOM     10  C   UNL     1      -1.385  -0.798   2.463  0.00  0.00    +0.049 A 
ATOM     11  N   UNL     1      -2.545  -0.370   1.948  0.00  0.00    -0.281 N 
ATOM     12  N   UNL     1      -3.501  -1.386   2.109  0.00  0.00    -0.181 NA
ATOM     13  H   UNL     1      -2.699   0.493   1.534  0.00  0.00    +0.189 HD
ATOM     14  C   UNL     1      -2.938  -2.395   2.732  0.00  0.00    +0.144 A 
ENDROOT
BRANCH   1  15
ATOM     15  C   UNL     1       0.742  -0.511   1.242  0.00  0.00    +0.013 C 
BRANCH  15  17
ATOM     16  C   UNL     1      -0.019   1.526   0.010  0.00  0.00    +0.007 C 
ATOM     17  C   UNL     1       0.002  -0.004   0.002  0.00  0.00    -0.017 C 
ATOM     18  C   UNL     1       0.718  -0.497  -1.257  0.00  0.00    +0.007 C 
ENDBRANCH  15  17
ENDBRANCH   1  15
TORSDOF 2
