REMARK  Name = CHEMBL194721
REMARK  3 active torsions:
REMARK  status: ('A' for Active; 'I' for Inactive)
REMARK    1  A    between atoms: C_5  and  N_7
REMARK    2  A    between atoms: C_9  and  C_24
REMARK    3  A    between atoms: N_14  and  C_15
REMARK                            x       y       z     vdW  Elec       q    Type
REMARK                         _______ _______ _______ _____ _____    ______ ____
ROOT
ATOM      1  N   UNL     1       1.209  -2.136  -0.353  0.00  0.00    -0.298 N 
ATOM      2  C   UNL     1       0.016  -2.835  -0.249  0.00  0.00    +0.140 A 
ATOM      3  C   UNL     1       0.002  -4.230  -0.334  0.00  0.00    +0.113 A 
ATOM      4  C   UNL     1      -1.209  -4.884  -0.225  0.00  0.00    +0.130 A 
ATOM      5  N   UNL     1      -2.315  -4.176  -0.045  0.00  0.00    -0.222 NA
ATOM      6  C   UNL     1      -2.272  -2.854   0.031  0.00  0.00    +0.221 A 
ATOM      7  N   UNL     1      -1.130  -2.189  -0.063  0.00  0.00    -0.199 NA
ATOM      8  N   UNL     1      -3.450  -2.150   0.219  0.00  0.00    -0.284 N 
ATOM      9  H   UNL     1       2.030  -2.607  -0.567  0.00  0.00    +0.154 HD
ATOM     10  H   UNL     1      -3.444  -1.180   0.200  0.00  0.00    +0.155 HD
ENDROOT
BRANCH   8  11
ATOM     11  C   UNL     1      -4.649  -2.838   0.437  0.00  0.00    +0.036 A 
ATOM     12  C   UNL     1      -5.846  -2.318  -0.054  0.00  0.00    +0.025 A 
ATOM     13  C   UNL     1      -7.024  -2.977   0.149  0.00  0.00    +0.031 A 
ATOM     14  C   UNL     1      -7.037  -4.183   0.855  0.00  0.00    +0.089 A 
ATOM     15  C   UNL     1      -5.833  -4.710   1.351  0.00  0.00    +0.068 A 
ATOM     16  C   UNL     1      -4.641  -4.034   1.133  0.00  0.00    +0.051 A 
ATOM     17  N   UNL     1      -6.166  -5.888   1.989  0.00  0.00    -0.344 N 
ATOM     18  C   UNL     1      -7.514  -6.045   1.871  0.00  0.00    +0.197 A 
ATOM     19  N   UNL     1      -8.023  -5.049   1.208  0.00  0.00    -0.236 NA
ATOM     20  H   UNL     1      -5.554  -6.492   2.438  0.00  0.00    +0.167 HD
ENDBRANCH   8  11
BRANCH   1  25
ATOM     21  C   UNL     1       0.240   1.223   0.783  0.00  0.00    +0.002 A 
ATOM     22  C   UNL     1       1.268   1.985   0.256  0.00  0.00    +0.002 A 
ATOM     23  C   UNL     1       2.275   1.381  -0.474  0.00  0.00    +0.022 A 
ATOM     24  C   UNL     1       2.259   0.015  -0.678  0.00  0.00    +0.062 A 
ATOM     25  C   UNL     1       1.229  -0.753  -0.148  0.00  0.00    +0.051 A 
ATOM     26  C   UNL     1       0.218  -0.143   0.583  0.00  0.00    +0.025 A 
ATOM     27 CL   UNL     1       3.525  -0.742  -1.594  0.00  0.00    -0.082 Cl
ENDBRANCH   1  25
BRANCH   3  28
ATOM     28  C   UNL     1       1.280  -5.002  -0.539  0.00  0.00    +0.422 C 
ATOM     29  F   UNL     1       0.994  -6.371  -0.588  0.00  0.00    -0.166 F 
ATOM     30  F   UNL     1       1.875  -4.607  -1.741  0.00  0.00    -0.166 F 
ATOM     31  F   UNL     1       2.155  -4.746   0.522  0.00  0.00    -0.166 F 
ENDBRANCH   3  28
TORSDOF 3
