REMARK  Name = CHEMBL147184
REMARK  6 active torsions:
REMARK  status: ('A' for Active; 'I' for Inactive)
REMARK    1  A    between atoms: C_1  and  N_2
REMARK    2  A    between atoms: N_5  and  C_8
REMARK    3  A    between atoms: C_8  and  C_9
REMARK    4  A    between atoms: N_11  and  C_12
REMARK    5  A    between atoms: C_25  and  C_26
REMARK    6  A    between atoms: C_29  and  N_32
REMARK                            x       y       z     vdW  Elec       q    Type
REMARK                         _______ _______ _______ _____ _____    ______ ____
ROOT
ATOM      1  C   UNL     1       0.529  -6.284   3.976  0.00  0.00    +0.045 A 
ATOM      2  C   UNL     1       0.941  -5.397   4.975  0.00  0.00    +0.024 A 
ATOM      3  C   UNL     1       1.515  -5.876   6.131  0.00  0.00    +0.002 A 
ATOM      4  C   UNL     1       1.692  -7.241   6.319  0.00  0.00    +0.011 A 
ATOM      5  C   UNL     1       1.291  -8.138   5.340  0.00  0.00    +0.013 A 
ATOM      6  C   UNL     1       0.698  -7.655   4.158  0.00  0.00    +0.053 A 
ATOM      7  C   UNL     1       0.371  -8.826   3.314  0.00  0.00    +0.200 C 
ATOM      8  O   UNL     1      -0.148  -8.803   2.216  0.00  0.00    -0.286 OA
ATOM      9  C   UNL     1       0.795 -10.028   4.059  0.00  0.00    +0.075 A 
ATOM     10  C   UNL     1       1.352  -9.617   5.264  0.00  0.00    +0.078 A 
ATOM     11  N   UNL     1       1.737 -10.728   5.928  0.00  0.00    -0.276 N 
ATOM     12  H   UNL     1       2.150 -10.749   6.805  0.00  0.00    +0.189 HD
ATOM     13  N   UNL     1       1.439 -11.845   5.140  0.00  0.00    -0.173 NA
ATOM     14  C   UNL     1       0.865 -11.442   4.025  0.00  0.00    +0.104 A 
ENDROOT
BRANCH  14  15
ATOM     15  C   UNL     1       0.397 -12.312   2.921  0.00  0.00    +0.003 A 
ATOM     16  C   UNL     1      -0.734 -11.958   2.184  0.00  0.00    +0.012 A 
ATOM     17  C   UNL     1      -1.167 -12.769   1.157  0.00  0.00    +0.024 A 
ATOM     18  C   UNL     1      -0.479 -13.938   0.856  0.00  0.00    +0.030 A 
ATOM     19  C   UNL     1       0.648 -14.293   1.589  0.00  0.00    +0.024 A 
ATOM     20  C   UNL     1       1.089 -13.483   2.612  0.00  0.00    +0.012 A 
BRANCH  18  21
ATOM     21  N   UNL     1      -0.920 -14.758  -0.184  0.00  0.00    -0.326 N 
ATOM     22  C   UNL     1      -0.288 -16.061  -0.442  0.00  0.00    +0.133 C 
ATOM     23  C   UNL     1      -1.389 -17.123  -0.534  0.00  0.00    +0.178 C 
ATOM     24  O   UNL     1      -2.375 -16.698  -1.479  0.00  0.00    -0.377 OA
ATOM     25  C   UNL     1      -3.049 -15.490  -1.117  0.00  0.00    +0.178 C 
ATOM     26  C   UNL     1      -2.036 -14.347  -1.051  0.00  0.00    +0.133 C 
ENDBRANCH  18  21
ENDBRANCH  14  15
BRANCH   1  29
ATOM     27  C   UNL     1       0.360  -4.627   2.287  0.00  0.00    +0.231 C 
ATOM     28  O   UNL     1       1.181  -3.956   2.876  0.00  0.00    -0.274 OA
ATOM     29  N   UNL     1      -0.052  -5.800   2.809  0.00  0.00    -0.284 N 
ATOM     30  H   UNL     1      -0.754  -6.306   2.370  0.00  0.00    +0.155 HD
BRANCH  27  31
ATOM     31  C   UNL     1      -0.198  -4.151   0.970  0.00  0.00    +0.180 C 
BRANCH  31  36
ATOM     32  C   UNL     1       2.359   0.270  -1.410  0.00  0.00    -0.096 C 
ATOM     33  N   UNL     1       1.769  -1.042  -1.111  0.00  0.00    +0.379 N 
ATOM     34  C   UNL     1       0.339  -0.880  -0.819  0.00  0.00    -0.064 C 
ATOM     35  C   UNL     1      -0.280  -2.249  -0.526  0.00  0.00    +0.066 C 
ATOM     36  N   UNL     1       0.406  -2.858   0.622  0.00  0.00    -0.298 NA
ATOM     37  C   UNL     1       1.844  -3.003   0.353  0.00  0.00    +0.066 C 
ATOM     38  C   UNL     1       2.445  -1.629   0.053  0.00  0.00    -0.064 C 
ATOM     39  H   UNL     1       1.883  -1.651  -1.908  0.00  0.00    -0.082 HD
ENDBRANCH  31  36
ENDBRANCH  27  31
ENDBRANCH   1  29
TORSDOF 5
