REMARK  Name = CHEMBL192556
REMARK  6 active torsions:
REMARK  status: ('A' for Active; 'I' for Inactive)
REMARK    1  A    between atoms: C_1  and  C_2
REMARK    2  A    between atoms: C_2  and  C_3
REMARK    3  A    between atoms: C_2  and  C_18
REMARK    4  A    between atoms: C_6  and  N_9
REMARK    5  A    between atoms: C_12  and  C_15
REMARK    6  A    between atoms: C_23  and  C_27
REMARK                            x       y       z     vdW  Elec       q    Type
REMARK                         _______ _______ _______ _____ _____    ______ ____
ROOT
ATOM      1  C   UNL     1      -1.412  -0.526   0.013  0.00  0.00    -0.036 A 
ATOM      2  C   UNL     1      -2.270  -0.213  -1.026  0.00  0.00    +0.006 A 
ATOM      3  C   UNL     1      -3.567  -0.690  -1.019  0.00  0.00    +0.024 A 
ATOM      4  C   UNL     1      -4.007  -1.484   0.032  0.00  0.00    +0.036 A 
ATOM      5  C   UNL     1      -3.143  -1.796   1.073  0.00  0.00    +0.024 A 
ATOM      6  C   UNL     1      -1.846  -1.320   1.058  0.00  0.00    +0.006 A 
ENDROOT
BRANCH   4   7
ATOM      7  N   UNL     1      -5.320  -1.968   0.042  0.00  0.00    -0.271 N 
ATOM      8  C   UNL     1      -5.850  -2.903   1.042  0.00  0.00    +0.115 C 
ATOM      9  C   UNL     1      -7.388  -2.806   0.922  0.00  0.00    +0.041 C 
ATOM     10  C   UNL     1      -7.561  -2.334  -0.541  0.00  0.00    +0.162 C 
ATOM     11  C   UNL     1      -6.260  -1.632  -0.859  0.00  0.00    +0.232 C 
ATOM     12  O   UNL     1      -6.088  -0.877  -1.792  0.00  0.00    -0.274 OA
BRANCH  10  13
ATOM     13  C   UNL     1      -8.716  -1.373  -0.651  0.00  0.00    +0.222 C 
ATOM     14  O   UNL     1      -9.356  -1.078   0.336  0.00  0.00    -0.275 OA
ATOM     15  N   UNL     1      -9.038  -0.841  -1.847  0.00  0.00    -0.329 N 
ATOM     16  H   UNL     1      -8.526  -1.077  -2.637  0.00  0.00    +0.145 HD
ATOM     17  H   UNL     1      -9.781  -0.223  -1.919  0.00  0.00    +0.145 HD
ENDBRANCH  10  13
ENDBRANCH   4   7
BRANCH   1  19
ATOM     18  C   UNL     1      -0.019   1.526  -0.007  0.00  0.00    +0.022 C 
ATOM     19  C   UNL     1       0.002  -0.004   0.002  0.00  0.00    +0.102 C 
BRANCH  19  20
ATOM     20  C   UNL     1       0.713  -0.504  -1.229  0.00  0.00    +0.225 C 
ATOM     21  O   UNL     1       0.129  -1.215  -2.020  0.00  0.00    -0.275 OA
ATOM     22  N   UNL     1       1.997  -0.163  -1.451  0.00  0.00    -0.268 N 
ATOM     23  C   UNL     1       2.658  -0.628  -2.596  0.00  0.00    +0.147 A 
ATOM     24  C   UNL     1       2.104  -1.448  -3.593  0.00  0.00    +0.068 A 
ATOM     25  C   UNL     1       3.059  -1.672  -4.523  0.00  0.00    +0.041 A 
ATOM     26  N   UNL     1       4.177  -1.022  -4.136  0.00  0.00    -0.280 N 
ATOM     27  H   UNL     1       5.021  -1.006  -4.612  0.00  0.00    +0.189 HD
ATOM     28  N   UNL     1       3.901  -0.369  -2.928  0.00  0.00    -0.158 NA
ATOM     29  H   UNL     1       2.465   0.406  -0.819  0.00  0.00    +0.156 HD
BRANCH  25  30
ATOM     30  C   UNL     1       2.904  -2.502  -5.772  0.00  0.00    +0.037 C 
ATOM     31  C   UNL     1       4.127  -3.280  -6.260  0.00  0.00    +0.010 C 
ATOM     32  C   UNL     1       3.653  -2.042  -7.024  0.00  0.00    +0.010 C 
ENDBRANCH  25  30
ENDBRANCH  19  20
ENDBRANCH   1  19
TORSDOF 5
