REMARK  Name = CHEMBL489477
REMARK  4 active torsions:
REMARK  status: ('A' for Active; 'I' for Inactive)
REMARK    1  A    between atoms: C_4  and  C_7
REMARK    2  A    between atoms: C_10  and  C_14
REMARK    3  A    between atoms: C_14  and  C_15
REMARK    4  A    between atoms: C_20  and  C_24
REMARK                            x       y       z     vdW  Elec       q    Type
REMARK                         _______ _______ _______ _____ _____    ______ ____
ROOT
ATOM      1  C   UNL     1       7.437  -2.766  -0.087  0.00  0.00    +0.131 C 
ENDROOT
BRANCH   1   2
ATOM      2  C   UNL     1       8.412  -2.067   0.825  0.00  0.00    +0.223 C 
ATOM      3  O   UNL     1       8.071  -1.073   1.430  0.00  0.00    -0.275 OA
ATOM      4  N   UNL     1       9.663  -2.547   0.968  0.00  0.00    -0.269 N 
ATOM      5  C   UNL     1      10.570  -1.897   1.816  0.00  0.00    +0.147 A 
ATOM      6  C   UNL     1      10.309  -0.746   2.578  0.00  0.00    +0.068 A 
ATOM      7  C   UNL     1      11.434  -0.434   3.259  0.00  0.00    +0.041 A 
ATOM      8  N   UNL     1      12.376  -1.349   2.944  0.00  0.00    -0.280 N 
ATOM      9  H   UNL     1      13.283  -1.374   3.285  0.00  0.00    +0.189 HD
ATOM     10  N   UNL     1      11.811  -2.260   2.042  0.00  0.00    -0.158 NA
ATOM     11  H   UNL     1       9.936  -3.342   0.484  0.00  0.00    +0.156 HD
BRANCH   7  12
ATOM     12  C   UNL     1      11.608   0.729   4.201  0.00  0.00    +0.037 C 
ATOM     13  C   UNL     1      12.986   1.391   4.260  0.00  0.00    +0.010 C 
ATOM     14  C   UNL     1      12.506   0.521   5.422  0.00  0.00    +0.010 C 
ENDBRANCH   7  12
ENDBRANCH   1   2
BRANCH   1  18
ATOM     15  C   UNL     1       3.699  -0.689  -0.037  0.00  0.00    +0.017 A 
ATOM     16  C   UNL     1       4.679  -0.343  -0.965  0.00  0.00    +0.011 A 
ATOM     17  C   UNL     1       5.884  -1.017  -0.976  0.00  0.00    +0.005 A 
ATOM     18  C   UNL     1       6.119  -2.035  -0.069  0.00  0.00    -0.036 A 
ATOM     19  C   UNL     1       5.151  -2.384   0.854  0.00  0.00    +0.043 A 
ATOM     20  C   UNL     1       3.942  -1.712   0.879  0.00  0.00    +0.131 A 
ATOM     21  F   UNL     1       2.999  -2.049   1.785  0.00  0.00    -0.205 F 
BRANCH  15  25
ATOM     22  C   UNL     1      -0.017   1.379   0.010  0.00  0.00    +0.000 A 
ATOM     23  C   UNL     1       1.169   2.092   0.002  0.00  0.00    +0.001 A 
ATOM     24  C   UNL     1       2.377   1.426  -0.013  0.00  0.00    +0.008 A 
ATOM     25  C   UNL     1       2.402   0.033  -0.021  0.00  0.00    -0.015 A 
ATOM     26  C   UNL     1       1.205  -0.680  -0.013  0.00  0.00    +0.008 A 
ATOM     27  C   UNL     1       0.002  -0.004   0.002  0.00  0.00    +0.001 A 
ENDBRANCH  15  25
ENDBRANCH   1  18
TORSDOF 4
