REMARK  Name = CHEMBL360480
REMARK  3 active torsions:
REMARK  status: ('A' for Active; 'I' for Inactive)
REMARK    1  A    between atoms: C_3  and  N_23
REMARK    2  A    between atoms: C_6  and  N_7
REMARK    3  A    between atoms: C_18  and  C_20
REMARK                            x       y       z     vdW  Elec       q    Type
REMARK                         _______ _______ _______ _____ _____    ______ ____
ROOT
ATOM      1  N   UNL     1      -1.202  -0.721   0.010  0.00  0.00    -0.231 N 
ATOM      2  C   UNL     1      -1.400  -1.900  -0.647  0.00  0.00    +0.086 A 
ATOM      3  C   UNL     1      -2.719  -2.284  -0.389  0.00  0.00    +0.033 A 
ATOM      4  C   UNL     1      -3.262  -3.468  -0.918  0.00  0.00    +0.014 A 
ATOM      5  C   UNL     1      -2.546  -4.300  -1.704  0.00  0.00    +0.031 A 
ATOM      6  C   UNL     1      -1.158  -3.988  -2.031  0.00  0.00    +0.095 A 
ATOM      7  C   UNL     1      -0.567  -2.753  -1.490  0.00  0.00    +0.046 A 
ATOM      8  C   UNL     1       0.730  -2.706  -1.949  0.00  0.00    +0.115 A 
ATOM      9  N   UNL     1       0.941  -3.796  -2.704  0.00  0.00    -0.284 N 
ATOM     10  N   UNL     1      -0.221  -4.576  -2.748  0.00  0.00    -0.174 NA
ATOM     11  H   UNL     1       1.774  -4.011  -3.152  0.00  0.00    +0.188 HD
ATOM     12  C   UNL     1      -3.244  -1.214   0.472  0.00  0.00    +0.155 A 
ATOM     13  N   UNL     1      -2.258  -0.356   0.640  0.00  0.00    -0.161 NA
ENDROOT
BRANCH   1  19
ATOM     14  C   UNL     1      -0.017   1.385   0.024  0.00  0.00    +0.029 A 
ATOM     15  C   UNL     1       1.169   2.091   0.016  0.00  0.00    +0.025 A 
ATOM     16  C   UNL     1       2.381   1.413  -0.013  0.00  0.00    +0.030 A 
ATOM     17  C   UNL     1       2.400   0.024  -0.035  0.00  0.00    +0.025 A 
ATOM     18  C   UNL     1       1.214  -0.682  -0.028  0.00  0.00    +0.029 A 
ATOM     19  C   UNL     1       0.002  -0.004   0.002  0.00  0.00    +0.066 A 
BRANCH  16  20
ATOM     20  N   UNL     1       3.582   2.128  -0.021  0.00  0.00    -0.326 N 
ATOM     21  C   UNL     1       4.877   1.435   0.067  0.00  0.00    +0.133 C 
ATOM     22  C   UNL     1       5.777   1.946  -1.065  0.00  0.00    +0.178 C 
ATOM     23  O   UNL     1       5.817   3.375  -1.024  0.00  0.00    -0.377 OA
ATOM     24  C   UNL     1       4.551   4.003  -1.240  0.00  0.00    +0.178 C 
ATOM     25  C   UNL     1       3.589   3.596  -0.124  0.00  0.00    +0.133 C 
ENDBRANCH  16  20
ENDBRANCH   1  19
BRANCH  12  26
ATOM     26  C   UNL     1      -4.601  -1.123   1.039  0.00  0.00    +0.262 C 
ATOM     27  O   UNL     1      -5.418  -1.994   0.806  0.00  0.00    -0.269 OA
ATOM     28  N   UNL     1      -4.938  -0.075   1.816  0.00  0.00    -0.324 N 
ATOM     29  H   UNL     1      -4.287   0.620   2.002  0.00  0.00    +0.145 HD
ATOM     30  H   UNL     1      -5.831  -0.015   2.190  0.00  0.00    +0.145 HD
ENDBRANCH  12  26
TORSDOF 3
