REMARK  Name = CHEMBL180431
REMARK  5 active torsions:
REMARK  status: ('A' for Active; 'I' for Inactive)
REMARK    1  A    between atoms: C_1  and  O_2
REMARK    2  A    between atoms: O_2  and  C_3
REMARK    3  A    between atoms: C_12  and  C_13
REMARK    4  A    between atoms: N_18  and  C_19
REMARK    5  A    between atoms: C_22  and  N_25
REMARK                            x       y       z     vdW  Elec       q    Type
REMARK                         _______ _______ _______ _____ _____    ______ ____
ROOT
ATOM      1  C   UNL     1       0.795  -0.597  -0.974  0.00  0.00    +0.126 A 
ATOM      2  C   UNL     1       1.086   0.173  -2.104  0.00  0.00    +0.046 A 
ATOM      3  C   UNL     1       1.495  -0.412  -3.263  0.00  0.00    +0.015 A 
ATOM      4  C   UNL     1       1.628  -1.808  -3.328  0.00  0.00    +0.019 A 
ATOM      5  C   UNL     1       2.047  -2.461  -4.500  0.00  0.00    +0.124 A 
ATOM      6  N   UNL     1       2.150  -3.773  -4.487  0.00  0.00    -0.222 NA
ATOM      7  C   UNL     1       1.867  -4.484  -3.397  0.00  0.00    +0.220 A 
ATOM      8  N   UNL     1       1.469  -3.928  -2.269  0.00  0.00    -0.214 NA
ATOM      9  C   UNL     1       1.335  -2.597  -2.185  0.00  0.00    +0.083 A 
ATOM     10  C   UNL     1       0.921  -1.969  -1.004  0.00  0.00    +0.023 A 
ATOM     11  N   UNL     1       1.994  -5.861  -3.450  0.00  0.00    -0.284 N 
ATOM     12  H   UNL     1       1.716  -6.403  -2.695  0.00  0.00    +0.155 HD
ENDROOT
BRANCH  11  13
ATOM     13  C   UNL     1       2.525  -6.472  -4.593  0.00  0.00    +0.034 A 
ATOM     14  C   UNL     1       3.587  -5.883  -5.266  0.00  0.00    +0.025 A 
ATOM     15  C   UNL     1       4.110  -6.485  -6.393  0.00  0.00    +0.025 A 
ATOM     16  C   UNL     1       3.574  -7.680  -6.854  0.00  0.00    +0.030 A 
ATOM     17  C   UNL     1       2.511  -8.270  -6.181  0.00  0.00    +0.025 A 
ATOM     18  C   UNL     1       1.992  -7.670  -5.051  0.00  0.00    +0.025 A 
BRANCH  16  19
ATOM     19  N   UNL     1       4.103  -8.290  -7.996  0.00  0.00    -0.333 N 
ATOM     20  C   UNL     1       3.479  -9.492  -8.570  0.00  0.00    +0.086 C 
ATOM     21  C   UNL     1       3.268  -9.261 -10.070  0.00  0.00    -0.063 C 
ATOM     22  N   UNL     1       4.544  -8.886 -10.691  0.00  0.00    +0.381 N 
ATOM     23  C   UNL     1       5.003  -7.598 -10.153  0.00  0.00    -0.063 C 
ATOM     24  C   UNL     1       5.297  -7.745  -8.661  0.00  0.00    +0.086 C 
ATOM     25  H   UNL     1       5.234  -9.595 -10.495  0.00  0.00    -0.086 HD
ATOM     26  H   UNL     1       4.421  -8.807 -11.690  0.00  0.00    -0.086 HD
ENDBRANCH  16  19
ENDBRANCH  11  13
BRANCH  10  27
ATOM     27  C   UNL     1       0.611  -2.787   0.223  0.00  0.00    +0.025 C 
ATOM     28  C   UNL     1      -0.836  -2.516   0.687  0.00  0.00    +0.008 C 
ATOM     29  C   UNL     1      -0.749  -2.542   2.234  0.00  0.00    +0.001 C 
ATOM     30  C   UNL     1       0.611  -1.856   2.512  0.00  0.00    +0.001 C 
ATOM     31  C   UNL     1       1.530  -2.368   1.383  0.00  0.00    +0.008 C 
ENDBRANCH  10  27
BRANCH   1  33
ATOM     32  C   UNL     1       0.277   1.438   0.137  0.00  0.00    +0.277 C 
ATOM     33  O   UNL     1       0.389   0.014   0.168  0.00  0.00    -0.495 OA
ENDBRANCH   1  33
TORSDOF 4
