REMARK  Name = CHEMBL192440
REMARK  6 active torsions:
REMARK  status: ('A' for Active; 'I' for Inactive)
REMARK    1  A    between atoms: C_1  and  C_2
REMARK    2  A    between atoms: C_2  and  C_3
REMARK    3  A    between atoms: C_2  and  C_21
REMARK    4  A    between atoms: C_6  and  N_9
REMARK    5  A    between atoms: C_10  and  C_15
REMARK    6  A    between atoms: C_26  and  C_30
REMARK                            x       y       z     vdW  Elec       q    Type
REMARK                         _______ _______ _______ _____ _____    ______ ____
ROOT
ATOM      1  C   UNL     1       0.707  -0.490  -1.238  0.00  0.00    -0.036 A 
ATOM      2  C   UNL     1       1.934   0.043  -1.587  0.00  0.00    +0.006 A 
ATOM      3  C   UNL     1       2.583  -0.400  -2.723  0.00  0.00    +0.024 A 
ATOM      4  C   UNL     1       2.003  -1.383  -3.514  0.00  0.00    +0.037 A 
ATOM      5  C   UNL     1       0.770  -1.917  -3.160  0.00  0.00    +0.024 A 
ATOM      6  C   UNL     1       0.129  -1.472  -2.021  0.00  0.00    +0.006 A 
ENDROOT
BRANCH   4   7
ATOM      7  N   UNL     1       2.658  -1.834  -4.665  0.00  0.00    -0.264 N 
ATOM      8  C   UNL     1       4.019  -1.442  -5.051  0.00  0.00    +0.112 C 
ATOM      9  C   UNL     1       4.466  -2.485  -6.099  0.00  0.00    +0.037 C 
ATOM     10  C   UNL     1       3.110  -2.959  -6.671  0.00  0.00    +0.098 C 
ATOM     11  C   UNL     1       2.123  -2.685  -5.558  0.00  0.00    +0.220 C 
ATOM     12  O   UNL     1       1.010  -3.163  -5.482  0.00  0.00    -0.275 OA
BRANCH   8  13
ATOM     13  C   UNL     1       4.932  -1.482  -3.853  0.00  0.00    -0.027 A 
ATOM     14  C   UNL     1       4.821  -2.509  -2.933  0.00  0.00    +0.005 A 
ATOM     15  C   UNL     1       5.659  -2.545  -1.834  0.00  0.00    +0.000 A 
ATOM     16  C   UNL     1       6.607  -1.556  -1.655  0.00  0.00    +0.000 A 
ATOM     17  C   UNL     1       6.719  -0.530  -2.575  0.00  0.00    +0.000 A 
ATOM     18  C   UNL     1       5.884  -0.496  -3.676  0.00  0.00    +0.005 A 
ENDBRANCH   8  13
ENDBRANCH   4   7
BRANCH   1  20
ATOM     19  C   UNL     1      -0.274   1.496  -0.123  0.00  0.00    +0.022 C 
ATOM     20  C   UNL     1       0.002  -0.004   0.002  0.00  0.00    +0.102 C 
BRANCH  20  21
ATOM     21  C   UNL     1       0.872  -0.257   1.206  0.00  0.00    +0.225 C 
ATOM     22  O   UNL     1       1.958  -0.780   1.071  0.00  0.00    -0.275 OA
ATOM     23  N   UNL     1       0.443   0.099   2.434  0.00  0.00    -0.268 N 
ATOM     24  C   UNL     1       1.252  -0.136   3.554  0.00  0.00    +0.147 A 
ATOM     25  C   UNL     1       2.526  -0.726   3.542  0.00  0.00    +0.068 A 
ATOM     26  C   UNL     1       2.973  -0.774   4.817  0.00  0.00    +0.041 A 
ATOM     27  N   UNL     1       2.021  -0.238   5.610  0.00  0.00    -0.280 N 
ATOM     28  H   UNL     1       2.070  -0.141   6.574  0.00  0.00    +0.189 HD
ATOM     29  N   UNL     1       0.953   0.161   4.796  0.00  0.00    -0.158 NA
ATOM     30  H   UNL     1      -0.426   0.517   2.542  0.00  0.00    +0.156 HD
BRANCH  26  31
ATOM     31  C   UNL     1       4.298  -1.329   5.273  0.00  0.00    +0.037 C 
ATOM     32  C   UNL     1       4.344  -2.015   6.640  0.00  0.00    +0.010 C 
ATOM     33  C   UNL     1       4.985  -0.639   6.452  0.00  0.00    +0.010 C 
ENDBRANCH  26  31
ENDBRANCH  20  21
ENDBRANCH   1  20
TORSDOF 5
