REMARK  Name = CHEMBL139653
REMARK  7 active torsions:
REMARK  status: ('A' for Active; 'I' for Inactive)
REMARK    1  A    between atoms: C_3  and  N_26
REMARK    2  A    between atoms: C_6  and  N_7
REMARK    3  A    between atoms: N_16  and  C_19
REMARK    4  A    between atoms: C_29  and  C_32
REMARK    5  A    between atoms: C_32  and  C_33
REMARK    6  A    between atoms: C_33  and  C_34
REMARK    7  A    between atoms: C_34  and  O_35
REMARK                            x       y       z     vdW  Elec       q    Type
REMARK                         _______ _______ _______ _____ _____    ______ ____
ROOT
ATOM      1  N   UNL     1      -1.240  -0.622   0.212  0.00  0.00    -0.284 N 
ATOM      2  C   UNL     1      -2.384  -0.068  -0.330  0.00  0.00    +0.221 A 
ATOM      3  N   UNL     1      -2.305   1.130  -0.899  0.00  0.00    -0.222 NA
ATOM      4  C   UNL     1      -3.368   1.705  -1.433  0.00  0.00    +0.126 A 
ATOM      5  C   UNL     1      -4.589   1.021  -1.388  0.00  0.00    +0.036 A 
ATOM      6  C   UNL     1      -5.811   1.583  -1.954  0.00  0.00    +0.018 A 
ATOM      7  C   UNL     1      -6.955   0.854  -1.868  0.00  0.00    +0.071 A 
ATOM      8  C   UNL     1      -6.944  -0.410  -1.246  0.00  0.00    +0.253 A 
ATOM      9  O   UNL     1      -7.981  -1.047  -1.179  0.00  0.00    -0.268 OA
ATOM     10  N   UNL     1      -5.821  -0.934  -0.722  0.00  0.00    -0.289 N 
ATOM     11  C   UNL     1      -4.634  -0.250  -0.775  0.00  0.00    +0.149 A 
ATOM     12  N   UNL     1      -3.515  -0.754  -0.269  0.00  0.00    -0.196 NA
ATOM     13  H   UNL     1      -1.257  -1.529   0.557  0.00  0.00    +0.155 HD
ENDROOT
BRANCH  10  14
ATOM     14  C   UNL     1      -5.867  -2.253  -0.087  0.00  0.00    +0.096 C 
ATOM     15  C   UNL     1      -6.035  -3.359  -1.153  0.00  0.00    +0.029 C 
ATOM     16  C   UNL     1      -4.758  -4.243  -1.008  0.00  0.00    -0.009 C 
ATOM     17  C   UNL     1      -4.944  -4.977   0.355  0.00  0.00    +0.004 C 
ATOM     18  C   UNL     1      -4.776  -3.871   1.421  0.00  0.00    +0.006 C 
ATOM     19  C   UNL     1      -4.505  -2.572   0.602  0.00  0.00    +0.012 C 
ATOM     20  C   UNL     1      -3.697  -3.157  -0.610  0.00  0.00    +0.009 C 
ENDBRANCH  10  14
BRANCH   1  26
ATOM     21  C   UNL     1      -0.111   1.497   0.466  0.00  0.00    +0.025 A 
ATOM     22  C   UNL     1       1.058   2.230   0.517  0.00  0.00    +0.023 A 
ATOM     23  C   UNL     1       2.280   1.599   0.367  0.00  0.00    +0.014 A 
ATOM     24  C   UNL     1       2.335   0.232   0.166  0.00  0.00    +0.023 A 
ATOM     25  C   UNL     1       1.169  -0.507   0.114  0.00  0.00    +0.025 A 
ATOM     26  C   UNL     1      -0.059   0.123   0.264  0.00  0.00    +0.034 A 
BRANCH  23  27
ATOM     27  N   UNL     1       3.461   2.345   0.418  0.00  0.00    -0.393 NA
ATOM     28  C   UNL     1       4.181   2.207  -0.854  0.00  0.00    +0.085 C 
ATOM     29  C   UNL     1       5.434   3.085  -0.833  0.00  0.00    +0.021 C 
ATOM     30  C   UNL     1       6.341   2.643   0.319  0.00  0.00    -0.008 C 
ATOM     31  C   UNL     1       5.556   2.721   1.632  0.00  0.00    +0.021 C 
ATOM     32  C   UNL     1       4.299   1.856   1.520  0.00  0.00    +0.085 C 
ATOM     33  H   UNL     1       3.238   3.317   0.572  0.00  0.00    +0.126 HD
BRANCH  30  34
ATOM     34  C   UNL     1       7.558   3.568   0.395  0.00  0.00    +0.006 C 
BRANCH  34  35
ATOM     35  C   UNL     1       8.524   3.052   1.463  0.00  0.00    +0.028 C 
BRANCH  35  36
ATOM     36  C   UNL     1       9.741   3.977   1.539  0.00  0.00    +0.156 C 
BRANCH  36  37
ATOM     37  O   UNL     1      10.643   3.495   2.537  0.00  0.00    -0.395 OA
ATOM     38  H   UNL     1      11.439   4.034   2.640  0.00  0.00    +0.209 HD
ENDBRANCH  36  37
ENDBRANCH  35  36
ENDBRANCH  34  35
ENDBRANCH  30  34
ENDBRANCH  23  27
ENDBRANCH   1  26
TORSDOF 7
