REMARK  Name = CHEMBL424469
REMARK  5 active torsions:
REMARK  status: ('A' for Active; 'I' for Inactive)
REMARK    1  A    between atoms: C_3  and  S_24
REMARK    2  A    between atoms: C_6  and  N_7
REMARK    3  A    between atoms: N_8  and  C_9
REMARK    4  A    between atoms: C_22  and  O_23
REMARK    5  A    between atoms: S_24  and  N_27
REMARK                            x       y       z     vdW  Elec       q    Type
REMARK                         _______ _______ _______ _____ _____    ______ ____
ROOT
ATOM      1  C   UNL     1      -2.308  -2.691   0.010  0.00  0.00    +0.157 A 
ATOM      2  C   UNL     1      -2.460  -4.155   0.009  0.00  0.00    +0.060 A 
ATOM      3  C   UNL     1      -3.834  -4.407   0.018  0.00  0.00    +0.054 A 
ATOM      4  C   UNL     1      -4.297  -5.725   0.020  0.00  0.00    +0.028 A 
ATOM      5  C   UNL     1      -3.420  -6.769   0.013  0.00  0.00    +0.031 A 
ATOM      6  C   UNL     1      -2.045  -6.543   0.003  0.00  0.00    +0.087 A 
ATOM      7  C   UNL     1      -1.547  -5.230   0.002  0.00  0.00    +0.124 A 
ATOM      8  N   UNL     1      -0.203  -5.301  -0.008  0.00  0.00    -0.129 NA
ATOM      9  N   UNL     1       0.180  -6.529  -0.013  0.00  0.00    -0.067 NA
ATOM     10  N   UNL     1      -0.944  -7.367  -0.005  0.00  0.00    -0.257 N 
ATOM     11  H   UNL     1      -0.946  -8.337  -0.006  0.00  0.00    +0.191 HD
ATOM     12  N   UNL     1      -4.490  -3.187   0.024  0.00  0.00    -0.324 N 
ATOM     13  H   UNL     1      -5.454  -3.077   0.031  0.00  0.00    +0.169 HD
ATOM     14  C   UNL     1      -3.593  -2.167   0.025  0.00  0.00    +0.219 A 
ENDROOT
BRANCH   1  16
ATOM     15  N   UNL     1      -1.171  -0.707   0.009  0.00  0.00    -0.149 NA
ATOM     16  N   UNL     1      -1.150  -1.997   0.002  0.00  0.00    -0.143 NA
BRANCH  15  22
ATOM     17  C   UNL     1      -0.017   1.393   0.010  0.00  0.00    +0.031 A 
ATOM     18  C   UNL     1       1.170   2.095   0.002  0.00  0.00    +0.030 A 
ATOM     19  C   UNL     1       2.378   1.420  -0.013  0.00  0.00    +0.105 A 
ATOM     20  C   UNL     1       2.404   0.036  -0.021  0.00  0.00    +0.030 A 
ATOM     21  C   UNL     1       1.225  -0.679  -0.014  0.00  0.00    +0.031 A 
ATOM     22  C   UNL     1       0.002  -0.004   0.002  0.00  0.00    +0.086 A 
BRANCH  19  23
ATOM     23  S   UNL     1       3.889   2.326  -0.023  0.00  0.00    +0.056 S 
ATOM     24  O   UNL     1       4.872   1.469  -0.587  0.00  0.00    -0.153 OA
ATOM     25  O   UNL     1       3.592   3.606  -0.564  0.00  0.00    -0.153 OA
BRANCH  23  26
ATOM     26  N   UNL     1       4.324   2.569   1.557  0.00  0.00    -0.204 NA
ATOM     27  H   UNL     1       3.765   2.226   2.272  0.00  0.00    +0.144 HD
ATOM     28  H   UNL     1       5.137   3.054   1.766  0.00  0.00    +0.144 HD
ENDBRANCH  23  26
ENDBRANCH  19  23
ENDBRANCH  15  22
ENDBRANCH   1  16
BRANCH  14  29
ATOM     29  O   UNL     1      -3.902  -0.850   0.036  0.00  0.00    -0.492 OA
ATOM     30  H   UNL     1      -4.001  -0.462  -0.844  0.00  0.00    +0.294 HD
ENDBRANCH  14  29
TORSDOF 5
