REMARK  Name = CHEMBL362109
REMARK  7 active torsions:
REMARK  status: ('A' for Active; 'I' for Inactive)
REMARK    1  A    between atoms: C_1  and  O_2
REMARK    2  A    between atoms: O_2  and  C_3
REMARK    3  A    between atoms: C_6  and  C_9
REMARK    4  A    between atoms: C_19  and  N_23
REMARK    5  A    between atoms: N_26  and  N_27
REMARK    6  A    between atoms: C_28  and  O_30
REMARK    7  A    between atoms: O_30  and  C_31
REMARK                            x       y       z     vdW  Elec       q    Type
REMARK                         _______ _______ _______ _____ _____    ______ ____
ROOT
ATOM      1  C   UNL     1       2.487  -2.504  -4.383  0.00  0.00    +0.077 A 
ATOM      2  C   UNL     1       3.370  -3.573  -4.321  0.00  0.00    +0.075 A 
ATOM      3  C   UNL     1       3.746  -3.885  -5.702  0.00  0.00    +0.105 A 
ATOM      4  N   UNL     1       3.112  -3.042  -6.479  0.00  0.00    -0.173 NA
ATOM      5  H   UNL     1       1.761  -1.478  -6.040  0.00  0.00    +0.189 HD
ATOM      6  N   UNL     1       2.328  -2.187  -5.699  0.00  0.00    -0.276 N 
ATOM      7  C   UNL     1       4.692  -5.028  -5.661  0.00  0.00    +0.015 A 
ATOM      8  C   UNL     1       5.351  -5.717  -6.672  0.00  0.00    +0.011 A 
ATOM      9  C   UNL     1       6.198  -6.768  -6.362  0.00  0.00    +0.002 A 
ATOM     10  C   UNL     1       6.398  -7.144  -5.050  0.00  0.00    +0.024 A 
ATOM     11  C   UNL     1       5.750  -6.468  -4.021  0.00  0.00    +0.046 A 
ATOM     12  C   UNL     1       4.890  -5.403  -4.321  0.00  0.00    +0.053 A 
ATOM     13  C   UNL     1       4.084  -4.521  -3.454  0.00  0.00    +0.200 C 
ATOM     14  O   UNL     1       4.021  -4.569  -2.240  0.00  0.00    -0.286 OA
ENDROOT
BRANCH   1  18
ATOM     15  C   UNL     1       0.616  -0.589  -1.087  0.00  0.00    +0.120 A 
ATOM     16  C   UNL     1       1.179   0.174  -2.103  0.00  0.00    +0.046 A 
ATOM     17  C   UNL     1       1.787  -0.443  -3.174  0.00  0.00    +0.013 A 
ATOM     18  C   UNL     1       1.837  -1.839  -3.238  0.00  0.00    +0.001 A 
ATOM     19  C   UNL     1       1.270  -2.602  -2.213  0.00  0.00    +0.013 A 
ATOM     20  C   UNL     1       0.669  -1.976  -1.143  0.00  0.00    +0.046 A 
BRANCH  15  22
ATOM     21  C   UNL     1      -0.000   1.452  -0.038  0.00  0.00    +0.277 C 
ATOM     22  O   UNL     1       0.018   0.024  -0.033  0.00  0.00    -0.495 OA
ENDBRANCH  15  22
ENDBRANCH   1  18
BRANCH  11  23
ATOM     23  N   UNL     1       5.953  -6.850  -2.698  0.00  0.00    -0.268 N 
ATOM     24  C   UNL     1       7.089  -7.484  -2.347  0.00  0.00    +0.320 C 
ATOM     25  O   UNL     1       7.979  -7.633  -3.161  0.00  0.00    -0.251 OA
ATOM     26  N   UNL     1       7.238  -7.955  -1.093  0.00  0.00    -0.215 N 
ATOM     27  H   UNL     1       5.278  -6.659  -2.029  0.00  0.00    +0.156 HD
ATOM     28  H   UNL     1       8.056  -8.412  -0.840  0.00  0.00    +0.174 HD
BRANCH  26  29
ATOM     29  N   UNL     1       6.212  -7.784  -0.154  0.00  0.00    -0.198 N 
ATOM     30  C   UNL     1       6.361  -8.254   1.101  0.00  0.00    +0.417 C 
ATOM     31  O   UNL     1       5.472  -8.105   1.915  0.00  0.00    -0.225 OA
ATOM     32  H   UNL     1       5.395  -7.327  -0.406  0.00  0.00    +0.176 HD
BRANCH  30  33
ATOM     33  O   UNL     1       7.496  -8.888   1.451  0.00  0.00    -0.453 OA
ATOM     34  C   UNL     1       7.586  -9.360   2.797  0.00  0.00    +0.282 C 
ENDBRANCH  30  33
ENDBRANCH  26  29
ENDBRANCH  11  23
TORSDOF 5
