REMARK  Name = CHEMBL609040
REMARK  1 active torsions:
REMARK  status: ('A' for Active; 'I' for Inactive)
REMARK    1  A    between atoms: C_19  and  O_21
REMARK                            x       y       z     vdW  Elec       q    Type
REMARK                         _______ _______ _______ _____ _____    ______ ____
ROOT
ATOM      1  C   UNL     1      -0.017   1.385   0.010  0.00  0.00    +0.004 A 
ATOM      2  C   UNL     1       1.159   2.100   0.002  0.00  0.00    +0.009 A 
ATOM      3  C   UNL     1       2.381   1.430  -0.013  0.00  0.00    -0.003 A 
ATOM      4  C   UNL     1       2.415   0.011  -0.021  0.00  0.00    +0.026 A 
ATOM      5  C   UNL     1       3.639  -0.700  -0.036  0.00  0.00    +0.036 A 
ATOM      6  C   UNL     1       4.832  -0.042  -0.042  0.00  0.00    +0.043 A 
ATOM      7  C   UNL     1       4.806   1.358  -0.034  0.00  0.00    +0.020 A 
ATOM      8  C   UNL     1       3.658   2.144  -0.021  0.00  0.00    +0.038 A 
ATOM      9  C   UNL     1       3.821   3.533  -0.017  0.00  0.00    +0.175 A 
ATOM     10  C   UNL     1       5.112   4.065  -0.024  0.00  0.00    +0.168 A 
ATOM     11  C   UNL     1       6.245   3.255  -0.035  0.00  0.00    +0.063 A 
ATOM     12  C   UNL     1       6.109   1.872  -0.041  0.00  0.00    +0.050 A 
ATOM     13  C   UNL     1       6.969   0.686  -0.054  0.00  0.00    +0.249 C 
ATOM     14  O   UNL     1       8.187   0.687  -0.063  0.00  0.00    -0.270 OA
ATOM     15  N   UNL     1       6.175  -0.415  -0.055  0.00  0.00    -0.281 N 
ATOM     16  O   UNL     1       5.012   5.430  -0.018  0.00  0.00    -0.453 OA
ATOM     17  C   UNL     1       3.663   5.720  -0.426  0.00  0.00    +0.466 C 
ATOM     18  O   UNL     1       2.924   4.557  -0.010  0.00  0.00    -0.452 OA
ATOM     19  C   UNL     1       1.195  -0.694  -0.013  0.00  0.00    +0.125 A 
ATOM     20  C   UNL     1       0.002  -0.004   0.002  0.00  0.00    +0.046 A 
ATOM     21  H   UNL     1       6.495  -1.330  -0.063  0.00  0.00    +0.155 HD
ENDROOT
BRANCH  19  22
ATOM     22  O   UNL     1       1.194  -2.052  -0.021  0.00  0.00    -0.506 OA
ATOM     23  H   UNL     1       1.203  -2.450   0.860  0.00  0.00    +0.292 HD
ENDBRANCH  19  22
TORSDOF 1
