REMARK  Name = CHEMBL327629
REMARK  12 active torsions:
REMARK  status: ('A' for Active; 'I' for Inactive)
REMARK    1  A    between atoms: C_1  and  C_2
REMARK    2  A    between atoms: C_2  and  C_3
REMARK    3  A    between atoms: C_2  and  N_4
REMARK    4  A    between atoms: C_12  and  N_13
REMARK    5  A    between atoms: N_13  and  C_14
REMARK    6  A    between atoms: C_14  and  C_15
REMARK    7  A    between atoms: N_24  and  C_25
REMARK    8  A    between atoms: N_24  and  C_28
REMARK    9  A    between atoms: C_25  and  C_26
REMARK   10  A    between atoms: C_26  and  O_27
REMARK   11  A    between atoms: C_28  and  C_29
REMARK   12  A    between atoms: C_29  and  O_30
REMARK                            x       y       z     vdW  Elec       q    Type
REMARK                         _______ _______ _______ _____ _____    ______ ____
ROOT
ATOM      1  N   UNL     1      -1.372  -0.511   0.012  0.00  0.00    -0.312 N 
ATOM      2  C   UNL     1      -2.313  -0.275   0.972  0.00  0.00    +0.201 A 
ATOM      3  N   UNL     1      -3.423  -0.878   0.664  0.00  0.00    -0.231 NA
ATOM      4  C   UNL     1      -3.267  -1.538  -0.510  0.00  0.00    +0.148 A 
ATOM      5  C   UNL     1      -1.952  -1.306  -0.944  0.00  0.00    +0.167 A 
ATOM      6  N   UNL     1      -1.542  -1.845  -2.088  0.00  0.00    -0.195 NA
ATOM      7  C   UNL     1      -2.362  -2.589  -2.813  0.00  0.00    +0.222 A 
ATOM      8  N   UNL     1      -3.612  -2.832  -2.442  0.00  0.00    -0.197 NA
ATOM      9  C   UNL     1      -4.101  -2.339  -1.310  0.00  0.00    +0.152 A 
ATOM     10  N   UNL     1      -1.898  -3.134  -3.999  0.00  0.00    -0.295 N 
ENDROOT
BRANCH   1  12
ATOM     11  C   UNL     1      -0.019   1.526   0.010  0.00  0.00    +0.030 C 
ATOM     12  C   UNL     1       0.002  -0.004   0.002  0.00  0.00    +0.084 C 
ATOM     13  C   UNL     1       0.742  -0.511   1.242  0.00  0.00    +0.030 C 
ENDBRANCH   1  12
BRANCH   9  14
ATOM     14  N   UNL     1      -5.407  -2.596  -0.932  0.00  0.00    -0.323 N 
ATOM     15  H   UNL     1      -5.757  -2.222  -0.108  0.00  0.00    +0.148 HD
BRANCH  14  16
ATOM     16  C   UNL     1      -6.263  -3.433  -1.778  0.00  0.00    +0.138 C 
BRANCH  16  17
ATOM     17  C   UNL     1      -7.626  -3.556  -1.147  0.00  0.00    -0.027 A 
ATOM     18  C   UNL     1      -7.884  -4.583  -0.258  0.00  0.00    +0.009 A 
ATOM     19  C   UNL     1      -9.133  -4.700   0.324  0.00  0.00    +0.050 A 
ATOM     20  C   UNL     1     -10.129  -3.788   0.016  0.00  0.00    +0.166 A 
ATOM     21  C   UNL     1      -9.869  -2.753  -0.879  0.00  0.00    +0.167 A 
ATOM     22  C   UNL     1      -8.613  -2.639  -1.454  0.00  0.00    +0.054 A 
ATOM     23  O   UNL     1     -10.998  -1.999  -1.014  0.00  0.00    -0.453 OA
ATOM     24  C   UNL     1     -12.070  -2.817  -0.509  0.00  0.00    +0.466 C 
ATOM     25  O   UNL     1     -11.421  -3.681   0.443  0.00  0.00    -0.453 OA
ENDBRANCH  16  17
ENDBRANCH  14  16
ENDBRANCH   9  14
BRANCH  10  26
ATOM     26  C   UNL     1      -2.784  -3.962  -4.821  0.00  0.00    +0.136 C 
BRANCH  26  27
ATOM     27  C   UNL     1      -3.532  -3.074  -5.818  0.00  0.00    +0.174 C 
BRANCH  27  28
ATOM     28  O   UNL     1      -2.599  -2.495  -6.733  0.00  0.00    -0.393 OA
ATOM     29  H   UNL     1      -3.004  -1.919  -7.395  0.00  0.00    +0.209 HD
ENDBRANCH  27  28
ENDBRANCH  26  27
ENDBRANCH  10  26
BRANCH  10  30
ATOM     30  C   UNL     1      -0.521  -2.881  -4.432  0.00  0.00    +0.136 C 
BRANCH  30  31
ATOM     31  C   UNL     1       0.397  -3.969  -3.872  0.00  0.00    +0.174 C 
BRANCH  31  32
ATOM     32  O   UNL     1       0.046  -5.230  -4.444  0.00  0.00    -0.393 OA
ATOM     33  H   UNL     1       0.589  -5.968  -4.134  0.00  0.00    +0.209 HD
ENDBRANCH  31  32
ENDBRANCH  30  31
ENDBRANCH  10  30
TORSDOF 10
