REMARK  Name = CHEMBL560102
REMARK  9 active torsions:
REMARK  status: ('A' for Active; 'I' for Inactive)
REMARK    1  A    between atoms: C_1  and  C_2
REMARK    2  A    between atoms: C_2  and  C_35
REMARK    3  A    between atoms: C_12  and  C_16
REMARK    4  A    between atoms: N_14  and  C_15
REMARK    5  A    between atoms: N_18  and  C_19
REMARK    6  A    between atoms: N_20  and  C_21
REMARK    7  A    between atoms: C_25  and  O_27
REMARK    8  A    between atoms: O_27  and  C_28
REMARK    9  A    between atoms: N_31  and  C_34
REMARK                            x       y       z     vdW  Elec       q    Type
REMARK                         _______ _______ _______ _____ _____    ______ ____
ROOT
ATOM      1  C   UNL     1      -0.613   1.330   1.595  0.00  0.00    +0.016 C 
ATOM      2  C   UNL     1      -0.486  -0.171   1.326  0.00  0.00    -0.001 C 
ATOM      3  C   UNL     1      -0.196  -0.399  -0.158  0.00  0.00    +0.050 C 
ATOM      4  C   UNL     1       0.279  -1.794  -0.440  0.00  0.00    -0.001 A 
ATOM      5  C   UNL     1      -0.065  -2.435  -1.616  0.00  0.00    +0.120 A 
ATOM      6  N   UNL     1       0.395  -3.656  -1.843  0.00  0.00    -0.222 NA
ATOM      7  C   UNL     1       1.179  -4.273  -0.969  0.00  0.00    +0.220 A 
ATOM      8  N   UNL     1       1.526  -3.702   0.177  0.00  0.00    -0.212 NA
ATOM      9  C   UNL     1       1.087  -2.487   0.472  0.00  0.00    +0.097 A 
ATOM     10  C   UNL     1       1.372  -1.828   1.758  0.00  0.00    +0.092 A 
ATOM     11  C   UNL     1       0.634  -0.732   2.153  0.00  0.00    +0.018 A 
ATOM     12  C   UNL     1       1.159  -0.349   3.388  0.00  0.00    +0.151 A 
ATOM     13  N   UNL     1       2.127  -1.206   3.681  0.00  0.00    -0.166 NA
ATOM     14  N   UNL     1       2.253  -2.084   2.744  0.00  0.00    -0.264 N 
ATOM     15  C   UNL     1       3.211  -3.193   2.752  0.00  0.00    +0.173 C 
ATOM     16  N   UNL     1       1.646  -5.545  -1.259  0.00  0.00    -0.283 N 
ATOM     17  C   UNL     1      -1.795  -0.868   1.701  0.00  0.00    +0.016 C 
ATOM     18  H   UNL     1       2.155  -6.037  -0.597  0.00  0.00    +0.155 HD
ENDROOT
BRANCH  16  19
ATOM     19  C   UNL     1       1.383  -6.118  -2.507  0.00  0.00    +0.037 A 
ATOM     20  C   UNL     1       1.293  -5.314  -3.637  0.00  0.00    +0.023 A 
ATOM     21  C   UNL     1       1.034  -5.880  -4.870  0.00  0.00    +0.005 A 
ATOM     22  C   UNL     1       0.863  -7.247  -4.983  0.00  0.00    +0.046 A 
ATOM     23  C   UNL     1       0.952  -8.055  -3.858  0.00  0.00    +0.123 A 
ATOM     24  C   UNL     1       1.217  -7.491  -2.620  0.00  0.00    +0.069 A 
BRANCH  23  25
ATOM     25  O   UNL     1       0.783  -9.399  -3.971  0.00  0.00    -0.489 OA
BRANCH  25  26
ATOM     26  C   UNL     1       0.779 -10.156  -2.759  0.00  0.00    +0.170 C 
ATOM     27  C   UNL     1       2.218 -10.499  -2.365  0.00  0.00    +0.026 C 
ATOM     28  C   UNL     1       2.203 -11.377  -1.111  0.00  0.00    -0.076 C 
ATOM     29  N   UNL     1       1.461 -12.613  -1.385  0.00  0.00    +0.378 N 
ATOM     30  C   UNL     1       0.061 -12.297  -1.694  0.00  0.00    -0.076 C 
ATOM     31  C   UNL     1      -0.005 -11.454  -2.970  0.00  0.00    +0.026 C 
ATOM     32  C   UNL     1       1.515 -13.486  -0.204  0.00  0.00    -0.096 C 
ATOM     33  H   UNL     1       1.879 -13.088  -2.171  0.00  0.00    -0.082 HD
ENDBRANCH  25  26
ENDBRANCH  23  25
ENDBRANCH  16  19
BRANCH  12  34
ATOM     34  C   UNL     1       0.721   0.796   4.212  0.00  0.00    +0.264 C 
ATOM     35  O   UNL     1      -0.326   0.736   4.827  0.00  0.00    -0.268 OA
ATOM     36  N   UNL     1       1.481   1.906   4.281  0.00  0.00    -0.313 N 
ATOM     37  C   UNL     1       1.046   3.042   5.098  0.00  0.00    +0.128 C 
ATOM     38  H   UNL     1       2.316   1.954   3.791  0.00  0.00    +0.149 HD
ENDBRANCH  12  34
TORSDOF 4
