REMARK  Name = CHEMBL188102
REMARK  6 active torsions:
REMARK  status: ('A' for Active; 'I' for Inactive)
REMARK    1  A    between atoms: C_1  and  C_2
REMARK    2  A    between atoms: C_2  and  C_3
REMARK    3  A    between atoms: C_7  and  C_11
REMARK    4  A    between atoms: C_11  and  C_12
REMARK    5  A    between atoms: C_12  and  C_13
REMARK    6  A    between atoms: N_19  and  C_21
REMARK                            x       y       z     vdW  Elec       q    Type
REMARK                         _______ _______ _______ _____ _____    ______ ____
ROOT
ATOM      1  C   UNL     1      -1.380  -0.744   0.023  0.00  0.00    +0.078 A 
ATOM      2  C   UNL     1      -2.117  -1.059   1.179  0.00  0.00    +0.106 A 
ATOM      3  C   UNL     1      -3.370  -1.534   0.759  0.00  0.00    +0.171 A 
ATOM      4  N   UNL     1      -4.271  -1.907   1.680  0.00  0.00    -0.214 NA
ATOM      5  C   UNL     1      -4.017  -1.843   2.955  0.00  0.00    +0.112 A 
ATOM      6  N   UNL     1      -2.836  -1.398   3.453  0.00  0.00    -0.310 N 
ATOM      7  C   UNL     1      -1.851  -0.995   2.616  0.00  0.00    +0.263 A 
ATOM      8  O   UNL     1      -0.784  -0.592   3.045  0.00  0.00    -0.267 OA
ATOM      9  N   UNL     1      -3.362  -1.496  -0.601  0.00  0.00    -0.211 N 
ATOM     10  N   UNL     1      -2.122  -0.998  -1.020  0.00  0.00    -0.169 NA
ATOM     11  H   UNL     1      -2.697  -1.370   4.412  0.00  0.00    +0.170 HD
ENDROOT
BRANCH   9  12
ATOM     12  C   UNL     1      -4.417  -1.883  -1.439  0.00  0.00    +0.104 A 
ATOM     13  C   UNL     1      -5.678  -1.323  -1.274  0.00  0.00    +0.069 A 
ATOM     14  C   UNL     1      -6.716  -1.707  -2.102  0.00  0.00    +0.042 A 
ATOM     15  C   UNL     1      -6.501  -2.647  -3.094  0.00  0.00    +0.044 A 
ATOM     16  C   UNL     1      -5.246  -3.206  -3.261  0.00  0.00    +0.042 A 
ATOM     17  C   UNL     1      -4.202  -2.822  -2.440  0.00  0.00    +0.069 A 
ATOM     18 CL   UNL     1      -2.626  -3.517  -2.655  0.00  0.00    -0.081 Cl
ATOM     19 CL   UNL     1      -7.808  -3.127  -4.132  0.00  0.00    -0.083 Cl
ATOM     20 CL   UNL     1      -5.950  -0.145  -0.029  0.00  0.00    -0.081 Cl
ENDBRANCH   9  12
BRANCH   1  22
ATOM     21  C   UNL     1      -0.020   1.330   0.026  0.00  0.00    +0.010 C 
ATOM     22  C   UNL     1       0.025  -0.199  -0.006  0.00  0.00    +0.055 C 
ENDBRANCH   1  22
BRANCH   5  23
ATOM     23  C   UNL     1      -5.086  -2.282   3.923  0.00  0.00    +0.080 C 
BRANCH  23  24
ATOM     24  C   UNL     1      -6.362  -2.628   3.152  0.00  0.00    +0.064 C 
BRANCH  24  25
ATOM     25  C   UNL     1      -7.445  -3.018   4.124  0.00  0.00    +0.059 A 
ATOM     26  C   UNL     1      -8.671  -2.468   4.205  0.00  0.00    +0.107 A 
ATOM     27  N   UNL     1      -9.330  -3.115   5.215  0.00  0.00    -0.351 N 
ATOM     28  H   UNL     1     -10.236  -2.942   5.515  0.00  0.00    +0.166 HD
ATOM     29  C   UNL     1      -8.483  -4.040   5.716  0.00  0.00    +0.196 A 
ATOM     30  N   UNL     1      -7.359  -3.979   5.055  0.00  0.00    -0.241 NA
ENDBRANCH  24  25
ENDBRANCH  23  24
ENDBRANCH   5  23
TORSDOF 5
