REMARK  Name = CHEMBL186846
REMARK  3 active torsions:
REMARK  status: ('A' for Active; 'I' for Inactive)
REMARK    1  A    between atoms: C_4  and  C_7
REMARK    2  A    between atoms: C_7  and  C_8
REMARK    3  A    between atoms: C_14  and  C_16
REMARK                            x       y       z     vdW  Elec       q    Type
REMARK                         _______ _______ _______ _____ _____    ______ ____
ROOT
ATOM      1  C   UNL     1       4.164  -0.959   1.377  0.00  0.00    +0.223 C 
ATOM      2  O   UNL     1       3.486  -0.579   2.308  0.00  0.00    -0.275 OA
ATOM      3  N   UNL     1       5.323  -1.607   1.608  0.00  0.00    -0.264 N 
ATOM      4  C   UNL     1       5.742  -1.840   2.913  0.00  0.00    +0.165 A 
ATOM      5  N   UNL     1       5.140  -1.510   4.035  0.00  0.00    -0.233 NA
ATOM      6  C   UNL     1       5.672  -1.805   5.207  0.00  0.00    +0.124 A 
ATOM      7  C   UNL     1       6.859  -2.460   5.198  0.00  0.00    +0.014 A 
ATOM      8  S   UNL     1       7.136  -2.620   3.441  0.00  0.00    -0.057 S 
ATOM      9  H   UNL     1       5.866  -1.911   0.864  0.00  0.00    +0.157 HD
ENDROOT
BRANCH   7  10
ATOM     10  C   UNL     1       7.707  -2.930   6.352  0.00  0.00    +0.027 C 
ATOM     11  C   UNL     1       7.873  -4.449   6.278  0.00  0.00    +0.009 C 
ATOM     12  C   UNL     1       8.734  -4.925   7.449  0.00  0.00    +0.001 C 
ATOM     13  C   UNL     1      10.109  -4.257   7.376  0.00  0.00    +0.000 C 
ATOM     14  C   UNL     1       9.942  -2.738   7.450  0.00  0.00    +0.001 C 
ATOM     15  C   UNL     1       9.081  -2.262   6.279  0.00  0.00    +0.009 C 
ENDBRANCH   7  10
BRANCH   1  16
ATOM     16  C   UNL     1       3.711  -0.707  -0.038  0.00  0.00    +0.131 C 
BRANCH  16  20
ATOM     17  C   UNL     1      -0.017   1.378   0.010  0.00  0.00    +0.000 A 
ATOM     18  C   UNL     1       1.171   2.086   0.002  0.00  0.00    +0.000 A 
ATOM     19  C   UNL     1       2.377   1.411  -0.013  0.00  0.00    +0.004 A 
ATOM     20  C   UNL     1       2.396   0.029  -0.020  0.00  0.00    -0.039 A 
ATOM     21  C   UNL     1       1.208  -0.679  -0.012  0.00  0.00    +0.004 A 
ATOM     22  C   UNL     1       0.002  -0.004   0.002  0.00  0.00    +0.000 A 
ENDBRANCH  16  20
ENDBRANCH   1  16
TORSDOF 3
