REMARK  Name = CHEMBL490481
REMARK  6 active torsions:
REMARK  status: ('A' for Active; 'I' for Inactive)
REMARK    1  A    between atoms: C_3  and  C_6
REMARK    2  A    between atoms: C_6  and  C_7
REMARK    3  A    between atoms: C_10  and  C_13
REMARK    4  A    between atoms: C_13  and  C_14
REMARK    5  A    between atoms: N_16  and  C_17
REMARK    6  A    between atoms: C_19  and  C_23
REMARK                            x       y       z     vdW  Elec       q    Type
REMARK                         _______ _______ _______ _____ _____    ______ ____
ROOT
ATOM      1  C   UNL     1       5.627   2.469   5.409  0.00  0.00    +0.131 C 
ENDROOT
BRANCH   1   5
ATOM      2  C   UNL     1       4.247   2.008   1.393  0.00  0.00    -0.043 A 
ATOM      3  C   UNL     1       4.061   3.208   2.054  0.00  0.00    +0.004 A 
ATOM      4  C   UNL     1       4.507   3.357   3.354  0.00  0.00    +0.004 A 
ATOM      5  C   UNL     1       5.139   2.306   3.992  0.00  0.00    -0.039 A 
ATOM      6  C   UNL     1       5.325   1.107   3.331  0.00  0.00    +0.004 A 
ATOM      7  C   UNL     1       4.875   0.956   2.033  0.00  0.00    +0.004 A 
BRANCH   2   8
ATOM      8  C   UNL     1       3.761   1.845  -0.024  0.00  0.00    +0.077 C 
BRANCH   8  11
ATOM      9  C   UNL     1      -0.016   1.351   0.009  0.00  0.00    +0.008 A 
ATOM     10  C   UNL     1       1.183   2.038   0.002  0.00  0.00    +0.011 A 
ATOM     11  C   UNL     1       2.343   1.336  -0.013  0.00  0.00    -0.006 A 
ATOM     12  S   UNL     1       1.754  -0.349  -0.017  0.00  0.00    -0.101 S 
ATOM     13  C   UNL     1       0.002  -0.004   0.002  0.00  0.00    +0.045 A 
ENDBRANCH   8  11
ENDBRANCH   2   8
ENDBRANCH   1   5
BRANCH   1  14
ATOM     14  C   UNL     1       4.536   2.063   6.366  0.00  0.00    +0.223 C 
ATOM     15  O   UNL     1       3.467   1.679   5.939  0.00  0.00    -0.275 OA
ATOM     16  N   UNL     1       4.747   2.127   7.695  0.00  0.00    -0.270 N 
ATOM     17  H   UNL     1       5.601   2.434   8.036  0.00  0.00    +0.156 HD
BRANCH  16  18
ATOM     18  C   UNL     1       3.737   1.751   8.581  0.00  0.00    +0.120 A 
ATOM     19  C   UNL     1       2.497   1.303   8.242  0.00  0.00    +0.068 A 
ATOM     20  C   UNL     1       1.801   1.037   9.425  0.00  0.00    +0.068 A 
ATOM     21  N   UNL     1       2.586   1.312  10.435  0.00  0.00    -0.177 NA
ATOM     22  H   UNL     1       4.583   2.028  10.457  0.00  0.00    +0.190 HD
ATOM     23  N   UNL     1       3.814   1.759   9.931  0.00  0.00    -0.264 N 
BRANCH  20  24
ATOM     24  C   UNL     1       0.388   0.523   9.521  0.00  0.00    +0.040 C 
ATOM     25  C   UNL     1      -0.488   0.625   8.270  0.00  0.00    +0.010 C 
ATOM     26  C   UNL     1      -0.744   1.551   9.461  0.00  0.00    +0.010 C 
ENDBRANCH  20  24
ENDBRANCH  16  18
ENDBRANCH   1  14
TORSDOF 6
