REMARK  Name = CHEMBL269882
REMARK  4 active torsions:
REMARK  status: ('A' for Active; 'I' for Inactive)
REMARK    1  A    between atoms: C_3  and  S_24
REMARK    2  A    between atoms: C_6  and  N_7
REMARK    3  A    between atoms: N_7  and  N_8
REMARK    4  A    between atoms: S_24  and  N_27
REMARK                            x       y       z     vdW  Elec       q    Type
REMARK                         _______ _______ _______ _____ _____    ______ ____
ROOT
ATOM      1  N   UNL     1      -1.176  -2.010   0.003  0.00  0.00    -0.177 NA
ATOM      2  C   UNL     1      -2.305  -2.684   0.010  0.00  0.00    +0.153 C 
ATOM      3  C   UNL     1      -2.476  -4.153   0.009  0.00  0.00    +0.040 A 
ATOM      4  C   UNL     1      -3.849  -4.394   0.019  0.00  0.00    +0.044 A 
ATOM      5  C   UNL     1      -4.315  -5.711   0.020  0.00  0.00    +0.026 A 
ATOM      6  C   UNL     1      -3.438  -6.768   0.013  0.00  0.00    +0.029 A 
ATOM      7  C   UNL     1      -2.062  -6.547   0.004  0.00  0.00    +0.068 A 
ATOM      8  C   UNL     1      -1.568  -5.230   0.002  0.00  0.00    +0.049 A 
ATOM      9  C   UNL     1      -0.157  -5.320  -0.009  0.00  0.00    +0.159 A 
ATOM     10  N   UNL     1       0.182  -6.578  -0.012  0.00  0.00    -0.161 NA
ATOM     11  N   UNL     1      -0.968  -7.376  -0.004  0.00  0.00    -0.276 N 
ATOM     12  H   UNL     1      -0.989  -8.346  -0.004  0.00  0.00    +0.189 HD
ATOM     13 CL   UNL     1       0.942  -3.977  -0.016  0.00  0.00    -0.059 Cl
ATOM     14  N   UNL     1      -4.528  -3.178   0.025  0.00  0.00    -0.280 N 
ATOM     15  C   UNL     1      -3.674  -2.141   0.026  0.00  0.00    +0.269 C 
ATOM     16  O   UNL     1      -3.978  -0.961   0.036  0.00  0.00    -0.268 OA
ATOM     17  H   UNL     1      -5.494  -3.091   0.031  0.00  0.00    +0.155 HD
ENDROOT
BRANCH   1  18
ATOM     18  N   UNL     1      -1.196  -0.720   0.010  0.00  0.00    -0.237 N 
ATOM     19  H   UNL     1      -2.043  -0.247   0.020  0.00  0.00    +0.174 HD
BRANCH  18  25
ATOM     20  C   UNL     1      -0.017   1.386   0.010  0.00  0.00    +0.026 A 
ATOM     21  C   UNL     1       1.171   2.091   0.002  0.00  0.00    +0.030 A 
ATOM     22  C   UNL     1       2.377   1.415  -0.013  0.00  0.00    +0.105 A 
ATOM     23  C   UNL     1       2.400   0.033  -0.021  0.00  0.00    +0.030 A 
ATOM     24  C   UNL     1       1.217  -0.679  -0.013  0.00  0.00    +0.026 A 
ATOM     25  C   UNL     1       0.002  -0.004   0.002  0.00  0.00    +0.048 A 
BRANCH  22  26
ATOM     26  S   UNL     1       3.890   2.319  -0.023  0.00  0.00    +0.056 S 
ATOM     27  O   UNL     1       4.872   1.461  -0.588  0.00  0.00    -0.153 OA
ATOM     28  O   UNL     1       3.595   3.599  -0.565  0.00  0.00    -0.153 OA
BRANCH  26  29
ATOM     29  N   UNL     1       4.326   2.562   1.556  0.00  0.00    -0.204 NA
ATOM     30  H   UNL     1       5.263   2.631   1.795  0.00  0.00    +0.144 HD
ATOM     31  H   UNL     1       3.643   2.637   2.241  0.00  0.00    +0.144 HD
ENDBRANCH  26  29
ENDBRANCH  22  26
ENDBRANCH  18  25
ENDBRANCH   1  18
TORSDOF 4
