REMARK  Name = CHEMBL424469
REMARK  5 active torsions:
REMARK  status: ('A' for Active; 'I' for Inactive)
REMARK    1  A    between atoms: C_3  and  S_24
REMARK    2  A    between atoms: C_6  and  N_7
REMARK    3  A    between atoms: N_8  and  C_9
REMARK    4  A    between atoms: C_22  and  O_23
REMARK    5  A    between atoms: S_24  and  N_27
REMARK                            x       y       z     vdW  Elec       q    Type
REMARK                         _______ _______ _______ _____ _____    ______ ____
ROOT
ATOM      1  C   UNL     1       0.113  -2.534  -0.239  0.00  0.00    +0.157 A 
ATOM      2  C   UNL     1       0.304  -3.988  -0.366  0.00  0.00    +0.060 A 
ATOM      3  C   UNL     1       1.634  -4.241  -0.020  0.00  0.00    +0.054 A 
ATOM      4  C   UNL     1       2.120  -5.551  -0.045  0.00  0.00    +0.028 A 
ATOM      5  C   UNL     1       1.308  -6.586  -0.404  0.00  0.00    +0.031 A 
ATOM      6  C   UNL     1      -0.023  -6.358  -0.753  0.00  0.00    +0.087 A 
ATOM      7  C   UNL     1      -0.542  -5.054  -0.738  0.00  0.00    +0.124 A 
ATOM      8  N   UNL     1      -1.832  -5.122  -1.112  0.00  0.00    -0.129 NA
ATOM      9  N   UNL     1      -2.164  -6.340  -1.357  0.00  0.00    -0.067 NA
ATOM     10  N   UNL     1      -1.056  -7.175  -1.147  0.00  0.00    -0.257 N 
ATOM     11  H   UNL     1      -1.025  -8.138  -1.259  0.00  0.00    +0.191 HD
ATOM     12  N   UNL     1       2.228  -3.031   0.299  0.00  0.00    -0.324 N 
ATOM     13  H   UNL     1       3.152  -2.924   0.574  0.00  0.00    +0.169 HD
ATOM     14  C   UNL     1       1.335  -2.015   0.166  0.00  0.00    +0.219 A 
ENDROOT
BRANCH   1  16
ATOM     15  N   UNL     1      -1.519  -1.087   0.444  0.00  0.00    -0.149 NA
ATOM     16  N   UNL     1      -1.022  -1.843  -0.475  0.00  0.00    -0.143 NA
BRANCH  15  22
ATOM     17  C   UNL     1      -0.610  -2.026   2.452  0.00  0.00    +0.031 A 
ATOM     18  C   UNL     1       0.059  -1.855   3.646  0.00  0.00    +0.030 A 
ATOM     19  C   UNL     1       0.486  -0.596   4.030  0.00  0.00    +0.105 A 
ATOM     20  C   UNL     1       0.245   0.500   3.220  0.00  0.00    +0.030 A 
ATOM     21  C   UNL     1      -0.423   0.344   2.023  0.00  0.00    +0.031 A 
ATOM     22  C   UNL     1      -0.856  -0.924   1.629  0.00  0.00    +0.086 A 
BRANCH  19  23
ATOM     23  S   UNL     1       1.341  -0.387   5.556  0.00  0.00    +0.056 S 
ATOM     24  O   UNL     1       1.154   0.967   5.944  0.00  0.00    -0.153 OA
ATOM     25  O   UNL     1       0.961  -1.476   6.386  0.00  0.00    -0.153 OA
BRANCH  23  26
ATOM     26  N   UNL     1       2.956  -0.572   5.243  0.00  0.00    -0.204 NA
ATOM     27  H   UNL     1       3.257  -0.759   4.340  0.00  0.00    +0.144 HD
ATOM     28  H   UNL     1       3.602  -0.493   5.962  0.00  0.00    +0.144 HD
ENDBRANCH  23  26
ENDBRANCH  19  23
ENDBRANCH  15  22
ENDBRANCH   1  16
BRANCH  14  29
ATOM     29  O   UNL     1       1.595  -0.708   0.395  0.00  0.00    -0.492 OA
ATOM     30  H   UNL     1       1.532  -0.451   1.325  0.00  0.00    +0.294 HD
ENDBRANCH  14  29
TORSDOF 5
