REMARK  Name = CHEMBL318999
REMARK  7 active torsions:
REMARK  status: ('A' for Active; 'I' for Inactive)
REMARK    1  A    between atoms: C_3  and  S_25
REMARK    2  A    between atoms: C_6  and  N_7
REMARK    3  A    between atoms: C_11  and  N_22
REMARK    4  A    between atoms: C_12  and  O_14
REMARK    5  A    between atoms: O_14  and  C_15
REMARK    6  A    between atoms: C_15  and  C_16
REMARK    7  A    between atoms: S_25  and  N_28
REMARK                            x       y       z     vdW  Elec       q    Type
REMARK                         _______ _______ _______ _____ _____    ______ ____
ROOT
ATOM      1  N   UNL     1      -1.205  -0.721   0.005  0.00  0.00    -0.283 N 
ATOM      2  C   UNL     1      -1.184  -2.091  -0.104  0.00  0.00    +0.224 A 
ATOM      3  N   UNL     1      -0.008  -2.700  -0.077  0.00  0.00    -0.197 NA
ATOM      4  C   UNL     1       0.095  -4.019  -0.176  0.00  0.00    +0.154 A 
ATOM      5  C   UNL     1      -1.147  -4.799  -0.317  0.00  0.00    +0.208 A 
ATOM      6  C   UNL     1      -2.408  -4.041  -0.338  0.00  0.00    +0.251 A 
ATOM      7  N   UNL     1      -2.343  -2.725  -0.223  0.00  0.00    -0.177 NA
ATOM      8  N   UNL     1       1.320  -4.637  -0.147  0.00  0.00    -0.341 N 
ATOM      9  H   UNL     1      -2.051  -0.252   0.068  0.00  0.00    +0.155 HD
ATOM     10  H   UNL     1       2.121  -4.117   0.020  0.00  0.00    +0.144 HD
ATOM     11  H   UNL     1       1.384  -5.593  -0.295  0.00  0.00    +0.144 HD
ENDROOT
BRANCH   1  17
ATOM     12  C   UNL     1       1.084  -0.448  -0.715  0.00  0.00    +0.025 A 
ATOM     13  C   UNL     1       2.267   0.264  -0.695  0.00  0.00    +0.030 A 
ATOM     14  C   UNL     1       2.368   1.418   0.060  0.00  0.00    +0.105 A 
ATOM     15  C   UNL     1       1.286   1.864   0.796  0.00  0.00    +0.030 A 
ATOM     16  C   UNL     1       0.100   1.157   0.780  0.00  0.00    +0.025 A 
ATOM     17  C   UNL     1      -0.005  -0.003   0.023  0.00  0.00    +0.034 A 
BRANCH  14  18
ATOM     18  S   UNL     1       3.880   2.324   0.083  0.00  0.00    +0.056 S 
ATOM     19  O   UNL     1       3.890   3.067   1.294  0.00  0.00    -0.153 OA
ATOM     20  O   UNL     1       4.909   1.404  -0.255  0.00  0.00    -0.153 OA
BRANCH  18  21
ATOM     21  N   UNL     1       3.808   3.428  -1.149  0.00  0.00    -0.204 NA
ATOM     22  H   UNL     1       3.022   3.473  -1.715  0.00  0.00    +0.144 HD
ATOM     23  H   UNL     1       4.553   4.029  -1.305  0.00  0.00    +0.144 HD
ENDBRANCH  18  21
ENDBRANCH  14  18
ENDBRANCH   1  17
BRANCH   5  24
ATOM     24  N   UNL     1      -1.129  -6.118  -0.422  0.00  0.00    -0.022 NA
ATOM     25  O   UNL     1      -2.174  -6.744  -0.417  0.00  0.00    -0.143 OA
ENDBRANCH   5  24
BRANCH   6  26
ATOM     26  O   UNL     1      -3.596  -4.671  -0.464  0.00  0.00    -0.474 OA
BRANCH  26  27
ATOM     27  C   UNL     1      -4.766  -3.852  -0.473  0.00  0.00    +0.234 C 
BRANCH  27  28
ATOM     28  C   UNL     1      -6.006  -4.735  -0.623  0.00  0.00    +0.027 C 
ATOM     29  C   UNL     1      -5.981  -5.421  -1.991  0.00  0.00    +0.007 C 
ATOM     30  C   UNL     1      -7.221  -6.305  -2.141  0.00  0.00    +0.000 C 
ATOM     31  C   UNL     1      -8.479  -5.442  -2.026  0.00  0.00    +0.000 C 
ATOM     32  C   UNL     1      -8.505  -4.756  -0.659  0.00  0.00    +0.000 C 
ATOM     33  C   UNL     1      -7.265  -3.872  -0.508  0.00  0.00    +0.007 C 
ENDBRANCH  27  28
ENDBRANCH  26  27
ENDBRANCH   6  26
TORSDOF 7
