REMARK  Name = CHEMBL345525
REMARK  6 active torsions:
REMARK  status: ('A' for Active; 'I' for Inactive)
REMARK    1  A    between atoms: C_1  and  N_2
REMARK    2  A    between atoms: N_5  and  N_8
REMARK    3  A    between atoms: N_11  and  C_12
REMARK    4  A    between atoms: C_25  and  C_26
REMARK    5  A    between atoms: C_29  and  O_32
REMARK    6  A    between atoms: O_32  and  C_33
REMARK                            x       y       z     vdW  Elec       q    Type
REMARK                         _______ _______ _______ _____ _____    ______ ____
ROOT
ATOM      1  C   UNL     1      -2.367  -4.459   4.324  0.00  0.00    +0.046 A 
ATOM      2  C   UNL     1      -2.392  -5.853   4.421  0.00  0.00    +0.024 A 
ATOM      3  C   UNL     1      -3.038  -6.461   5.473  0.00  0.00    +0.002 A 
ATOM      4  C   UNL     1      -3.671  -5.701   6.449  0.00  0.00    +0.011 A 
ATOM      5  C   UNL     1      -3.658  -4.317   6.372  0.00  0.00    +0.013 A 
ATOM      6  C   UNL     1      -2.995  -3.688   5.301  0.00  0.00    +0.053 A 
ATOM      7  C   UNL     1      -3.140  -2.226   5.484  0.00  0.00    +0.200 C 
ATOM      8  O   UNL     1      -2.701  -1.359   4.754  0.00  0.00    -0.286 OA
ATOM      9  C   UNL     1      -3.919  -2.021   6.722  0.00  0.00    +0.075 A 
ATOM     10  C   UNL     1      -4.235  -3.268   7.246  0.00  0.00    +0.078 A 
ATOM     11  N   UNL     1      -4.950  -3.060   8.373  0.00  0.00    -0.276 N 
ATOM     12  N   UNL     1      -5.102  -1.681   8.557  0.00  0.00    -0.173 NA
ATOM     13  H   UNL     1      -5.299  -3.751   8.957  0.00  0.00    +0.189 HD
ATOM     14  C   UNL     1      -4.478  -1.048   7.584  0.00  0.00    +0.104 A 
ENDROOT
BRANCH   1  18
ATOM     15  N   UNL     1      -1.165  -3.783   0.992  0.00  0.00    -0.232 N 
ATOM     16  C   UNL     1      -1.719  -4.421   2.042  0.00  0.00    +0.318 C 
ATOM     17  O   UNL     1      -2.223  -5.518   1.891  0.00  0.00    -0.251 OA
ATOM     18  N   UNL     1      -1.714  -3.845   3.260  0.00  0.00    -0.268 N 
ATOM     19  H   UNL     1      -1.169  -4.199   0.116  0.00  0.00    +0.171 HD
ATOM     20  H   UNL     1      -1.256  -3.001   3.396  0.00  0.00    +0.156 HD
BRANCH  15  25
ATOM     21  C   UNL     1       1.388   1.103   0.517  0.00  0.00    -0.096 C 
ATOM     22  N   UNL     1       0.794  -0.220   0.281  0.00  0.00    +0.380 N 
ATOM     23  C   UNL     1      -0.642  -0.173   0.586  0.00  0.00    -0.062 C 
ATOM     24  C   UNL     1      -1.264  -1.546   0.323  0.00  0.00    +0.087 C 
ATOM     25  N   UNL     1      -0.599  -2.552   1.163  0.00  0.00    -0.229 NA
ATOM     26  C   UNL     1       0.844  -2.592   0.885  0.00  0.00    +0.087 C 
ATOM     27  C   UNL     1       1.449  -1.211   1.144  0.00  0.00    -0.062 C 
ATOM     28  H   UNL     1       0.923  -0.478  -0.686  0.00  0.00    -0.082 HD
ENDBRANCH  15  25
ENDBRANCH   1  18
BRANCH  14  29
ATOM     29  C   UNL     1      -4.399   0.421   7.410  0.00  0.00    +0.003 A 
ATOM     30  C   UNL     1      -3.256   0.999   6.859  0.00  0.00    +0.013 A 
ATOM     31  C   UNL     1      -3.186   2.366   6.697  0.00  0.00    +0.046 A 
ATOM     32  C   UNL     1      -4.252   3.168   7.083  0.00  0.00    +0.120 A 
ATOM     33  C   UNL     1      -5.392   2.596   7.632  0.00  0.00    +0.046 A 
ATOM     34  C   UNL     1      -5.471   1.229   7.790  0.00  0.00    +0.013 A 
BRANCH  32  35
ATOM     35  O   UNL     1      -4.179   4.515   6.924  0.00  0.00    -0.495 OA
ATOM     36  C   UNL     1      -5.312   5.280   7.342  0.00  0.00    +0.277 C 
ENDBRANCH  32  35
ENDBRANCH  14  29
TORSDOF 4
