REMARK  Name = CHEMBL82243
REMARK  7 active torsions:
REMARK  status: ('A' for Active; 'I' for Inactive)
REMARK    1  A    between atoms: C_1  and  C_2
REMARK    2  A    between atoms: C_2  and  C_3
REMARK    3  A    between atoms: C_3  and  C_4
REMARK    4  A    between atoms: C_4  and  O_5
REMARK    5  A    between atoms: O_5  and  C_6
REMARK    6  A    between atoms: C_7  and  C_15
REMARK    7  A    between atoms: C_15  and  C_17
REMARK                            x       y       z     vdW  Elec       q    Type
REMARK                         _______ _______ _______ _____ _____    ______ ____
ROOT
ATOM      1  C   UNL     1       1.647  -3.865   2.693  0.00  0.00    +0.145 A 
ATOM      2  C   UNL     1       0.695  -4.551   3.457  0.00  0.00    +0.083 A 
ATOM      3  C   UNL     1       0.961  -5.856   3.907  0.00  0.00    +0.128 A 
ATOM      4  N   UNL     1       2.079  -6.475   3.640  0.00  0.00    -0.233 NA
ATOM      5  C   UNL     1       3.053  -5.897   2.912  0.00  0.00    +0.185 A 
ATOM      6  N   UNL     1       4.246  -6.284   2.506  0.00  0.00    -0.154 NA
ATOM      7  N   UNL     1       4.835  -5.254   1.765  0.00  0.00    -0.282 N 
ATOM      8  C   UNL     1       4.006  -4.206   1.701  0.00  0.00    +0.118 A 
ATOM      9  C   UNL     1       2.857  -4.534   2.396  0.00  0.00    +0.081 A 
ATOM     10  H   UNL     1       5.714  -5.294   1.357  0.00  0.00    +0.188 HD
ENDROOT
BRANCH   2  11
ATOM     11  C   UNL     1      -0.584  -3.904   3.791  0.00  0.00    +0.205 C 
ATOM     12  O   UNL     1      -0.749  -2.721   3.553  0.00  0.00    -0.286 OA
BRANCH  11  13
ATOM     13  C   UNL     1      -1.661  -4.684   4.409  0.00  0.00    +0.060 A 
ATOM     14  C   UNL     1      -2.879  -4.250   4.911  0.00  0.00    +0.019 A 
ATOM     15  C   UNL     1      -3.691  -5.226   5.434  0.00  0.00    +0.008 A 
ATOM     16  C   UNL     1      -3.263  -6.513   5.427  0.00  0.00    +0.046 A 
ATOM     17  S   UNL     1      -1.749  -6.440   4.704  0.00  0.00    -0.093 S 
ENDBRANCH  11  13
ENDBRANCH   2  11
BRANCH   1  18
ATOM     18  O   UNL     1       1.415  -2.610   2.249  0.00  0.00    -0.490 OA
BRANCH  18  19
ATOM     19  C   UNL     1       0.782  -2.479   0.975  0.00  0.00    +0.229 C 
BRANCH  19  20
ATOM     20  C   UNL     1       0.603  -0.996   0.644  0.00  0.00    +0.041 C 
BRANCH  20  22
ATOM     21  C   UNL     1      -0.253   0.628  -1.051  0.00  0.00    +0.004 C 
ATOM     22  C   UNL     1      -0.074  -0.855  -0.721  0.00  0.00    -0.000 C 
ENDBRANCH  20  22
ENDBRANCH  19  20
ENDBRANCH  18  19
ENDBRANCH   1  18
TORSDOF 6
