REMARK  Name = CHEMBL186342
REMARK  2 active torsions:
REMARK  status: ('A' for Active; 'I' for Inactive)
REMARK    1  A    between atoms: C_9  and  N_11
REMARK    2  A    between atoms: C_18  and  C_20
REMARK                            x       y       z     vdW  Elec       q    Type
REMARK                         _______ _______ _______ _____ _____    ______ ____
ROOT
ATOM      1  N   UNL     1       1.203  -2.090  -0.022  0.00  0.00    -0.269 N 
ATOM      2  C   UNL     1       0.045  -2.771   0.087  0.00  0.00    +0.310 C 
ATOM      3  O   UNL     1      -1.013  -2.172   0.099  0.00  0.00    -0.252 OA
ATOM      4  N   UNL     1       0.060  -4.115   0.181  0.00  0.00    -0.248 N 
ATOM      5  C   UNL     1      -1.135  -4.817   0.293  0.00  0.00    +0.166 A 
ATOM      6  N   UNL     1      -2.362  -4.344   0.317  0.00  0.00    -0.233 NA
ATOM      7  C   UNL     1      -3.402  -5.149   0.428  0.00  0.00    +0.124 A 
ATOM      8  C   UNL     1      -3.146  -6.478   0.515  0.00  0.00    +0.014 A 
ATOM      9  S   UNL     1      -1.363  -6.479   0.422  0.00  0.00    -0.057 S 
ATOM     10  H   UNL     1       2.041  -2.570  -0.114  0.00  0.00    +0.156 HD
ATOM     11  H   UNL     1       0.904  -4.593   0.171  0.00  0.00    +0.158 HD
ENDROOT
BRANCH   1  20
ATOM     12  C   UNL     1       0.154   1.379   0.642  0.00  0.00    +0.002 A 
ATOM     13  C   UNL     1       1.151   2.107   0.062  0.00  0.00    +0.009 A 
ATOM     14  C   UNL     1       2.212   1.450  -0.575  0.00  0.00    -0.013 A 
ATOM     15  C   UNL     1       3.267   2.151  -1.189  0.00  0.00    +0.026 A 
ATOM     16  C   UNL     1       4.263   1.441  -1.787  0.00  0.00    +0.083 A 
ATOM     17  N   UNL     1       4.264   0.115  -1.804  0.00  0.00    -0.366 N 
ATOM     18  C   UNL     1       3.313  -0.604  -1.251  0.00  0.00    +0.092 A 
ATOM     19  C   UNL     1       2.241   0.031  -0.609  0.00  0.00    +0.019 A 
ATOM     20  C   UNL     1       1.197  -0.695  -0.001  0.00  0.00    +0.044 A 
ATOM     21  C   UNL     1       0.170  -0.011   0.616  0.00  0.00    +0.024 A 
ATOM     22  H   UNL     1       4.997  -0.344  -2.243  0.00  0.00    +0.165 HD
ENDBRANCH   1  20
BRANCH   8  23
ATOM     23  C   UNL     1      -4.102  -7.634   0.649  0.00  0.00    +0.027 C 
ATOM     24  C   UNL     1      -3.589  -8.755   1.569  0.00  0.00    +0.009 C 
ATOM     25  C   UNL     1      -4.176  -9.750   0.554  0.00  0.00    +0.001 C 
ATOM     26  C   UNL     1      -4.009  -8.647  -0.505  0.00  0.00    +0.009 C 
ENDBRANCH   8  23
TORSDOF 2
