REMARK  Name = CHEMBL404747
REMARK  3 active torsions:
REMARK  status: ('A' for Active; 'I' for Inactive)
REMARK    1  A    between atoms: C_4  and  C_7
REMARK    2  A    between atoms: C_7  and  C_8
REMARK    3  A    between atoms: C_14  and  N_21
REMARK                            x       y       z     vdW  Elec       q    Type
REMARK                         _______ _______ _______ _____ _____    ______ ____
ROOT
ATOM      1  C   UNL     1       4.192  -0.910   1.378  0.00  0.00    +0.223 C 
ATOM      2  O   UNL     1       3.511  -0.534   2.309  0.00  0.00    -0.275 OA
ATOM      3  N   UNL     1       5.346  -1.567   1.609  0.00  0.00    -0.268 N 
ATOM      4  C   UNL     1       5.758  -1.817   2.922  0.00  0.00    +0.154 A 
ATOM      5  C   UNL     1       6.982  -2.510   3.326  0.00  0.00    +0.043 A 
ATOM      6  C   UNL     1       8.041  -3.096   2.626  0.00  0.00    +0.037 A 
ATOM      7  C   UNL     1       9.075  -3.686   3.326  0.00  0.00    +0.037 A 
ATOM      8  C   UNL     1       9.064  -3.698   4.721  0.00  0.00    +0.025 A 
ATOM      9  C   UNL     1       8.036  -3.130   5.416  0.00  0.00    +0.029 A 
ATOM     10  C   UNL     1       6.981  -2.527   4.734  0.00  0.00    +0.068 A 
ATOM     11  N   UNL     1       5.835  -1.889   5.137  0.00  0.00    -0.275 N 
ATOM     12  H   UNL     1       5.564  -1.749   6.058  0.00  0.00    +0.189 HD
ATOM     13  N   UNL     1       5.122  -1.469   4.009  0.00  0.00    -0.157 NA
ATOM     14  H   UNL     1       5.890  -1.868   0.864  0.00  0.00    +0.156 HD
ENDROOT
BRANCH   7  15
ATOM     15  N   UNL     1      10.140  -4.275   2.632  0.00  0.00    -0.271 N 
ATOM     16  C   UNL     1      11.341  -4.826   3.271  0.00  0.00    +0.114 C 
ATOM     17  C   UNL     1      11.998  -5.729   2.203  0.00  0.00    +0.029 C 
ATOM     18  C   UNL     1      11.479  -5.096   0.891  0.00  0.00    +0.098 C 
ATOM     19  C   UNL     1      10.191  -4.413   1.296  0.00  0.00    +0.220 C 
ATOM     20  O   UNL     1       9.330  -4.042   0.526  0.00  0.00    -0.275 OA
ENDBRANCH   7  15
BRANCH   1  21
ATOM     21  C   UNL     1       3.748  -0.641  -0.037  0.00  0.00    +0.131 C 
BRANCH  21  25
ATOM     22  C   UNL     1       0.033   1.467   0.011  0.00  0.00    +0.000 A 
ATOM     23  C   UNL     1       1.225   2.167   0.016  0.00  0.00    +0.000 A 
ATOM     24  C   UNL     1       2.427   1.485   0.001  0.00  0.00    +0.004 A 
ATOM     25  C   UNL     1       2.437   0.102  -0.019  0.00  0.00    -0.039 A 
ATOM     26  C   UNL     1       1.245  -0.598  -0.024  0.00  0.00    +0.004 A 
ATOM     27  C   UNL     1       0.043   0.085  -0.010  0.00  0.00    +0.000 A 
ENDBRANCH  21  25
ENDBRANCH   1  21
TORSDOF 3
