REMARK  Name = CHEMBL192556
REMARK  6 active torsions:
REMARK  status: ('A' for Active; 'I' for Inactive)
REMARK    1  A    between atoms: C_1  and  C_2
REMARK    2  A    between atoms: C_2  and  C_3
REMARK    3  A    between atoms: C_2  and  C_18
REMARK    4  A    between atoms: C_6  and  N_9
REMARK    5  A    between atoms: C_12  and  C_15
REMARK    6  A    between atoms: C_23  and  C_27
REMARK                            x       y       z     vdW  Elec       q    Type
REMARK                         _______ _______ _______ _____ _____    ______ ____
ROOT
ATOM      1  C   UNL     1       0.707  -0.490  -1.238  0.00  0.00    -0.036 A 
ATOM      2  C   UNL     1       0.230  -0.137  -2.487  0.00  0.00    +0.006 A 
ATOM      3  C   UNL     1       0.874  -0.581  -3.625  0.00  0.00    +0.024 A 
ATOM      4  C   UNL     1       2.003  -1.382  -3.514  0.00  0.00    +0.036 A 
ATOM      5  C   UNL     1       2.480  -1.734  -2.259  0.00  0.00    +0.024 A 
ATOM      6  C   UNL     1       1.834  -1.284  -1.124  0.00  0.00    +0.006 A 
ENDROOT
BRANCH   4   7
ATOM      7  N   UNL     1       2.658  -1.834  -4.665  0.00  0.00    -0.271 N 
ATOM      8  C   UNL     1       3.918  -2.586  -4.660  0.00  0.00    +0.115 C 
ATOM      9  C   UNL     1       4.466  -2.481  -6.101  0.00  0.00    +0.041 C 
ATOM     10  C   UNL     1       3.172  -2.248  -6.915  0.00  0.00    +0.162 C 
ATOM     11  C   UNL     1       2.210  -1.640  -5.918  0.00  0.00    +0.232 C 
ATOM     12  O   UNL     1       1.185  -1.059  -6.207  0.00  0.00    -0.274 OA
BRANCH  10  13
ATOM     13  C   UNL     1       3.430  -1.296  -8.054  0.00  0.00    +0.222 C 
ATOM     14  O   UNL     1       4.539  -0.834  -8.219  0.00  0.00    -0.275 OA
ATOM     15  N   UNL     1       2.428  -0.958  -8.889  0.00  0.00    -0.329 N 
ATOM     16  H   UNL     1       1.540  -1.327  -8.757  0.00  0.00    +0.145 HD
ATOM     17  H   UNL     1       2.593  -0.345  -9.623  0.00  0.00    +0.145 HD
ENDBRANCH  10  13
ENDBRANCH   4   7
BRANCH   1  19
ATOM     18  C   UNL     1      -0.002   1.526   0.020  0.00  0.00    +0.022 C 
ATOM     19  C   UNL     1       0.002  -0.004   0.002  0.00  0.00    +0.102 C 
BRANCH  19  20
ATOM     20  C   UNL     1      -1.417  -0.510   0.003  0.00  0.00    +0.225 C 
ATOM     21  O   UNL     1      -1.817  -1.198  -0.912  0.00  0.00    -0.275 OA
ATOM     22  N   UNL     1      -2.243  -0.199   1.022  0.00  0.00    -0.268 N 
ATOM     23  C   UNL     1      -3.563  -0.669   1.023  0.00  0.00    +0.147 A 
ATOM     24  C   UNL     1      -4.153  -1.474   0.035  0.00  0.00    +0.068 A 
ATOM     25  C   UNL     1      -5.433  -1.710   0.402  0.00  0.00    +0.041 A 
ATOM     26  N   UNL     1      -5.650  -1.081   1.576  0.00  0.00    -0.280 N 
ATOM     27  H   UNL     1      -6.482  -1.077   2.076  0.00  0.00    +0.189 HD
ATOM     28  N   UNL     1      -4.463  -0.439   1.951  0.00  0.00    -0.158 NA
ATOM     29  H   UNL     1      -1.923   0.351   1.754  0.00  0.00    +0.156 HD
BRANCH  25  30
ATOM     30  C   UNL     1      -6.439  -2.530  -0.364  0.00  0.00    +0.037 C 
ATOM     31  C   UNL     1      -7.904  -2.095  -0.296  0.00  0.00    +0.010 C 
ATOM     32  C   UNL     1      -7.444  -3.352   0.445  0.00  0.00    +0.010 C 
ENDBRANCH  25  30
ENDBRANCH  19  20
ENDBRANCH   1  19
TORSDOF 5
