REMARK  Name = CHEMBL340259
REMARK  0 active torsions:
REMARK  status: ('A' for Active; 'I' for Inactive)
REMARK                            x       y       z     vdW  Elec       q    Type
REMARK                         _______ _______ _______ _____ _____    ______ ____
ROOT
ATOM      1  C   UNL     1      -0.017   1.374   0.010  0.00  0.00    +0.001 A 
ATOM      2  C   UNL     1       1.175   2.087   0.002  0.00  0.00    +0.002 A 
ATOM      3  C   UNL     1       2.387   1.429  -0.035  0.00  0.00    +0.026 A 
ATOM      4  C   UNL     1       2.414   0.038  -0.040  0.00  0.00    +0.050 A 
ATOM      5  C   UNL     1       1.218  -0.681   0.013  0.00  0.00    +0.008 A 
ATOM      6  C   UNL     1       0.002  -0.004   0.002  0.00  0.00    +0.010 A 
ATOM      7  C   UNL     1       1.605  -2.113   0.092  0.00  0.00    +0.013 A 
ATOM      8  C   UNL     1       2.958  -2.139  -0.019  0.00  0.00    +0.095 A 
ATOM      9  N   UNL     1       3.455  -0.875  -0.108  0.00  0.00    -0.344 N 
ATOM     10  C   UNL     1       4.839  -0.449  -0.258  0.00  0.00    +0.150 C 
ATOM     11  C   UNL     1       5.789  -1.606  -0.525  0.00  0.00    +0.181 C 
ATOM     12  O   UNL     1       7.130  -1.146  -0.323  0.00  0.00    -0.376 OA
ATOM     13  C   UNL     1       8.095  -1.739  -1.190  0.00  0.00    +0.188 C 
ATOM     14  C   UNL     1       8.711  -2.962  -0.499  0.00  0.00    +0.188 C 
ATOM     15  O   UNL     1       9.289  -3.822  -1.488  0.00  0.00    -0.375 OA
ATOM     16  C   UNL     1       9.031  -5.213  -1.266  0.00  0.00    +0.188 C 
ATOM     17  C   UNL     1       7.968  -5.692  -2.259  0.00  0.00    +0.188 C 
ATOM     18  O   UNL     1       7.000  -6.481  -1.572  0.00  0.00    -0.376 OA
ATOM     19  C   UNL     1       5.661  -5.973  -1.644  0.00  0.00    +0.181 C 
ATOM     20  C   UNL     1       4.703  -7.124  -1.362  0.00  0.00    +0.150 C 
ATOM     21  N   UNL     1       3.330  -6.680  -1.145  0.00  0.00    -0.344 N 
ATOM     22  C   UNL     1       2.894  -5.548  -0.530  0.00  0.00    +0.095 A 
ATOM     23  C   UNL     1       1.542  -5.502  -0.523  0.00  0.00    +0.013 A 
ATOM     24  C   UNL     1       1.085  -6.717  -1.252  0.00  0.00    +0.008 A 
ATOM     25  C   UNL     1       2.245  -7.428  -1.573  0.00  0.00    +0.050 A 
ATOM     26  C   UNL     1       2.141  -8.670  -2.192  0.00  0.00    +0.026 A 
ATOM     27  C   UNL     1       0.898  -9.161  -2.527  0.00  0.00    +0.002 A 
ATOM     28  C   UNL     1      -0.248  -8.428  -2.270  0.00  0.00    +0.001 A 
ATOM     29  C   UNL     1      -0.159  -7.199  -1.650  0.00  0.00    +0.010 A 
ATOM     30  C   UNL     1       0.573  -4.538   0.037  0.00  0.00    +0.059 C 
ATOM     31  C   UNL     1       0.610  -3.182   0.289  0.00  0.00    +0.059 C 
ATOM     32  C   UNL     1      -0.689  -2.872   0.968  0.00  0.00    +0.252 C 
ATOM     33  O   UNL     1      -0.996  -1.823   1.493  0.00  0.00    -0.270 OA
ATOM     34  N   UNL     1      -1.470  -3.950   0.937  0.00  0.00    -0.248 N 
ATOM     35  C   UNL     1      -0.784  -4.997   0.467  0.00  0.00    +0.252 C 
ATOM     36  O   UNL     1      -1.208  -6.134   0.438  0.00  0.00    -0.270 OA
ATOM     37  H   UNL     1      -2.400  -3.973   1.208  0.00  0.00    +0.158 HD
ENDROOT
TORSDOF 0
