REMARK  Name = CHEMBL188102
REMARK  6 active torsions:
REMARK  status: ('A' for Active; 'I' for Inactive)
REMARK    1  A    between atoms: C_1  and  C_2
REMARK    2  A    between atoms: C_2  and  C_3
REMARK    3  A    between atoms: C_7  and  C_11
REMARK    4  A    between atoms: C_11  and  C_12
REMARK    5  A    between atoms: C_12  and  C_13
REMARK    6  A    between atoms: N_19  and  C_21
REMARK                            x       y       z     vdW  Elec       q    Type
REMARK                         _______ _______ _______ _____ _____    ______ ____
ROOT
ATOM      1  C   UNL     1       0.672  -0.837  -1.193  0.00  0.00    +0.078 A 
ATOM      2  C   UNL     1       0.046  -1.105  -2.424  0.00  0.00    +0.106 A 
ATOM      3  C   UNL     1       1.043  -1.538  -3.313  0.00  0.00    +0.171 A 
ATOM      4  N   UNL     1       0.704  -1.861  -4.571  0.00  0.00    -0.214 NA
ATOM      5  C   UNL     1      -0.525  -1.786  -4.991  0.00  0.00    +0.112 A 
ATOM      6  N   UNL     1      -1.553  -1.379  -4.204  0.00  0.00    -0.310 N 
ATOM      7  C   UNL     1      -1.329  -1.028  -2.916  0.00  0.00    +0.263 A 
ATOM      8  O   UNL     1      -2.239  -0.660  -2.194  0.00  0.00    -0.267 OA
ATOM      9  N   UNL     1       2.215  -1.521  -2.621  0.00  0.00    -0.211 N 
ATOM     10  N   UNL     1       1.948  -1.079  -1.319  0.00  0.00    -0.169 NA
ATOM     11  H   UNL     1      -2.452  -1.341  -4.566  0.00  0.00    +0.170 HD
ENDROOT
BRANCH   9  12
ATOM     12  C   UNL     1       3.472  -1.880  -3.125  0.00  0.00    +0.104 A 
ATOM     13  C   UNL     1       3.962  -1.271  -4.273  0.00  0.00    +0.069 A 
ATOM     14  C   UNL     1       5.202  -1.627  -4.768  0.00  0.00    +0.042 A 
ATOM     15  C   UNL     1       5.956  -2.590  -4.121  0.00  0.00    +0.044 A 
ATOM     16  C   UNL     1       5.471  -3.200  -2.977  0.00  0.00    +0.042 A 
ATOM     17  C   UNL     1       4.234  -2.843  -2.474  0.00  0.00    +0.069 A 
ATOM     18 CL   UNL     1       3.630  -3.602  -1.035  0.00  0.00    -0.081 Cl
ATOM     19 CL   UNL     1       7.513  -3.036  -4.747  0.00  0.00    -0.083 Cl
ATOM     20 CL   UNL     1       3.016  -0.063  -5.086  0.00  0.00    -0.081 Cl
ENDBRANCH   9  12
BRANCH   1  22
ATOM     21  C   UNL     1      -0.027   1.183   0.065  0.00  0.00    +0.010 C 
ATOM     22  C   UNL     1      -0.013  -0.347   0.057  0.00  0.00    +0.055 C 
ENDBRANCH   1  22
BRANCH   5  23
ATOM     23  C   UNL     1      -0.821  -2.168  -6.418  0.00  0.00    +0.080 C 
BRANCH  23  24
ATOM     24  C   UNL     1       0.489  -2.478  -7.145  0.00  0.00    +0.062 C 
BRANCH  24  25
ATOM     25  C   UNL     1       0.195  -2.845  -8.577  0.00  0.00    +0.036 A 
ATOM     26  C   UNL     1       0.035  -1.992  -9.607  0.00  0.00    +0.133 A 
ATOM     27  N   UNL     1      -0.211  -2.715 -10.710  0.00  0.00    -0.244 NA
ATOM     28  H   UNL     1       0.107  -4.938  -8.583  0.00  0.00    +0.166 HD
ATOM     29  C   UNL     1      -0.209  -3.984 -10.402  0.00  0.00    +0.196 A 
ATOM     30  N   UNL     1       0.045  -4.108  -9.082  0.00  0.00    -0.348 N 
ENDBRANCH  24  25
ENDBRANCH  23  24
ENDBRANCH   5  23
TORSDOF 5
