REMARK  Name = CHEMBL509406
REMARK  9 active torsions:
REMARK  status: ('A' for Active; 'I' for Inactive)
REMARK    1  A    between atoms: C_1  and  C_2
REMARK    2  A    between atoms: C_5  and  C_10
REMARK    3  A    between atoms: N_6  and  C_7
REMARK    4  A    between atoms: C_7  and  C_8
REMARK    5  A    between atoms: C_7  and  C_9
REMARK    6  A    between atoms: N_16  and  C_17
REMARK    7  A    between atoms: C_20  and  C_24
REMARK    8  A    between atoms: N_26  and  C_27
REMARK    9  A    between atoms: N_30  and  C_33
REMARK                            x       y       z     vdW  Elec       q    Type
REMARK                         _______ _______ _______ _____ _____    ______ ____
ROOT
ATOM      1  C   UNL     1       1.123  -3.815   0.984  0.00  0.00    +0.129 A 
ATOM      2  C   UNL     1       2.183  -3.910   1.896  0.00  0.00    +0.169 A 
ATOM      3  C   UNL     1       2.280  -5.049   2.676  0.00  0.00    +0.155 A 
ATOM      4  N   UNL     1       1.376  -6.008   2.538  0.00  0.00    -0.220 NA
ATOM      5  C   UNL     1       0.385  -5.892   1.667  0.00  0.00    +0.220 A 
ATOM      6  N   UNL     1       0.248  -4.819   0.905  0.00  0.00    -0.210 NA
ATOM      7  N   UNL     1      -0.539  -6.921   1.556  0.00  0.00    -0.284 N 
ATOM      8  F   UNL     1       3.088  -2.913   2.011  0.00  0.00    -0.202 F 
ATOM      9  H   UNL     1      -1.224  -6.886   0.870  0.00  0.00    +0.155 HD
ENDROOT
BRANCH   1  14
ATOM     10  C   UNL     1       0.946   0.959  -0.620  0.00  0.00    +0.084 C 
ATOM     11  C   UNL     1       0.894  -0.546  -0.577  0.00  0.00    +0.084 A 
ATOM     12  N   UNL     1       0.626  -1.325  -1.592  0.00  0.00    -0.349 N 
ATOM     13  C   UNL     1       0.665  -2.602  -1.199  0.00  0.00    +0.112 A 
ATOM     14  C   UNL     1       0.973  -2.621   0.128  0.00  0.00    +0.088 A 
ATOM     15  N   UNL     1       1.121  -1.307   0.513  0.00  0.00    -0.325 N 
ATOM     16  H   UNL     1       0.429  -1.023  -2.492  0.00  0.00    +0.166 HD
BRANCH  15  17
ATOM     17  C   UNL     1       1.460  -0.826   1.855  0.00  0.00    +0.083 C 
ATOM     18  C   UNL     1       2.700   0.067   1.779  0.00  0.00    +0.030 C 
ATOM     19  C   UNL     1       0.286  -0.021   2.419  0.00  0.00    +0.030 C 
ENDBRANCH  15  17
ENDBRANCH   1  14
BRANCH   7  20
ATOM     20  C   UNL     1      -0.483  -8.004   2.429  0.00  0.00    +0.036 A 
ATOM     21  C   UNL     1      -0.089  -7.811   3.751  0.00  0.00    +0.024 A 
ATOM     22  C   UNL     1      -0.032  -8.868   4.613  0.00  0.00    +0.018 A 
ATOM     23  C   UNL     1      -0.370 -10.152   4.172  0.00  0.00    +0.072 A 
ATOM     24  C   UNL     1      -0.767 -10.349   2.844  0.00  0.00    +0.137 A 
ATOM     25  C   UNL     1      -0.827  -9.274   1.980  0.00  0.00    +0.062 A 
ATOM     26  F   UNL     1      -1.096 -11.586   2.411  0.00  0.00    -0.205 F 
BRANCH  23  27
ATOM     27  C   UNL     1      -0.308 -11.293   5.103  0.00  0.00    +0.247 C 
ATOM     28  O   UNL     1      -0.603 -12.408   4.718  0.00  0.00    -0.270 OA
ATOM     29  N   UNL     1       0.074 -11.100   6.381  0.00  0.00    -0.309 N 
ATOM     30  H   UNL     1       0.309 -10.211   6.688  0.00  0.00    +0.149 HD
BRANCH  29  31
ATOM     31  C   UNL     1       0.136 -12.235   7.306  0.00  0.00    +0.070 C 
ATOM     32  C   UNL     1      -1.247 -12.470   7.920  0.00  0.00    +0.003 C 
ATOM     33  C   UNL     1      -1.159 -13.604   8.944  0.00  0.00    -0.077 C 
ATOM     34  N   UNL     1      -0.207 -13.240  10.001  0.00  0.00    +0.378 N 
ATOM     35  C   UNL     1       1.136 -13.083   9.430  0.00  0.00    -0.077 C 
ATOM     36  C   UNL     1       1.135 -11.929   8.425  0.00  0.00    +0.003 C 
ATOM     37  C   UNL     1      -0.184 -14.297  11.021  0.00  0.00    -0.096 C 
ATOM     38  H   UNL     1      -0.495 -12.372  10.426  0.00  0.00    -0.082 HD
ENDBRANCH  29  31
ENDBRANCH  23  27
ENDBRANCH   7  20
TORSDOF 5
