REMARK  Name = CHEMBL603097
REMARK  5 active torsions:
REMARK  status: ('A' for Active; 'I' for Inactive)
REMARK    1  A    between atoms: C_1  and  C_2
REMARK    2  A    between atoms: C_4  and  O_18
REMARK    3  A    between atoms: C_7  and  O_16
REMARK    4  A    between atoms: O_16  and  C_17
REMARK    5  A    between atoms: O_18  and  C_19
REMARK                            x       y       z     vdW  Elec       q    Type
REMARK                         _______ _______ _______ _____ _____    ______ ____
ROOT
ATOM      1  C   UNL     1      -0.018   1.503   0.010  0.00  0.00    +0.066 C 
ATOM      2  C   UNL     1       0.002  -0.004   0.002  0.00  0.00    +0.046 A 
ATOM      3  C   UNL     1       0.024  -0.827   1.119  0.00  0.00    +0.083 A 
ATOM      4  C   UNL     1       0.034  -0.593   2.508  0.00  0.00    +0.142 A 
ATOM      5  C   UNL     1       0.056  -1.708   3.360  0.00  0.00    +0.046 A 
ATOM      6  C   UNL     1       0.067  -1.557   4.760  0.00  0.00    +0.059 A 
ATOM      7  C   UNL     1       0.089  -2.664   5.555  0.00  0.00    +0.121 A 
ATOM      8  C   UNL     1       0.101  -3.952   5.011  0.00  0.00    +0.048 A 
ATOM      9  C   UNL     1       0.091  -4.160   3.669  0.00  0.00    +0.032 A 
ATOM     10  C   UNL     1       0.069  -3.057   2.789  0.00  0.00    +0.077 A 
ATOM     11  N   UNL     1       0.059  -3.241   1.472  0.00  0.00    -0.226 NA
ATOM     12  C   UNL     1       0.037  -2.211   0.618  0.00  0.00    +0.185 A 
ATOM     13  N   UNL     1       0.024  -2.131  -0.704  0.00  0.00    -0.153 NA
ATOM     14  H   UNL     1      -0.021  -0.465  -1.997  0.00  0.00    +0.189 HD
ATOM     15  N   UNL     1      -0.003  -0.785  -1.081  0.00  0.00    -0.279 N 
ENDROOT
BRANCH   7  16
ATOM     16  O   UNL     1       0.099  -2.512   6.906  0.00  0.00    -0.495 OA
ATOM     17  C   UNL     1       0.122  -3.705   7.692  0.00  0.00    +0.277 C 
ENDBRANCH   7  16
BRANCH   4  18
ATOM     18  O   UNL     1       0.022   0.665   3.004  0.00  0.00    -0.494 OA
ATOM     19  C   UNL     1      -1.256   1.252   3.254  0.00  0.00    +0.277 C 
ENDBRANCH   4  18
TORSDOF 2
