REMARK  Name = CHEMBL372467
REMARK  5 active torsions:
REMARK  status: ('A' for Active; 'I' for Inactive)
REMARK    1  A    between atoms: C_1  and  C_2
REMARK    2  A    between atoms: C_2  and  C_3
REMARK    3  A    between atoms: C_2  and  C_16
REMARK    4  A    between atoms: C_6  and  N_9
REMARK    5  A    between atoms: C_21  and  C_25
REMARK                            x       y       z     vdW  Elec       q    Type
REMARK                         _______ _______ _______ _____ _____    ______ ____
ROOT
ATOM      1  C   UNL     1       0.005   1.526   0.024  0.00  0.00    +0.022 C 
ATOM      2  C   UNL     1       0.002  -0.004   0.002  0.00  0.00    +0.102 C 
ENDROOT
BRANCH   2   3
ATOM      3  C   UNL     1       0.716  -0.525   1.223  0.00  0.00    +0.225 C 
ATOM      4  O   UNL     1       1.700  -1.223   1.098  0.00  0.00    -0.275 OA
ATOM      5  N   UNL     1       0.260  -0.216   2.453  0.00  0.00    -0.268 N 
ATOM      6  C   UNL     1       0.924  -0.701   3.588  0.00  0.00    +0.147 A 
ATOM      7  C   UNL     1       2.072  -1.509   3.590  0.00  0.00    +0.068 A 
ATOM      8  C   UNL     1       2.400  -1.760   4.878  0.00  0.00    +0.041 A 
ATOM      9  N   UNL     1       1.498  -1.137   5.665  0.00  0.00    -0.280 N 
ATOM     10  H   UNL     1       1.486  -1.144   6.634  0.00  0.00    +0.189 HD
ATOM     11  N   UNL     1       0.584  -0.474   4.835  0.00  0.00    -0.158 NA
ATOM     12  H   UNL     1      -0.527   0.342   2.553  0.00  0.00    +0.156 HD
BRANCH   8  13
ATOM     13  C   UNL     1       3.567  -2.589   5.351  0.00  0.00    +0.037 C 
ATOM     14  C   UNL     1       3.383  -3.399   6.636  0.00  0.00    +0.010 C 
ATOM     15  C   UNL     1       4.269  -2.151   6.638  0.00  0.00    +0.010 C 
ENDBRANCH   8  13
ENDBRANCH   2   3
BRANCH   2  16
ATOM     16  C   UNL     1       0.708  -0.490  -1.238  0.00  0.00    -0.036 A 
ATOM     17  C   UNL     1       2.033  -0.159  -1.452  0.00  0.00    +0.006 A 
ATOM     18  C   UNL     1       2.682  -0.603  -2.588  0.00  0.00    +0.024 A 
ATOM     19  C   UNL     1       2.002  -1.382  -3.514  0.00  0.00    +0.045 A 
ATOM     20  C   UNL     1       0.672  -1.713  -3.296  0.00  0.00    +0.024 A 
ATOM     21  C   UNL     1       0.030  -1.271  -2.156  0.00  0.00    +0.006 A 
BRANCH  19  22
ATOM     22  N   UNL     1       2.658  -1.833  -4.668  0.00  0.00    -0.193 N 
ATOM     23  C   UNL     1       2.117  -2.682  -5.564  0.00  0.00    +0.245 C 
ATOM     24  O   UNL     1       1.012  -3.181  -5.525  0.00  0.00    -0.273 OA
ATOM     25  C   UNL     1       3.175  -2.884  -6.630  0.00  0.00    +0.202 C 
ATOM     26  N   UNL     1       4.295  -2.046  -6.168  0.00  0.00    -0.290 N 
ATOM     27  C   UNL     1       3.897  -1.470  -5.019  0.00  0.00    +0.313 C 
ATOM     28  O   UNL     1       4.587  -0.707  -4.371  0.00  0.00    -0.252 OA
ATOM     29  H   UNL     1       5.152  -1.930  -6.608  0.00  0.00    +0.151 HD
ENDBRANCH  19  22
ENDBRANCH   2  16
TORSDOF 4
