REMARK  Name = CHEMBL380280
REMARK  6 active torsions:
REMARK  status: ('A' for Active; 'I' for Inactive)
REMARK    1  A    between atoms: C_1  and  C_2
REMARK    2  A    between atoms: C_2  and  C_4
REMARK    3  A    between atoms: C_2  and  C_18
REMARK    4  A    between atoms: C_7  and  N_10
REMARK    5  A    between atoms: C_13  and  O_17
REMARK    6  A    between atoms: C_23  and  C_27
REMARK                            x       y       z     vdW  Elec       q    Type
REMARK                         _______ _______ _______ _____ _____    ______ ____
ROOT
ATOM      1  C   UNL     1      -0.019   1.526  -0.007  0.00  0.00    +0.022 C 
ATOM      2  C   UNL     1       0.002  -0.004   0.002  0.00  0.00    +0.102 C 
ENDROOT
BRANCH   2   3
ATOM      3  C   UNL     1       0.713  -0.504  -1.229  0.00  0.00    +0.225 C 
ATOM      4  O   UNL     1       0.129  -1.215  -2.020  0.00  0.00    -0.275 OA
ATOM      5  N   UNL     1       1.997  -0.163  -1.451  0.00  0.00    -0.268 N 
ATOM      6  C   UNL     1       2.658  -0.628  -2.596  0.00  0.00    +0.147 A 
ATOM      7  C   UNL     1       2.104  -1.448  -3.593  0.00  0.00    +0.068 A 
ATOM      8  C   UNL     1       3.059  -1.672  -4.523  0.00  0.00    +0.041 A 
ATOM      9  N   UNL     1       4.177  -1.022  -4.136  0.00  0.00    -0.280 N 
ATOM     10  N   UNL     1       3.901  -0.369  -2.928  0.00  0.00    -0.158 NA
ATOM     11  H   UNL     1       5.021  -1.006  -4.612  0.00  0.00    +0.189 HD
ATOM     12  H   UNL     1       2.465   0.406  -0.819  0.00  0.00    +0.156 HD
BRANCH   8  13
ATOM     13  C   UNL     1       2.904  -2.502  -5.772  0.00  0.00    +0.037 C 
ATOM     14  C   UNL     1       4.127  -3.280  -6.260  0.00  0.00    +0.010 C 
ATOM     15  C   UNL     1       3.653  -2.042  -7.024  0.00  0.00    +0.010 C 
ENDBRANCH   8  13
ENDBRANCH   2   3
BRANCH   2  16
ATOM     16  C   UNL     1      -1.412  -0.526   0.013  0.00  0.00    -0.036 A 
ATOM     17  C   UNL     1      -2.270  -0.213  -1.026  0.00  0.00    +0.006 A 
ATOM     18  C   UNL     1      -3.567  -0.690  -1.019  0.00  0.00    +0.024 A 
ATOM     19  C   UNL     1      -4.007  -1.484   0.032  0.00  0.00    +0.036 A 
ATOM     20  C   UNL     1      -3.143  -1.796   1.073  0.00  0.00    +0.024 A 
ATOM     21  C   UNL     1      -1.846  -1.320   1.058  0.00  0.00    +0.006 A 
BRANCH  19  22
ATOM     22  N   UNL     1      -5.320  -1.968   0.042  0.00  0.00    -0.269 N 
ATOM     23  C   UNL     1      -5.850  -2.903   1.042  0.00  0.00    +0.117 C 
ATOM     24  C   UNL     1      -7.388  -2.806   0.922  0.00  0.00    +0.060 C 
ATOM     25  C   UNL     1      -7.561  -2.334  -0.541  0.00  0.00    +0.202 C 
ATOM     26  C   UNL     1      -6.260  -1.632  -0.859  0.00  0.00    +0.248 C 
ATOM     27  O   UNL     1      -6.088  -0.877  -1.792  0.00  0.00    -0.272 OA
BRANCH  25  28
ATOM     28  O   UNL     1      -8.658  -1.425  -0.646  0.00  0.00    -0.382 OA
ATOM     29  H   UNL     1      -8.812  -1.097  -1.543  0.00  0.00    +0.210 HD
ENDBRANCH  25  28
ENDBRANCH  19  22
ENDBRANCH   2  16
TORSDOF 5
