REMARK  Name = CHEMBL520003
REMARK  5 active torsions:
REMARK  status: ('A' for Active; 'I' for Inactive)
REMARK    1  A    between atoms: C_1  and  N_2
REMARK    2  A    between atoms: N_2  and  S_3
REMARK    3  A    between atoms: S_3  and  C_6
REMARK    4  A    between atoms: C_9  and  N_12
REMARK    5  A    between atoms: C_17  and  C_19
REMARK                            x       y       z     vdW  Elec       q    Type
REMARK                         _______ _______ _______ _____ _____    ______ ____
ROOT
ATOM      1  N   UNL     1       6.505   0.459  -1.084  0.00  0.00    -0.284 N 
ATOM      2  C   UNL     1       7.352  -0.275  -0.270  0.00  0.00    +0.220 A 
ATOM      3  N   UNL     1       6.872  -1.323   0.384  0.00  0.00    -0.223 NA
ATOM      4  C   UNL     1       7.649  -2.052   1.172  0.00  0.00    +0.116 A 
ATOM      5  C   UNL     1       8.979  -1.711   1.314  0.00  0.00    +0.050 A 
ATOM      6  C   UNL     1       9.461  -0.597   0.611  0.00  0.00    +0.096 A 
ATOM      7  N   UNL     1       8.621   0.086  -0.169  0.00  0.00    -0.213 NA
ATOM      8  H   UNL     1       6.859   1.176  -1.632  0.00  0.00    +0.155 HD
ENDROOT
BRANCH   6   9
ATOM      9  C   UNL     1      10.873  -0.192   0.728  0.00  0.00    +0.111 A 
ATOM     10  C   UNL     1      11.477   0.880   0.102  0.00  0.00    +0.143 A 
ATOM     11  N   UNL     1      12.754   0.907   0.463  0.00  0.00    -0.234 NA
ATOM     12  C   UNL     1      13.002  -0.100   1.294  0.00  0.00    +0.155 A 
ATOM     13  N   UNL     1      11.842  -0.803   1.484  0.00  0.00    -0.211 N 
ATOM     14  N   UNL     1      11.828  -1.917   2.328  0.00  0.00    -0.173 NA
ATOM     15  C   UNL     1      12.915  -2.299   2.946  0.00  0.00    +0.133 A 
ATOM     16  C   UNL     1      14.117  -1.603   2.779  0.00  0.00    +0.025 A 
ATOM     17  C   UNL     1      14.171  -0.517   1.957  0.00  0.00    +0.050 A 
ENDBRANCH   6   9
BRANCH   1  21
ATOM     18  C   UNL     1       2.433  -0.414  -1.176  0.00  0.00    +0.105 A 
ATOM     19  C   UNL     1       3.146  -0.572  -0.002  0.00  0.00    +0.030 A 
ATOM     20  C   UNL     1       4.496  -0.283   0.033  0.00  0.00    +0.025 A 
ATOM     21  C   UNL     1       5.138   0.166  -1.115  0.00  0.00    +0.034 A 
ATOM     22  C   UNL     1       4.419   0.323  -2.293  0.00  0.00    +0.025 A 
ATOM     23  C   UNL     1       3.070   0.028  -2.321  0.00  0.00    +0.030 A 
BRANCH  18  24
ATOM     24  S   UNL     1       0.711  -0.784  -1.215  0.00  0.00    +0.058 S 
ATOM     25  O   UNL     1       0.160  -0.039  -2.293  0.00  0.00    -0.153 OA
ATOM     26  O   UNL     1       0.237  -0.656   0.119  0.00  0.00    -0.153 OA
BRANCH  24  28
ATOM     27  C   UNL     1       1.066  -3.417  -0.713  0.00  0.00    +0.127 C 
ATOM     28  N   UNL     1       0.562  -2.383  -1.619  0.00  0.00    -0.193 NA
ATOM     29  H   UNL     1       0.141  -2.634  -2.457  0.00  0.00    +0.148 HD
ENDBRANCH  24  28
ENDBRANCH  18  24
ENDBRANCH   1  21
TORSDOF 4
