REMARK  Name = CHEMBL556881
REMARK  4 active torsions:
REMARK  status: ('A' for Active; 'I' for Inactive)
REMARK    1  A    between atoms: C_1  and  N_2
REMARK    2  A    between atoms: C_5  and  C_7
REMARK    3  A    between atoms: N_18  and  C_19
REMARK    4  A    between atoms: C_22  and  N_25
REMARK                            x       y       z     vdW  Elec       q    Type
REMARK                         _______ _______ _______ _____ _____    ______ ____
ROOT
ATOM      1  C   UNL     1      -0.787   1.525  -0.133  0.00  0.00    +0.173 C 
ATOM      2  N   UNL     1      -0.600   0.074  -0.068  0.00  0.00    -0.264 N 
ATOM      3  C   UNL     1      -0.308  -0.718  -1.118  0.00  0.00    +0.091 A 
ATOM      4  C   UNL     1      -0.194  -2.004  -0.634  0.00  0.00    +0.012 A 
ATOM      5  C   UNL     1      -0.456  -1.916   0.734  0.00  0.00    +0.151 A 
ATOM      6  N   UNL     1      -0.685  -0.639   1.005  0.00  0.00    -0.166 NA
ATOM      7  C   UNL     1       0.165  -3.167  -1.511  0.00  0.00    +0.044 C 
ATOM      8  C   UNL     1      -0.374  -2.936  -2.923  0.00  0.00    +0.043 C 
ATOM      9  C   UNL     1      -0.103  -1.546  -3.421  0.00  0.00    -0.001 A 
ATOM     10  C   UNL     1      -0.093  -0.447  -2.550  0.00  0.00    +0.097 A 
ATOM     11  N   UNL     1       0.112   0.771  -3.026  0.00  0.00    -0.212 NA
ATOM     12  C   UNL     1       0.329   0.951  -4.323  0.00  0.00    +0.220 A 
ATOM     13  N   UNL     1       0.350  -0.068  -5.170  0.00  0.00    -0.222 NA
ATOM     14  C   UNL     1       0.139  -1.310  -4.761  0.00  0.00    +0.120 A 
ATOM     15  N   UNL     1       0.539   2.233  -4.802  0.00  0.00    -0.284 N 
ATOM     16  H   UNL     1       0.608   2.977  -4.183  0.00  0.00    +0.155 HD
ENDROOT
BRANCH  15  17
ATOM     17  C   UNL     1       0.652   2.456  -6.181  0.00  0.00    +0.034 A 
ATOM     18  C   UNL     1      -0.143   1.742  -7.067  0.00  0.00    +0.025 A 
ATOM     19  C   UNL     1      -0.031   1.961  -8.425  0.00  0.00    +0.025 A 
ATOM     20  C   UNL     1       0.876   2.896  -8.906  0.00  0.00    +0.030 A 
ATOM     21  C   UNL     1       1.672   3.610  -8.019  0.00  0.00    +0.025 A 
ATOM     22  C   UNL     1       1.556   3.395  -6.660  0.00  0.00    +0.025 A 
BRANCH  20  23
ATOM     23  N   UNL     1       0.990   3.118 -10.283  0.00  0.00    -0.326 N 
ATOM     24  C   UNL     1       2.030   4.008 -10.823  0.00  0.00    +0.133 C 
ATOM     25  C   UNL     1       2.771   3.264 -11.940  0.00  0.00    +0.178 C 
ATOM     26  O   UNL     1       1.819   2.755 -12.878  0.00  0.00    -0.377 OA
ATOM     27  C   UNL     1       0.910   1.798 -12.330  0.00  0.00    +0.178 C 
ATOM     28  C   UNL     1       0.078   2.463 -11.233  0.00  0.00    +0.133 C 
ENDBRANCH  20  23
ENDBRANCH  15  17
BRANCH   5  29
ATOM     29  C   UNL     1      -0.468  -3.034   1.699  0.00  0.00    +0.262 C 
ATOM     30  O   UNL     1      -0.234  -4.166   1.321  0.00  0.00    -0.269 OA
ATOM     31  N   UNL     1      -0.739  -2.800   2.998  0.00  0.00    -0.324 N 
ATOM     32  H   UNL     1      -0.925  -1.897   3.300  0.00  0.00    +0.145 HD
ATOM     33  H   UNL     1      -0.747  -3.534   3.632  0.00  0.00    +0.145 HD
ENDBRANCH   5  29
TORSDOF 3
