REMARK  Name = CHEMBL14593
REMARK  5 active torsions:
REMARK  status: ('A' for Active; 'I' for Inactive)
REMARK    1  A    between atoms: C_4  and  C_7
REMARK    2  A    between atoms: C_7  and  O_8
REMARK    3  A    between atoms: O_8  and  C_9
REMARK    4  A    between atoms: C_10  and  C_18
REMARK    5  A    between atoms: C_18  and  C_20
REMARK                            x       y       z     vdW  Elec       q    Type
REMARK                         _______ _______ _______ _____ _____    ______ ____
ROOT
ATOM      1  C   UNL     1       4.974  -1.450   1.331  0.00  0.00    +0.145 A 
ATOM      2  C   UNL     1       5.227  -2.821   1.473  0.00  0.00    +0.083 A 
ATOM      3  C   UNL     1       6.548  -3.281   1.630  0.00  0.00    +0.128 A 
ATOM      4  N   UNL     1       7.572  -2.473   1.651  0.00  0.00    -0.233 NA
ATOM      5  C   UNL     1       7.428  -1.141   1.522  0.00  0.00    +0.185 A 
ATOM      6  N   UNL     1       8.269  -0.125   1.509  0.00  0.00    -0.154 NA
ATOM      7  N   UNL     1       7.550   1.063   1.342  0.00  0.00    -0.282 N 
ATOM      8  C   UNL     1       6.242   0.797   1.248  0.00  0.00    +0.118 A 
ATOM      9  C   UNL     1       6.082  -0.573   1.347  0.00  0.00    +0.081 A 
ATOM     10  H   UNL     1       7.942   1.950   1.300  0.00  0.00    +0.188 HD
ENDROOT
BRANCH   2  11
ATOM     11  C   UNL     1       4.113  -3.779   1.458  0.00  0.00    +0.198 C 
ATOM     12  O   UNL     1       3.910  -4.461   0.471  0.00  0.00    -0.286 OA
BRANCH  11  13
ATOM     13  C   UNL     1       3.238  -3.914   2.643  0.00  0.00    +0.022 A 
ATOM     14  C   UNL     1       2.116  -4.743   2.594  0.00  0.00    +0.012 A 
ATOM     15  C   UNL     1       1.304  -4.864   3.703  0.00  0.00    +0.001 A 
ATOM     16  C   UNL     1       1.599  -4.166   4.861  0.00  0.00    +0.000 A 
ATOM     17  C   UNL     1       2.710  -3.343   4.915  0.00  0.00    +0.001 A 
ATOM     18  C   UNL     1       3.534  -3.218   3.816  0.00  0.00    +0.012 A 
ENDBRANCH  11  13
ENDBRANCH   2  11
BRANCH   1  19
ATOM     19  O   UNL     1       3.715  -0.984   1.179  0.00  0.00    -0.486 OA
BRANCH  19  20
ATOM     20  C   UNL     1       3.221  -0.876  -0.158  0.00  0.00    +0.264 C 
BRANCH  20  24
ATOM     21  C   UNL     1      -0.773   0.637  -0.083  0.00  0.00    +0.000 A 
ATOM     22  C   UNL     1       0.295   1.510  -0.160  0.00  0.00    +0.000 A 
ATOM     23  C   UNL     1       1.588   1.021  -0.184  0.00  0.00    +0.007 A 
ATOM     24  C   UNL     1       1.812  -0.342  -0.131  0.00  0.00    -0.010 A 
ATOM     25  C   UNL     1       0.744  -1.216  -0.053  0.00  0.00    +0.007 A 
ATOM     26  C   UNL     1      -0.549  -0.726  -0.031  0.00  0.00    +0.000 A 
ENDBRANCH  20  24
ENDBRANCH  19  20
ENDBRANCH   1  19
TORSDOF 5
