REMARK  Name = CHEMBL370724
REMARK  5 active torsions:
REMARK  status: ('A' for Active; 'I' for Inactive)
REMARK    1  A    between atoms: C_1  and  C_2
REMARK    2  A    between atoms: C_2  and  C_3
REMARK    3  A    between atoms: C_2  and  C_16
REMARK    4  A    between atoms: C_6  and  N_9
REMARK    5  A    between atoms: C_21  and  C_25
REMARK                            x       y       z     vdW  Elec       q    Type
REMARK                         _______ _______ _______ _____ _____    ______ ____
ROOT
ATOM      1  C   UNL     1      -0.019   1.526   0.010  0.00  0.00    +0.022 C 
ATOM      2  C   UNL     1       0.002  -0.004   0.002  0.00  0.00    +0.102 C 
ENDROOT
BRANCH   2   3
ATOM      3  C   UNL     1       0.731  -0.503   1.223  0.00  0.00    +0.225 C 
ATOM      4  O   UNL     1       0.159  -1.213   2.023  0.00  0.00    -0.275 OA
ATOM      5  N   UNL     1       2.019  -0.161   1.426  0.00  0.00    -0.268 N 
ATOM      6  C   UNL     1       2.697  -0.626   2.561  0.00  0.00    +0.147 A 
ATOM      7  C   UNL     1       2.161  -1.454   3.561  0.00  0.00    +0.068 A 
ATOM      8  C   UNL     1       3.128  -1.674   4.479  0.00  0.00    +0.041 A 
ATOM      9  N   UNL     1       4.236  -1.013   4.082  0.00  0.00    -0.280 N 
ATOM     10  H   UNL     1       5.086  -0.993   4.548  0.00  0.00    +0.189 HD
ATOM     11  N   UNL     1       3.945  -0.367   2.873  0.00  0.00    -0.158 NA
ATOM     12  H   UNL     1       2.476   0.406   0.786  0.00  0.00    +0.156 HD
BRANCH   8  13
ATOM     13  C   UNL     1       2.993  -2.509   5.727  0.00  0.00    +0.037 C 
ATOM     14  C   UNL     1       3.780  -2.066   6.962  0.00  0.00    +0.010 C 
ATOM     15  C   UNL     1       4.219  -3.305   6.180  0.00  0.00    +0.010 C 
ENDBRANCH   8  13
ENDBRANCH   2   3
BRANCH   2  16
ATOM     16  C   UNL     1      -1.412  -0.526   0.013  0.00  0.00    -0.036 A 
ATOM     17  C   UNL     1      -2.258  -0.203   1.058  0.00  0.00    +0.006 A 
ATOM     18  C   UNL     1      -3.554  -0.679   1.071  0.00  0.00    +0.025 A 
ATOM     19  C   UNL     1      -4.008  -1.483   0.032  0.00  0.00    +0.051 A 
ATOM     20  C   UNL     1      -3.155  -1.805  -1.016  0.00  0.00    +0.025 A 
ATOM     21  C   UNL     1      -1.861  -1.321  -1.025  0.00  0.00    +0.006 A 
BRANCH  19  22
ATOM     22  N   UNL     1      -5.318  -1.967   0.043  0.00  0.00    -0.207 N 
ATOM     23  C   UNL     1      -6.179  -2.174   1.221  0.00  0.00    +0.133 C 
ATOM     24  C   UNL     1      -7.665  -2.007   0.849  0.00  0.00    +0.045 C 
ATOM     25  C   UNL     1      -7.843  -2.808  -0.475  0.00  0.00    +0.190 C 
ATOM     26  S   UNL     1      -6.236  -2.425  -1.283  0.00  0.00    +0.046 S 
ATOM     27  O   UNL     1      -6.342  -1.261  -2.092  0.00  0.00    -0.155 OA
ATOM     28  O   UNL     1      -5.627  -3.611  -1.775  0.00  0.00    -0.155 OA
ENDBRANCH  19  22
ENDBRANCH   2  16
TORSDOF 4
