REMARK  Name = CHEMBL372207
REMARK  3 active torsions:
REMARK  status: ('A' for Active; 'I' for Inactive)
REMARK    1  A    between atoms: C_3  and  N_24
REMARK    2  A    between atoms: C_6  and  N_7
REMARK    3  A    between atoms: N_16  and  C_19
REMARK                            x       y       z     vdW  Elec       q    Type
REMARK                         _______ _______ _______ _____ _____    ______ ____
ROOT
ATOM      1  N   UNL     1      -1.226  -0.751  -1.144  0.00  0.00    -0.284 N 
ATOM      2  C   UNL     1      -1.202  -2.121  -0.962  0.00  0.00    +0.221 A 
ATOM      3  N   UNL     1      -0.030  -2.747  -0.978  0.00  0.00    -0.222 NA
ATOM      4  C   UNL     1       0.049  -4.055  -0.809  0.00  0.00    +0.126 A 
ATOM      5  C   UNL     1      -1.135  -4.774  -0.611  0.00  0.00    +0.036 A 
ATOM      6  C   UNL     1      -1.139  -6.220  -0.415  0.00  0.00    +0.018 A 
ATOM      7  C   UNL     1      -2.332  -6.842  -0.229  0.00  0.00    +0.071 A 
ATOM      8  C   UNL     1      -3.528  -6.096  -0.227  0.00  0.00    +0.253 A 
ATOM      9  O   UNL     1      -4.587  -6.674  -0.058  0.00  0.00    -0.268 OA
ATOM     10  N   UNL     1      -3.531  -4.763  -0.406  0.00  0.00    -0.290 N 
ATOM     11  C   UNL     1      -2.362  -4.074  -0.599  0.00  0.00    +0.149 A 
ATOM     12  N   UNL     1      -2.347  -2.759  -0.772  0.00  0.00    -0.196 NA
ATOM     13  H   UNL     1      -2.060  -0.265  -1.053  0.00  0.00    +0.155 HD
ENDROOT
BRANCH   1  19
ATOM     14  C   UNL     1       0.977  -0.719  -2.132  0.00  0.00    +0.025 A 
ATOM     15  C   UNL     1       2.139  -0.040  -2.442  0.00  0.00    +0.023 A 
ATOM     16  C   UNL     1       2.283   1.288  -2.081  0.00  0.00    +0.014 A 
ATOM     17  C   UNL     1       1.265   1.939  -1.410  0.00  0.00    +0.023 A 
ATOM     18  C   UNL     1       0.100   1.266  -1.098  0.00  0.00    +0.025 A 
ATOM     19  C   UNL     1      -0.048  -0.067  -1.458  0.00  0.00    +0.034 A 
BRANCH  16  20
ATOM     20  N   UNL     1       3.461   1.972  -2.395  0.00  0.00    -0.393 NA
ATOM     21  C   UNL     1       4.099   2.438  -1.158  0.00  0.00    +0.085 C 
ATOM     22  C   UNL     1       5.430   3.117  -1.490  0.00  0.00    +0.017 C 
ATOM     23  C   UNL     1       5.171   4.310  -2.414  0.00  0.00    +0.003 C 
ATOM     24  C   UNL     1       4.439   3.823  -3.668  0.00  0.00    +0.017 C 
ATOM     25  C   UNL     1       3.145   3.118  -3.255  0.00  0.00    +0.085 C 
ATOM     26  H   UNL     1       4.090   1.351  -2.882  0.00  0.00    +0.126 HD
ENDBRANCH  16  20
ENDBRANCH   1  19
BRANCH  10  27
ATOM     27  C   UNL     1      -4.803  -4.036  -0.394  0.00  0.00    +0.092 C 
ATOM     28  C   UNL     1      -5.659  -4.450  -1.609  0.00  0.00    +0.025 C 
ATOM     29  C   UNL     1      -6.595  -5.554  -1.056  0.00  0.00    +0.002 C 
ATOM     30  C   UNL     1      -6.931  -5.037   0.364  0.00  0.00    +0.002 C 
ATOM     31  C   UNL     1      -5.612  -4.409   0.861  0.00  0.00    +0.025 C 
ENDBRANCH  10  27
TORSDOF 3
