REMARK  Name = CHEMBL364338
REMARK  3 active torsions:
REMARK  status: ('A' for Active; 'I' for Inactive)
REMARK    1  A    between atoms: N_9  and  C_10
REMARK    2  A    between atoms: C_10  and  C_11
REMARK    3  A    between atoms: C_17  and  C_19
REMARK                            x       y       z     vdW  Elec       q    Type
REMARK                         _______ _______ _______ _____ _____    ______ ____
ROOT
ATOM      1  C   UNL     1       5.356  -0.310   1.364  0.00  0.00    +0.238 C 
ATOM      2  O   UNL     1       4.579  -0.417   2.289  0.00  0.00    -0.273 OA
ATOM      3  N   UNL     1       6.644   0.012   1.599  0.00  0.00    -0.263 N 
ATOM      4  C   UNL     1       7.081   0.221   2.901  0.00  0.00    +0.165 A 
ATOM      5  N   UNL     1       6.390   0.144   4.018  0.00  0.00    -0.233 NA
ATOM      6  C   UNL     1       6.957   0.374   5.188  0.00  0.00    +0.124 A 
ATOM      7  C   UNL     1       8.275   0.691   5.183  0.00  0.00    +0.014 A 
ATOM      8  S   UNL     1       8.626   0.627   3.433  0.00  0.00    -0.057 S 
ATOM      9  H   UNL     1       7.265   0.097   0.859  0.00  0.00    +0.157 HD
ENDROOT
BRANCH   7  10
ATOM     10  C   UNL     1       9.193   1.005   6.336  0.00  0.00    +0.027 C 
ATOM     11  C   UNL     1      10.216   2.111   6.026  0.00  0.00    +0.009 C 
ATOM     12  C   UNL     1      11.242   1.271   6.805  0.00  0.00    +0.001 C 
ATOM     13  C   UNL     1      10.387   0.043   6.453  0.00  0.00    +0.009 C 
ENDBRANCH   7  10
BRANCH   1  14
ATOM     14  C   UNL     1       4.881  -0.537  -0.048  0.00  0.00    +0.217 C 
BRANCH  14  23
ATOM     15  C   UNL     1      -0.017   1.362   0.009  0.00  0.00    +0.001 A 
ATOM     16  C   UNL     1       1.170   2.083   0.002  0.00  0.00    +0.002 A 
ATOM     17  C   UNL     1       2.386   1.436  -0.013  0.00  0.00    +0.026 A 
ATOM     18  C   UNL     1       2.428   0.046  -0.021  0.00  0.00    +0.049 A 
ATOM     19  C   UNL     1       1.223  -0.681  -0.013  0.00  0.00    -0.000 A 
ATOM     20  C   UNL     1       0.002  -0.004   0.002  0.00  0.00    +0.010 A 
ATOM     21  C   UNL     1       1.604  -2.095  -0.025  0.00  0.00    +0.027 A 
ATOM     22  C   UNL     1       2.945  -2.141  -0.038  0.00  0.00    +0.087 A 
ATOM     23  N   UNL     1       3.455  -0.871  -0.036  0.00  0.00    -0.338 N 
ENDBRANCH  14  23
ENDBRANCH   1  14
TORSDOF 3
