REMARK  Name = CHEMBL310840
REMARK  8 active torsions:
REMARK  status: ('A' for Active; 'I' for Inactive)
REMARK    1  A    between atoms: C_1  and  C_2
REMARK    2  A    between atoms: C_2  and  C_3
REMARK    3  A    between atoms: C_3  and  C_4
REMARK    4  A    between atoms: C_4  and  O_5
REMARK    5  A    between atoms: O_5  and  C_6
REMARK    6  A    between atoms: C_7  and  C_15
REMARK    7  A    between atoms: C_15  and  C_17
REMARK    8  A    between atoms: C_20  and  C_24
REMARK                            x       y       z     vdW  Elec       q    Type
REMARK                         _______ _______ _______ _____ _____    ______ ____
ROOT
ATOM      1  C   UNL     1      -2.905  -3.901   0.009  0.00  0.00    +0.145 A 
ATOM      2  C   UNL     1      -3.004  -4.614  -1.193  0.00  0.00    +0.083 A 
ATOM      3  C   UNL     1      -3.180  -6.010  -1.171  0.00  0.00    +0.128 A 
ATOM      4  N   UNL     1      -3.256  -6.689  -0.059  0.00  0.00    -0.233 NA
ATOM      5  C   UNL     1      -3.171  -6.091   1.144  0.00  0.00    +0.185 A 
ATOM      6  N   UNL     1      -3.215  -6.525   2.388  0.00  0.00    -0.154 NA
ATOM      7  N   UNL     1      -3.071  -5.439   3.258  0.00  0.00    -0.282 N 
ATOM      8  C   UNL     1      -2.934  -4.307   2.558  0.00  0.00    +0.118 A 
ATOM      9  C   UNL     1      -2.981  -4.634   1.216  0.00  0.00    +0.081 A 
ATOM     10  H   UNL     1      -3.071  -5.498   4.227  0.00  0.00    +0.188 HD
ENDROOT
BRANCH   2  11
ATOM     11  C   UNL     1      -2.926  -3.903  -2.477  0.00  0.00    +0.204 C 
ATOM     12  O   UNL     1      -2.873  -2.687  -2.498  0.00  0.00    -0.286 OA
BRANCH  11  13
ATOM     13  C   UNL     1      -2.911  -4.663  -3.742  0.00  0.00    +0.093 A 
ATOM     14  C   UNL     1      -4.100  -4.881  -4.447  0.00  0.00    +0.137 A 
ATOM     15  C   UNL     1      -4.077  -5.594  -5.630  0.00  0.00    +0.042 A 
ATOM     16  C   UNL     1      -2.882  -6.092  -6.119  0.00  0.00    -0.045 A 
ATOM     17  C   UNL     1      -1.702  -5.882  -5.429  0.00  0.00    +0.042 A 
ATOM     18  C   UNL     1      -1.706  -5.166  -4.246  0.00  0.00    +0.137 A 
ATOM     19  F   UNL     1      -0.551  -4.957  -3.577  0.00  0.00    -0.205 F 
ATOM     20  C   UNL     1      -2.867  -6.869  -7.410  0.00  0.00    +0.044 C 
ATOM     21  F   UNL     1      -5.268  -4.396  -3.971  0.00  0.00    -0.205 F 
ENDBRANCH  11  13
ENDBRANCH   2  11
BRANCH   1  22
ATOM     22  O   UNL     1      -2.735  -2.561   0.015  0.00  0.00    -0.490 OA
BRANCH  22  23
ATOM     23  C   UNL     1      -1.391  -2.076   0.001  0.00  0.00    +0.229 C 
BRANCH  23  24
ATOM     24  C   UNL     1      -1.400  -0.546   0.010  0.00  0.00    +0.041 C 
BRANCH  24  26
ATOM     25  C   UNL     1       0.031   1.502   0.004  0.00  0.00    +0.004 C 
ATOM     26  C   UNL     1       0.040  -0.028  -0.005  0.00  0.00    -0.000 C 
ENDBRANCH  24  26
ENDBRANCH  23  24
ENDBRANCH  22  23
ENDBRANCH   1  22
TORSDOF 6
