REMARK  Name = CHEMBL526110
REMARK  3 active torsions:
REMARK  status: ('A' for Active; 'I' for Inactive)
REMARK    1  A    between atoms: C_3  and  N_10
REMARK    2  A    between atoms: C_5  and  N_7
REMARK    3  A    between atoms: C_15  and  C_17
REMARK                            x       y       z     vdW  Elec       q    Type
REMARK                         _______ _______ _______ _____ _____    ______ ____
ROOT
ATOM      1  N   UNL     1       3.583   2.123  -0.021  0.00  0.00    -0.284 N 
ATOM      2  C   UNL     1       3.567   3.505  -0.119  0.00  0.00    +0.220 A 
ATOM      3  N   UNL     1       2.405   4.140  -0.097  0.00  0.00    -0.223 NA
ATOM      4  C   UNL     1       2.346   5.460  -0.187  0.00  0.00    +0.116 A 
ATOM      5  C   UNL     1       3.517   6.183  -0.306  0.00  0.00    +0.048 A 
ATOM      6  C   UNL     1       4.732   5.486  -0.326  0.00  0.00    +0.080 A 
ATOM      7  N   UNL     1       4.714   4.156  -0.225  0.00  0.00    -0.214 NA
ATOM      8  H   UNL     1       4.428   1.651   0.049  0.00  0.00    +0.155 HD
ENDROOT
BRANCH   6   9
ATOM      9  C   UNL     1       6.012   6.212  -0.451  0.00  0.00    +0.047 A 
ATOM     10  C   UNL     1       6.176   7.597  -0.553  0.00  0.00    +0.147 A 
ATOM     11  N   UNL     1       7.457   7.868  -0.648  0.00  0.00    -0.156 NA
ATOM     12  N   UNL     1       8.187   6.675  -0.612  0.00  0.00    -0.150 N 
ATOM     13  C   UNL     1       7.295   5.643  -0.484  0.00  0.00    +0.097 A 
ATOM     14  C   UNL     1       7.765   4.325  -0.417  0.00  0.00    +0.032 A 
ATOM     15  C   UNL     1       9.109   4.096  -0.479  0.00  0.00    +0.024 A 
ATOM     16  C   UNL     1       9.996   5.170  -0.606  0.00  0.00    +0.135 A 
ATOM     17  N   UNL     1       9.558   6.401  -0.676  0.00  0.00    -0.157 NA
ENDBRANCH   6   9
BRANCH   1  20
ATOM     18  C   UNL     1       0.117   1.155  -0.772  0.00  0.00    +0.004 A 
ATOM     19  C   UNL     1       1.303   1.863  -0.771  0.00  0.00    +0.023 A 
ATOM     20  C   UNL     1       2.381   1.408  -0.024  0.00  0.00    +0.036 A 
ATOM     21  C   UNL     1       2.264   0.240   0.719  0.00  0.00    +0.056 A 
ATOM     22  C   UNL     1       1.076  -0.463   0.714  0.00  0.00    +0.128 A 
ATOM     23  C   UNL     1       0.004  -0.007  -0.031  0.00  0.00    +0.033 A 
BRANCH  22  24
ATOM     24  N   UNL     1       0.950  -1.707   1.506  0.00  0.00    +0.056 N 
ATOM     25  O   UNL     1       1.887  -2.107   2.157  0.00  0.00    -0.126 OA
ATOM     26  O   UNL     1      -0.090  -2.324   1.502  0.00  0.00    -0.126 OA
ENDBRANCH  22  24
ENDBRANCH   1  20
TORSDOF 3
