REMARK  Name = CHEMBL504155
REMARK  3 active torsions:
REMARK  status: ('A' for Active; 'I' for Inactive)
REMARK    1  A    between atoms: C_1  and  C_2
REMARK    2  A    between atoms: N_4  and  C_5
REMARK    3  A    between atoms: C_10  and  C_11
REMARK                            x       y       z     vdW  Elec       q    Type
REMARK                         _______ _______ _______ _____ _____    ______ ____
ROOT
ATOM      1  C   UNL     1      -1.137  -2.094   0.002  0.00  0.00    +0.082 A 
ATOM      2  C   UNL     1       0.003  -2.906  -0.013  0.00  0.00    +0.158 A 
ATOM      3  N   UNL     1      -0.373  -4.159  -0.016  0.00  0.00    -0.180 NA
ATOM      4  H   UNL     1      -2.312  -5.021  -0.003  0.00  0.00    +0.189 HD
ATOM      5  N   UNL     1      -1.772  -4.215  -0.004  0.00  0.00    -0.272 N 
ATOM      6  C   UNL     1      -2.243  -2.929   0.013  0.00  0.00    +0.122 A 
ENDROOT
BRANCH   6   7
ATOM      7  C   UNL     1      -3.653  -2.512   0.036  0.00  0.00    +0.159 A 
ATOM      8  N   UNL     1      -4.727  -3.364   0.053  0.00  0.00    -0.337 N 
ATOM      9  H   UNL     1      -4.693  -4.334   0.051  0.00  0.00    +0.167 HD
ATOM     10  C   UNL     1      -5.867  -2.583   0.073  0.00  0.00    +0.067 A 
ATOM     11  C   UNL     1      -7.226  -2.863   0.095  0.00  0.00    +0.028 A 
ATOM     12  C   UNL     1      -8.138  -1.829   0.112  0.00  0.00    +0.002 A 
ATOM     13  C   UNL     1      -7.706  -0.510   0.106  0.00  0.00    +0.002 A 
ATOM     14  C   UNL     1      -6.372  -0.214   0.084  0.00  0.00    +0.030 A 
ATOM     15  C   UNL     1      -5.429  -1.246   0.068  0.00  0.00    +0.090 A 
ATOM     16  N   UNL     1      -4.074  -1.268   0.050  0.00  0.00    -0.226 NA
ENDBRANCH   6   7
BRANCH   1  20
ATOM     17  C   UNL     1      -0.018   1.503   0.010  0.00  0.00    +0.109 C 
ATOM     18  C   UNL     1       0.002  -0.004   0.002  0.00  0.00    +0.214 C 
ATOM     19  O   UNL     1       1.061  -0.596  -0.011  0.00  0.00    -0.276 OA
ATOM     20  N   UNL     1      -1.156  -0.694   0.009  0.00  0.00    -0.283 N 
ATOM     21  H   UNL     1      -2.002  -0.220   0.020  0.00  0.00    +0.155 HD
ENDBRANCH   1  20
TORSDOF 2
