REMARK  Name = CHEMBL150867
REMARK  2 active torsions:
REMARK  status: ('A' for Active; 'I' for Inactive)
REMARK    1  A    between atoms: C_5  and  N_7
REMARK    2  A    between atoms: C_18  and  C_19
REMARK                            x       y       z     vdW  Elec       q    Type
REMARK                         _______ _______ _______ _____ _____    ______ ____
ROOT
ATOM      1  C   UNL     1      -0.030   1.367   0.042  0.00  0.00    +0.002 A 
ATOM      2  C   UNL     1       1.153   2.095   0.038  0.00  0.00    +0.011 A 
ATOM      3  C   UNL     1       2.375   1.439   0.015  0.00  0.00    +0.013 A 
ATOM      4  C   UNL     1       2.407   0.031  -0.005  0.00  0.00    +0.053 A 
ATOM      5  C   UNL     1       1.214  -0.690  -0.001  0.00  0.00    +0.046 A 
ATOM      6  C   UNL     1      -0.006  -0.009   0.023  0.00  0.00    +0.024 A 
ATOM      7  C   UNL     1       3.828  -0.382  -0.028  0.00  0.00    +0.200 C 
ATOM      8  O   UNL     1       4.249  -1.522  -0.050  0.00  0.00    -0.286 OA
ATOM      9  C   UNL     1       4.637   0.853  -0.021  0.00  0.00    +0.075 A 
ATOM     10  C   UNL     1       3.771   1.939   0.005  0.00  0.00    +0.078 A 
ATOM     11  N   UNL     1       4.528   3.056   0.011  0.00  0.00    -0.276 N 
ATOM     12  H   UNL     1       4.194   3.967   0.028  0.00  0.00    +0.189 HD
ATOM     13  N   UNL     1       5.876   2.683  -0.011  0.00  0.00    -0.173 NA
ATOM     14  C   UNL     1       5.955   1.368  -0.029  0.00  0.00    +0.104 A 
ENDROOT
BRANCH   5  15
ATOM     15  N   UNL     1       1.238  -2.081  -0.021  0.00  0.00    -0.269 N 
ATOM     16  C   UNL     1       0.185  -2.766  -0.509  0.00  0.00    +0.301 C 
ATOM     17  O   UNL     1      -0.742  -2.171  -1.024  0.00  0.00    -0.253 OA
ATOM     18  N   UNL     1       0.159  -4.111  -0.425  0.00  0.00    -0.313 N 
ATOM     19  H   UNL     1       2.013  -2.557   0.316  0.00  0.00    +0.156 HD
ATOM     20  H   UNL     1       0.898  -4.585  -0.014  0.00  0.00    +0.146 HD
ATOM     21  H   UNL     1      -0.599  -4.604  -0.776  0.00  0.00    +0.146 HD
ENDBRANCH   5  15
BRANCH  14  22
ATOM     22  C   UNL     1       7.204   0.570  -0.055  0.00  0.00    +0.010 A 
ATOM     23  C   UNL     1       8.325   1.023  -0.744  0.00  0.00    +0.017 A 
ATOM     24  C   UNL     1       9.445   0.266  -0.744  0.00  0.00    +0.046 A 
ATOM     25  S   UNL     1       8.955  -1.137   0.243  0.00  0.00    -0.104 S 
ATOM     26  C   UNL     1       7.282  -0.628   0.603  0.00  0.00    +0.055 A 
ENDBRANCH  14  22
TORSDOF 2
