REMARK  Name = CHEMBL150867
REMARK  2 active torsions:
REMARK  status: ('A' for Active; 'I' for Inactive)
REMARK    1  A    between atoms: C_5  and  N_7
REMARK    2  A    between atoms: C_18  and  C_19
REMARK                            x       y       z     vdW  Elec       q    Type
REMARK                         _______ _______ _______ _____ _____    ______ ____
ROOT
ATOM      1  C   UNL     1      -0.030   1.370   0.043  0.00  0.00    +0.002 A 
ATOM      2  C   UNL     1       1.151   2.094   0.038  0.00  0.00    +0.011 A 
ATOM      3  C   UNL     1       2.374   1.437   0.014  0.00  0.00    +0.015 A 
ATOM      4  C   UNL     1       2.409   0.032  -0.006  0.00  0.00    +0.053 A 
ATOM      5  C   UNL     1       1.208  -0.689  -0.001  0.00  0.00    +0.046 A 
ATOM      6  C   UNL     1      -0.006  -0.009   0.023  0.00  0.00    +0.024 A 
ATOM      7  C   UNL     1       3.817  -0.411  -0.031  0.00  0.00    +0.200 C 
ATOM      8  O   UNL     1       4.207  -1.564  -0.052  0.00  0.00    -0.286 OA
ATOM      9  C   UNL     1       4.663   0.788  -0.025  0.00  0.00    +0.075 A 
ATOM     10  C   UNL     1       3.767   1.948   0.002  0.00  0.00    +0.105 A 
ATOM     11  N   UNL     1       4.518   3.021   0.007  0.00  0.00    -0.173 NA
ATOM     12  H   UNL     1       6.617   3.263  -0.018  0.00  0.00    +0.189 HD
ATOM     13  N   UNL     1       5.866   2.649  -0.016  0.00  0.00    -0.276 N 
ATOM     14  C   UNL     1       5.959   1.289  -0.036  0.00  0.00    +0.078 A 
ENDROOT
BRANCH   5  15
ATOM     15  N   UNL     1       1.228  -2.081  -0.020  0.00  0.00    -0.269 N 
ATOM     16  C   UNL     1       0.174  -2.764  -0.507  0.00  0.00    +0.301 C 
ATOM     17  O   UNL     1      -0.751  -2.166  -1.023  0.00  0.00    -0.253 OA
ATOM     18  N   UNL     1       0.144  -4.108  -0.423  0.00  0.00    -0.313 N 
ATOM     19  H   UNL     1       2.002  -2.559   0.317  0.00  0.00    +0.156 HD
ATOM     20  H   UNL     1       0.882  -4.585  -0.011  0.00  0.00    +0.146 HD
ATOM     21  H   UNL     1      -0.615  -4.600  -0.774  0.00  0.00    +0.146 HD
ENDBRANCH   5  15
BRANCH  14  22
ATOM     22  C   UNL     1       7.202   0.498  -0.063  0.00  0.00    +0.008 A 
ATOM     23  C   UNL     1       8.315   0.812   0.799  0.00  0.00    +0.017 A 
ATOM     24  C   UNL     1       9.394   0.011   0.677  0.00  0.00    +0.046 A 
ATOM     25  S   UNL     1       8.899  -1.141  -0.586  0.00  0.00    -0.104 S 
ATOM     26  C   UNL     1       7.352  -0.577  -0.908  0.00  0.00    +0.055 A 
ENDBRANCH  14  22
TORSDOF 2
