REMARK  Name = CHEMBL497854
REMARK  5 active torsions:
REMARK  status: ('A' for Active; 'I' for Inactive)
REMARK    1  A    between atoms: C_1  and  C_2
REMARK    2  A    between atoms: C_4  and  C_7
REMARK    3  A    between atoms: C_7  and  N_8
REMARK    4  A    between atoms: C_13  and  N_15
REMARK    5  A    between atoms: C_18  and  C_22
REMARK                            x       y       z     vdW  Elec       q    Type
REMARK                         _______ _______ _______ _____ _____    ______ ____
ROOT
ATOM      1  N   UNL     1       1.424  -3.694  -1.928  0.00  0.00    -0.308 N 
ATOM      2  C   UNL     1       1.688  -4.785  -2.739  0.00  0.00    +0.195 A 
ATOM      3  N   UNL     1       0.675  -5.476  -3.241  0.00  0.00    -0.333 N 
ATOM      4  C   UNL     1       0.887  -6.526  -4.021  0.00  0.00    +0.104 A 
ATOM      5  C   UNL     1       2.185  -6.901  -4.311  0.00  0.00    +0.074 A 
ATOM      6  C   UNL     1       3.232  -6.153  -3.767  0.00  0.00    +0.143 A 
ATOM      7  N   UNL     1       2.946  -5.108  -2.996  0.00  0.00    -0.200 NA
ATOM      8 BR   UNL     1       2.536  -8.393  -5.419  0.00  0.00    -0.045 Br
ATOM      9  H   UNL     1       2.156  -3.177  -1.557  0.00  0.00    +0.149 HD
ATOM     10  H   UNL     1      -0.234  -5.209  -3.035  0.00  0.00    +0.168 HD
ENDROOT
BRANCH   6  11
ATOM     11  N   UNL     1       4.551  -6.492  -4.030  0.00  0.00    -0.282 N 
ATOM     12  C   UNL     1       5.592  -5.736  -3.479  0.00  0.00    +0.146 A 
ATOM     13  C   UNL     1       5.446  -4.617  -2.643  0.00  0.00    +0.068 A 
ATOM     14  C   UNL     1       6.683  -4.171  -2.326  0.00  0.00    +0.041 A 
ATOM     15  N   UNL     1       7.581  -4.973  -2.937  0.00  0.00    -0.280 N 
ATOM     16  H   UNL     1       8.546  -4.890  -2.887  0.00  0.00    +0.189 HD
ATOM     17  N   UNL     1       6.875  -5.951  -3.650  0.00  0.00    -0.158 NA
ATOM     18  H   UNL     1       4.751  -7.254  -4.596  0.00  0.00    +0.155 HD
BRANCH  14  19
ATOM     19  C   UNL     1       7.003  -2.989  -1.448  0.00  0.00    +0.037 C 
ATOM     20  C   UNL     1       8.249  -2.170  -1.792  0.00  0.00    +0.010 C 
ATOM     21  C   UNL     1       8.247  -3.082  -0.563  0.00  0.00    +0.010 C 
ENDBRANCH  14  19
ENDBRANCH   6  11
BRANCH   1  22
ATOM     22  C   UNL     1       0.039  -3.320  -1.631  0.00  0.00    +0.181 C 
BRANCH  22  26
ATOM     23  C   UNL     1      -0.018   1.503   0.010  0.00  0.00    +0.069 C 
ATOM     24  C   UNL     1       0.002  -0.004   0.002  0.00  0.00    +0.081 A 
ATOM     25  C   UNL     1       0.008  -0.824  -1.141  0.00  0.00    +0.072 A 
ATOM     26  C   UNL     1       0.027  -2.108  -0.735  0.00  0.00    +0.154 A 
ATOM     27  O   UNL     1       0.034  -2.119   0.606  0.00  0.00    -0.358 OA
ATOM     28  N   UNL     1       0.023  -0.775   1.052  0.00  0.00    -0.083 NA
ENDBRANCH  22  26
ENDBRANCH   1  22
TORSDOF 4
