REMARK  Name = CHEMBL1087073
REMARK  2 active torsions:
REMARK  status: ('A' for Active; 'I' for Inactive)
REMARK    1  A    between atoms: C_6  and  N_7
REMARK    2  A    between atoms: N_13  and  O_14
REMARK                            x       y       z     vdW  Elec       q    Type
REMARK                         _______ _______ _______ _____ _____    ______ ____
ROOT
ATOM      1  C   UNL     1       0.343   1.113   2.277  0.00  0.00    +0.034 A 
ATOM      2  C   UNL     1       1.311   1.896   1.681  0.00  0.00    +0.026 A 
ATOM      3  C   UNL     1       2.429   1.305   1.104  0.00  0.00    +0.042 A 
ATOM      4  C   UNL     1       2.556  -0.091   1.138  0.00  0.00    +0.012 A 
ATOM      5  C   UNL     1       1.575  -0.871   1.741  0.00  0.00    +0.043 A 
ATOM      6  C   UNL     1       0.472  -0.266   2.308  0.00  0.00    +0.127 A 
ATOM      7  C   UNL     1       3.829  -0.410   0.456  0.00  0.00    +0.069 C 
ATOM      8  C   UNL     1       4.380  -1.666   0.243  0.00  0.00    +0.074 C 
ATOM      9  C   UNL     1       3.637  -2.909  -0.056  0.00  0.00    +0.133 C 
ATOM     10  N   UNL     1       2.344  -3.052  -0.174  0.00  0.00    -0.085 NA
ATOM     11  C   UNL     1       4.676  -3.957  -0.194  0.00  0.00    +0.029 A 
ATOM     12  C   UNL     1       4.615  -5.319  -0.469  0.00  0.00    +0.050 A 
ATOM     13  C   UNL     1       5.781  -6.059  -0.536  0.00  0.00    +0.124 A 
ATOM     14  C   UNL     1       7.006  -5.443  -0.328  0.00  0.00    +0.040 A 
ATOM     15  C   UNL     1       7.075  -4.093  -0.054  0.00  0.00    +0.027 A 
ATOM     16  C   UNL     1       5.911  -3.332   0.016  0.00  0.00    +0.041 A 
ATOM     17  N   UNL     1       5.713  -1.979   0.266  0.00  0.00    -0.312 N 
ATOM     18  F   UNL     1       5.727  -7.382  -0.803  0.00  0.00    -0.205 F 
ATOM     19  C   UNL     1       4.382   0.888   0.051  0.00  0.00    +0.251 C 
ATOM     20  O   UNL     1       5.430   1.065  -0.544  0.00  0.00    -0.270 OA
ATOM     21  N   UNL     1       3.530   1.847   0.452  0.00  0.00    -0.281 N 
ATOM     22  H   UNL     1       6.424  -1.342   0.437  0.00  0.00    +0.152 HD
ATOM     23  H   UNL     1       3.666   2.796   0.305  0.00  0.00    +0.155 HD
ENDROOT
BRANCH   6  24
ATOM     24  N   UNL     1      -0.575  -1.091   2.951  0.00  0.00    +0.056 N 
ATOM     25  O   UNL     1      -1.479  -0.560   3.554  0.00  0.00    -0.126 OA
ATOM     26  O   UNL     1      -0.527  -2.297   2.874  0.00  0.00    -0.126 OA
ENDBRANCH   6  24
BRANCH  10  27
ATOM     27  O   UNL     1       1.517  -1.914  -0.335  0.00  0.00    -0.409 OA
ATOM     28  H   UNL     1       0.756  -2.059  -0.913  0.00  0.00    +0.328 HD
ENDBRANCH  10  27
TORSDOF 2
