REMARK  Name = CHEMBL325023
REMARK  6 active torsions:
REMARK  status: ('A' for Active; 'I' for Inactive)
REMARK    1  A    between atoms: C_1  and  C_2
REMARK    2  A    between atoms: C_3  and  C_8
REMARK    3  A    between atoms: C_5  and  C_7
REMARK    4  A    between atoms: C_18  and  N_22
REMARK    5  A    between atoms: N_25  and  N_26
REMARK    6  A    between atoms: N_29  and  C_32
REMARK                            x       y       z     vdW  Elec       q    Type
REMARK                         _______ _______ _______ _____ _____    ______ ____
ROOT
ATOM      1  C   UNL     1      -0.150  -0.386  -2.626  0.00  0.00    +0.085 A 
ATOM      2  C   UNL     1      -0.319  -1.247  -3.707  0.00  0.00    +0.076 A 
ATOM      3  C   UNL     1      -0.349  -0.407  -4.908  0.00  0.00    +0.105 A 
ATOM      4  N   UNL     1      -0.205   0.836  -4.520  0.00  0.00    -0.173 NA
ATOM      5  H   UNL     1       0.026   1.689  -2.601  0.00  0.00    +0.189 HD
ATOM      6  N   UNL     1      -0.086   0.882  -3.128  0.00  0.00    -0.275 N 
ATOM      7  C   UNL     1      -0.529  -1.305  -6.076  0.00  0.00    +0.015 A 
ATOM      8  C   UNL     1      -0.623  -1.042  -7.436  0.00  0.00    +0.011 A 
ATOM      9  C   UNL     1      -0.792  -2.079  -8.338  0.00  0.00    +0.002 A 
ATOM     10  C   UNL     1      -0.870  -3.385  -7.897  0.00  0.00    +0.024 A 
ATOM     11  C   UNL     1      -0.778  -3.672  -6.540  0.00  0.00    +0.046 A 
ATOM     12  C   UNL     1      -0.606  -2.632  -5.618  0.00  0.00    +0.053 A 
ATOM     13  C   UNL     1      -0.480  -2.637  -4.146  0.00  0.00    +0.200 C 
ATOM     14  O   UNL     1      -0.504  -3.619  -3.427  0.00  0.00    -0.286 OA
ENDROOT
BRANCH   1  17
ATOM     15  C   UNL     1      -1.746   0.843  -0.254  0.00  0.00    +0.067 C 
ATOM     16  C   UNL     1      -0.737  -0.269  -0.121  0.00  0.00    +0.055 A 
ATOM     17  C   UNL     1      -0.062  -0.769  -1.212  0.00  0.00    +0.060 A 
ATOM     18  S   UNL     1       0.949  -2.015  -0.428  0.00  0.00    -0.071 S 
ATOM     19  C   UNL     1       0.425  -1.776   1.153  0.00  0.00    +0.076 A 
ATOM     20  N   UNL     1      -0.451  -0.805   1.041  0.00  0.00    -0.249 NA
ATOM     21  C   UNL     1       0.862  -2.500   2.401  0.00  0.00    +0.073 C 
ENDBRANCH   1  17
BRANCH  11  22
ATOM     22  N   UNL     1      -0.858  -4.990  -6.098  0.00  0.00    -0.268 N 
ATOM     23  C   UNL     1      -1.497  -5.913  -6.843  0.00  0.00    +0.318 C 
ATOM     24  O   UNL     1      -2.095  -5.576  -7.848  0.00  0.00    -0.251 OA
ATOM     25  N   UNL     1      -1.475  -7.210  -6.476  0.00  0.00    -0.232 N 
ATOM     26  H   UNL     1      -0.452  -5.245  -5.255  0.00  0.00    +0.156 HD
ATOM     27  H   UNL     1      -1.936  -7.874  -7.012  0.00  0.00    +0.171 HD
BRANCH  25  28
ATOM     28  N   UNL     1      -0.804  -7.588  -5.348  0.00  0.00    -0.229 NA
ATOM     29  C   UNL     1       0.314  -8.484  -5.676  0.00  0.00    +0.087 C 
ATOM     30  C   UNL     1       1.074  -8.836  -4.395  0.00  0.00    -0.062 C 
ATOM     31  N   UNL     1       0.161  -9.491  -3.448  0.00  0.00    +0.380 N 
ATOM     32  C   UNL     1      -0.937  -8.575  -3.111  0.00  0.00    -0.062 C 
ATOM     33  C   UNL     1      -1.714  -8.221  -4.381  0.00  0.00    +0.087 C 
ATOM     34  C   UNL     1       0.895  -9.845  -2.226  0.00  0.00    -0.096 C 
ATOM     35  H   UNL     1      -0.215 -10.327  -3.868  0.00  0.00    -0.082 HD
ENDBRANCH  25  28
ENDBRANCH  11  22
TORSDOF 3
