REMARK  Name = CHEMBL411887
REMARK  6 active torsions:
REMARK  status: ('A' for Active; 'I' for Inactive)
REMARK    1  A    between atoms: C_1  and  C_2
REMARK    2  A    between atoms: C_2  and  N_18
REMARK    3  A    between atoms: C_6  and  C_13
REMARK    4  A    between atoms: N_18  and  C_19
REMARK    5  A    between atoms: C_22  and  S_25
REMARK    6  A    between atoms: S_25  and  N_28
REMARK                            x       y       z     vdW  Elec       q    Type
REMARK                         _______ _______ _______ _____ _____    ______ ____
ROOT
ATOM      1  C   UNL     1       0.210   1.468  -0.005  0.00  0.00    +0.061 C 
ATOM      2  C   UNL     1       0.058  -0.030  -0.046  0.00  0.00    +0.018 C 
ATOM      3  C   UNL     1       0.059  -0.748   1.115  0.00  0.00    +0.063 C 
ATOM      4  C   UNL     1       0.003  -2.222   1.263  0.00  0.00    +0.010 A 
ATOM      5  C   UNL     1      -0.062  -3.267   0.351  0.00  0.00    +0.022 A 
ATOM      6  C   UNL     1      -0.104  -4.581   0.812  0.00  0.00    +0.020 A 
ATOM      7  C   UNL     1      -0.079  -4.837   2.186  0.00  0.00    +0.013 A 
ATOM      8  C   UNL     1      -0.015  -3.799   3.088  0.00  0.00    +0.024 A 
ATOM      9  C   UNL     1       0.027  -2.481   2.641  0.00  0.00    +0.042 A 
ATOM     10  N   UNL     1       0.093  -1.275   3.329  0.00  0.00    -0.281 N 
ATOM     11  C   UNL     1       0.121  -0.229   2.486  0.00  0.00    +0.250 C 
ATOM     12  O   UNL     1       0.183   0.945   2.804  0.00  0.00    -0.270 OA
ATOM     13  H   UNL     1       0.120  -1.198   4.295  0.00  0.00    +0.155 HD
ENDROOT
BRANCH   6  14
ATOM     14  C   UNL     1      -0.174  -5.702  -0.149  0.00  0.00    +0.155 A 
ATOM     15  C   UNL     1      -0.225  -7.025   0.152  0.00  0.00    +0.160 A 
ATOM     16  N   UNL     1      -0.280  -7.701  -1.005  0.00  0.00    -0.224 NA
ATOM     17  C   UNL     1      -0.265  -6.851  -1.992  0.00  0.00    +0.308 A 
ATOM     18  O   UNL     1      -0.205  -5.607  -1.497  0.00  0.00    -0.442 OA
ENDBRANCH   6  14
BRANCH   2  19
ATOM     19  N   UNL     1      -0.080  -0.668  -1.241  0.00  0.00    -0.317 N 
ATOM     20  H   UNL     1       0.561  -1.347  -1.505  0.00  0.00    +0.152 HD
BRANCH  19  21
ATOM     21  C   UNL     1      -1.143  -0.344  -2.087  0.00  0.00    +0.031 A 
ATOM     22  C   UNL     1      -2.139   0.522  -1.654  0.00  0.00    +0.025 A 
ATOM     23  C   UNL     1      -3.189   0.840  -2.493  0.00  0.00    +0.030 A 
ATOM     24  C   UNL     1      -3.249   0.298  -3.764  0.00  0.00    +0.105 A 
ATOM     25  C   UNL     1      -2.260  -0.565  -4.198  0.00  0.00    +0.030 A 
ATOM     26  C   UNL     1      -1.205  -0.883  -3.366  0.00  0.00    +0.025 A 
BRANCH  24  27
ATOM     27  S   UNL     1      -4.591   0.706  -4.831  0.00  0.00    +0.056 S 
ATOM     28  O   UNL     1      -4.704  -0.357  -5.766  0.00  0.00    -0.153 OA
ATOM     29  O   UNL     1      -5.669   1.102  -3.994  0.00  0.00    -0.153 OA
BRANCH  27  30
ATOM     30  N   UNL     1      -4.141   2.048  -5.691  0.00  0.00    -0.204 NA
ATOM     31  H   UNL     1      -4.488   2.188  -6.586  0.00  0.00    +0.144 HD
ATOM     32  H   UNL     1      -3.531   2.693  -5.300  0.00  0.00    +0.144 HD
ENDBRANCH  27  30
ENDBRANCH  24  27
ENDBRANCH  19  21
ENDBRANCH   2  19
TORSDOF 5
