REMARK  Name = CHEMBL360695
REMARK  5 active torsions:
REMARK  status: ('A' for Active; 'I' for Inactive)
REMARK    1  A    between atoms: C_1  and  N_2
REMARK    2  A    between atoms: N_5  and  S_8
REMARK    3  A    between atoms: S_8  and  C_11
REMARK    4  A    between atoms: C_14  and  N_17
REMARK    5  A    between atoms: C_28  and  C_30
REMARK                            x       y       z     vdW  Elec       q    Type
REMARK                         _______ _______ _______ _____ _____    ______ ____
ROOT
ATOM      1  N   UNL     1       7.481  -1.386  -0.356  0.00  0.00    -0.231 N 
ATOM      2  C   UNL     1       8.496  -1.663   0.518  0.00  0.00    +0.086 A 
ATOM      3  C   UNL     1       9.588  -0.881   0.114  0.00  0.00    +0.033 A 
ATOM      4  C   UNL     1      10.799  -0.935   0.812  0.00  0.00    +0.014 A 
ATOM      5  C   UNL     1      10.932  -1.749   1.894  0.00  0.00    +0.028 A 
ATOM      6  C   UNL     1       9.863  -2.542   2.323  0.00  0.00    +0.068 A 
ATOM      7  C   UNL     1       8.636  -2.505   1.639  0.00  0.00    +0.045 A 
ATOM      8  C   UNL     1       7.767  -3.401   2.301  0.00  0.00    +0.144 A 
ATOM      9  N   UNL     1       8.404  -3.938   3.301  0.00  0.00    -0.181 NA
ATOM     10  N   UNL     1       9.709  -3.435   3.352  0.00  0.00    -0.277 N 
ATOM     11  H   UNL     1      10.387  -3.675   4.003  0.00  0.00    +0.189 HD
ATOM     12  C   UNL     1       9.095  -0.145  -1.058  0.00  0.00    +0.155 A 
ATOM     13  N   UNL     1       7.848  -0.528  -1.239  0.00  0.00    -0.161 NA
ENDROOT
BRANCH   1  17
ATOM     14  C   UNL     1       3.693  -3.113  -0.186  0.00  0.00    +0.106 A 
ATOM     15  C   UNL     1       4.345  -2.998  -1.401  0.00  0.00    +0.030 A 
ATOM     16  C   UNL     1       5.601  -2.426  -1.460  0.00  0.00    +0.030 A 
ATOM     17  C   UNL     1       6.208  -1.966  -0.299  0.00  0.00    +0.066 A 
ATOM     18  C   UNL     1       5.550  -2.082   0.918  0.00  0.00    +0.030 A 
ATOM     19  C   UNL     1       4.293  -2.651   0.971  0.00  0.00    +0.030 A 
BRANCH  14  20
ATOM     20  S   UNL     1       2.092  -3.845  -0.115  0.00  0.00    +0.061 S 
ATOM     21  O   UNL     1       1.923  -4.324   1.212  0.00  0.00    -0.153 OA
ATOM     22  O   UNL     1       1.980  -4.691  -1.251  0.00  0.00    -0.153 OA
BRANCH  20  27
ATOM     23  C   UNL     1      -0.029   1.396  -0.945  0.00  0.00    +0.105 C 
ATOM     24  N   UNL     1      -0.007  -0.056  -0.728  0.00  0.00    -0.303 NA
ATOM     25  C   UNL     1       0.669  -0.744  -1.836  0.00  0.00    +0.101 C 
ATOM     26  C   UNL     1       0.514  -2.259  -1.664  0.00  0.00    +0.125 C 
ATOM     27  N   UNL     1       0.988  -2.627  -0.322  0.00  0.00    -0.174 NA
ATOM     28  C   UNL     1       0.456  -1.886   0.832  0.00  0.00    +0.125 C 
ATOM     29  C   UNL     1       0.614  -0.386   0.562  0.00  0.00    +0.101 C 
ENDBRANCH  20  27
ENDBRANCH  14  20
ENDBRANCH   1  17
BRANCH  12  30
ATOM     30  C   UNL     1       9.847   0.826  -1.873  0.00  0.00    +0.262 C 
ATOM     31  O   UNL     1      11.002   1.087  -1.595  0.00  0.00    -0.269 OA
ATOM     32  N   UNL     1       9.255   1.425  -2.925  0.00  0.00    -0.324 N 
ATOM     33  H   UNL     1       8.334   1.216  -3.147  0.00  0.00    +0.145 HD
ATOM     34  H   UNL     1       9.750   2.064  -3.461  0.00  0.00    +0.145 HD
ENDBRANCH  12  30
TORSDOF 4
