REMARK  Name = CHEMBL321517
REMARK  6 active torsions:
REMARK  status: ('A' for Active; 'I' for Inactive)
REMARK    1  A    between atoms: C_3  and  N_24
REMARK    2  A    between atoms: C_6  and  C_7
REMARK    3  A    between atoms: C_9  and  N_13
REMARK    4  A    between atoms: N_13  and  C_14
REMARK    5  A    between atoms: C_17  and  S_20
REMARK    6  A    between atoms: S_20  and  N_23
REMARK                            x       y       z     vdW  Elec       q    Type
REMARK                         _______ _______ _______ _____ _____    ______ ____
ROOT
ATOM      1  C   UNL     1      -1.288  -0.759  -0.156  0.00  0.00    +0.065 A 
ATOM      2  C   UNL     1      -1.419  -2.159  -0.222  0.00  0.00    +0.070 A 
ATOM      3  C   UNL     1      -2.725  -2.464   0.001  0.00  0.00    +0.117 A 
ATOM      4  N   UNL     1      -3.394  -1.298   0.200  0.00  0.00    -0.286 N 
ATOM      5  H   UNL     1      -4.343  -1.209   0.383  0.00  0.00    +0.188 HD
ATOM      6  N   UNL     1      -2.473  -0.248   0.102  0.00  0.00    -0.298 N 
ATOM      7  H   UNL     1      -2.674   0.696   0.205  0.00  0.00    +0.187 HD
ENDROOT
BRANCH   1  13
ATOM      8  C   UNL     1      -0.040   1.397  -0.244  0.00  0.00    +0.012 A 
ATOM      9  C   UNL     1       1.130   2.107  -0.415  0.00  0.00    +0.023 A 
ATOM     10  C   UNL     1       2.318   1.437  -0.685  0.00  0.00    +0.025 A 
ATOM     11  C   UNL     1       2.329   0.050  -0.782  0.00  0.00    +0.023 A 
ATOM     12  C   UNL     1       1.161  -0.663  -0.611  0.00  0.00    +0.012 A 
ATOM     13  C   UNL     1      -0.030   0.007  -0.341  0.00  0.00    -0.000 A 
BRANCH  10  14
ATOM     14  N   UNL     1       3.501   2.158  -0.858  0.00  0.00    -0.358 N 
ATOM     15  H   UNL     1       3.494   3.125  -0.790  0.00  0.00    +0.142 HD
ATOM     16  H   UNL     1       4.330   1.690  -1.046  0.00  0.00    +0.142 HD
ENDBRANCH  10  14
ENDBRANCH   1  13
BRANCH   3  17
ATOM     17  N   UNL     1      -3.278  -3.742   0.022  0.00  0.00    -0.300 N 
ATOM     18  H   UNL     1      -2.703  -4.521  -0.044  0.00  0.00    +0.154 HD
BRANCH  17  19
ATOM     19  C   UNL     1      -4.661  -3.903   0.137  0.00  0.00    +0.032 A 
ATOM     20  C   UNL     1      -5.521  -2.984  -0.451  0.00  0.00    +0.025 A 
ATOM     21  C   UNL     1      -6.887  -3.146  -0.335  0.00  0.00    +0.030 A 
ATOM     22  C   UNL     1      -7.400  -4.222   0.366  0.00  0.00    +0.105 A 
ATOM     23  C   UNL     1      -6.548  -5.139   0.953  0.00  0.00    +0.030 A 
ATOM     24  C   UNL     1      -5.180  -4.986   0.836  0.00  0.00    +0.025 A 
BRANCH  22  25
ATOM     25  S   UNL     1      -9.145  -4.424   0.512  0.00  0.00    +0.056 S 
ATOM     26  O   UNL     1      -9.366  -5.207   1.677  0.00  0.00    -0.153 OA
ATOM     27  O   UNL     1      -9.719  -3.136   0.339  0.00  0.00    -0.153 OA
BRANCH  25  28
ATOM     28  N   UNL     1      -9.641  -5.341  -0.775  0.00  0.00    -0.204 NA
ATOM     29  H   UNL     1     -10.413  -5.921  -0.688  0.00  0.00    +0.144 HD
ATOM     30  H   UNL     1      -9.159  -5.297  -1.616  0.00  0.00    +0.144 HD
ENDBRANCH  25  28
ENDBRANCH  22  25
ENDBRANCH  17  19
ENDBRANCH   3  17
TORSDOF 6
