REMARK  Name = CHEMBL318076
REMARK  2 active torsions:
REMARK  status: ('A' for Active; 'I' for Inactive)
REMARK    1  A    between atoms: C_22  and  C_25
REMARK    2  A    between atoms: C_25  and  O_26
REMARK                            x       y       z     vdW  Elec       q    Type
REMARK                         _______ _______ _______ _____ _____    ______ ____
ROOT
ATOM      1  C   UNL     1       0.999   3.220  -0.758  0.00  0.00    +0.001 A 
ATOM      2  C   UNL     1       2.192   3.384  -0.061  0.00  0.00    +0.006 A 
ATOM      3  C   UNL     1       3.112   2.369   0.005  0.00  0.00    -0.023 A 
ATOM      4  C   UNL     1       2.783   1.189  -0.659  0.00  0.00    +0.054 A 
ATOM      5  C   UNL     1       1.587   1.005  -1.364  0.00  0.00    +0.009 A 
ATOM      6  C   UNL     1       0.662   2.048  -1.420  0.00  0.00    +0.010 A 
ATOM      7  C   UNL     1       1.653  -0.355  -1.891  0.00  0.00    +0.023 A 
ATOM      8  C   UNL     1       0.783  -1.133  -2.668  0.00  0.00    +0.060 A 
ATOM      9  C   UNL     1       1.135  -2.445  -3.025  0.00  0.00    +0.060 A 
ATOM     10  C   UNL     1       2.360  -2.982  -2.606  0.00  0.00    +0.022 A 
ATOM     11  C   UNL     1       3.018  -4.273  -2.795  0.00  0.00    +0.008 A 
ATOM     12  C   UNL     1       2.626  -5.426  -3.478  0.00  0.00    +0.013 A 
ATOM     13  C   UNL     1       3.506  -6.493  -3.459  0.00  0.00    +0.039 A 
ATOM     14  C   UNL     1       4.721  -6.426  -2.793  0.00  0.00    +0.125 A 
ATOM     15  C   UNL     1       5.126  -5.289  -2.110  0.00  0.00    +0.064 A 
ATOM     16  C   UNL     1       4.256  -4.200  -2.116  0.00  0.00    +0.050 A 
ATOM     17  N   UNL     1       4.364  -2.960  -1.546  0.00  0.00    -0.352 N 
ATOM     18  H   UNL     1       5.121  -2.653  -1.022  0.00  0.00    +0.166 HD
ATOM     19  C   UNL     1       3.235  -2.205  -1.825  0.00  0.00    +0.073 A 
ATOM     20  C   UNL     1       2.890  -0.896  -1.466  0.00  0.00    +0.075 A 
ATOM     21  N   UNL     1       3.558   0.052  -0.725  0.00  0.00    -0.333 N 
ATOM     22  C   UNL     1       4.869   0.013  -0.061  0.00  0.00    +0.114 C 
ATOM     23  C   UNL     1       5.413   1.445   0.022  0.00  0.00    +0.032 C 
ATOM     24  C   UNL     1       4.433   2.397   0.717  0.00  0.00    +0.039 C 
ATOM     25  F   UNL     1       5.536  -7.503  -2.811  0.00  0.00    -0.205 F 
ATOM     26  C   UNL     1       0.012  -2.962  -3.828  0.00  0.00    +0.252 C 
ATOM     27  O   UNL     1      -0.056  -4.071  -4.321  0.00  0.00    -0.270 OA
ATOM     28  N   UNL     1      -0.925  -2.002  -3.922  0.00  0.00    -0.248 N 
ATOM     29  C   UNL     1      -0.543  -0.892  -3.264  0.00  0.00    +0.252 C 
ATOM     30  O   UNL     1      -1.185   0.136  -3.176  0.00  0.00    -0.270 OA
ATOM     31  H   UNL     1      -1.763  -2.096  -4.401  0.00  0.00    +0.158 HD
ENDROOT
BRANCH  22  32
ATOM     32  C   UNL     1       5.831  -0.857  -0.871  0.00  0.00    +0.180 C 
BRANCH  32  33
ATOM     33  O   UNL     1       5.290  -1.079  -2.175  0.00  0.00    -0.393 OA
ATOM     34  H   UNL     1       5.849  -1.625  -2.745  0.00  0.00    +0.209 HD
ENDBRANCH  32  33
ENDBRANCH  22  32
TORSDOF 2
