REMARK  Name = CHEMBL484990
REMARK  3 active torsions:
REMARK  status: ('A' for Active; 'I' for Inactive)
REMARK    1  A    between atoms: C_4  and  C_7
REMARK    2  A    between atoms: C_7  and  N_8
REMARK    3  A    between atoms: C_14  and  C_15
REMARK                            x       y       z     vdW  Elec       q    Type
REMARK                         _______ _______ _______ _____ _____    ______ ____
ROOT
ATOM      1  N   UNL     1       4.152  -0.952   1.338  0.00  0.00    -0.321 N 
ATOM      2  C   UNL     1       5.331  -1.612   1.573  0.00  0.00    +0.152 C 
ATOM      3  N   UNL     1       6.195  -2.089   0.692  0.00  0.00    -0.154 NA
ATOM      4  C   UNL     1       7.299  -2.708   1.052  0.00  0.00    +0.276 C 
ATOM      5  O   UNL     1       8.090  -3.144   0.229  0.00  0.00    -0.267 OA
ATOM      6  C   UNL     1       7.532  -2.846   2.504  0.00  0.00    +0.079 C 
ATOM      7  C   UNL     1       8.568  -3.427   3.169  0.00  0.00    +0.030 C 
ATOM      8  S   UNL     1       6.076  -2.027   3.142  0.00  0.00    -0.052 S 
ATOM      9  H   UNL     1       3.610  -0.648   2.082  0.00  0.00    +0.148 HD
ENDROOT
BRANCH   7  10
ATOM     10  C   UNL     1       8.581  -3.442   4.631  0.00  0.00    +0.003 A 
ATOM     11  C   UNL     1       7.630  -2.923   5.465  0.00  0.00    +0.093 A 
ATOM     12  N   UNL     1       7.993  -3.130   6.757  0.00  0.00    -0.345 N 
ATOM     13  H   UNL     1       7.476  -2.850   7.528  0.00  0.00    +0.167 HD
ATOM     14  C   UNL     1       9.198  -3.794   6.821  0.00  0.00    +0.139 A 
ATOM     15  C   UNL     1       9.619  -4.027   5.500  0.00  0.00    +0.026 A 
ATOM     16  C   UNL     1      10.819  -4.694   5.268  0.00  0.00    +0.013 A 
ATOM     17  C   UNL     1      11.555  -5.111   6.363  0.00  0.00    +0.020 A 
ATOM     18  C   UNL     1      11.080  -4.852   7.638  0.00  0.00    +0.113 A 
ATOM     19  N   UNL     1       9.946  -4.212   7.833  0.00  0.00    -0.237 NA
ENDBRANCH   7  10
BRANCH   1  20
ATOM     20  C   UNL     1       3.711  -0.707  -0.038  0.00  0.00    +0.138 C 
BRANCH  20  24
ATOM     21  C   UNL     1      -0.017   1.378   0.010  0.00  0.00    +0.000 A 
ATOM     22  C   UNL     1       1.171   2.086   0.002  0.00  0.00    +0.000 A 
ATOM     23  C   UNL     1       2.377   1.411  -0.013  0.00  0.00    +0.005 A 
ATOM     24  C   UNL     1       2.396   0.029  -0.020  0.00  0.00    -0.030 A 
ATOM     25  C   UNL     1       1.208  -0.679  -0.012  0.00  0.00    +0.005 A 
ATOM     26  C   UNL     1       0.002  -0.004   0.002  0.00  0.00    +0.000 A 
ENDBRANCH  20  24
ENDBRANCH   1  20
TORSDOF 3
