REMARK  Name = CHEMBL345525
REMARK  6 active torsions:
REMARK  status: ('A' for Active; 'I' for Inactive)
REMARK    1  A    between atoms: C_1  and  N_2
REMARK    2  A    between atoms: N_5  and  N_8
REMARK    3  A    between atoms: N_11  and  C_12
REMARK    4  A    between atoms: C_25  and  C_26
REMARK    5  A    between atoms: C_29  and  O_32
REMARK    6  A    between atoms: O_32  and  C_33
REMARK                            x       y       z     vdW  Elec       q    Type
REMARK                         _______ _______ _______ _____ _____    ______ ____
ROOT
ATOM      1  C   UNL     1      -2.391  -4.653   4.060  0.00  0.00    +0.046 A 
ATOM      2  C   UNL     1      -2.392  -6.049   4.111  0.00  0.00    +0.024 A 
ATOM      3  C   UNL     1      -3.058  -6.704   5.122  0.00  0.00    +0.002 A 
ATOM      4  C   UNL     1      -3.735  -5.988   6.102  0.00  0.00    +0.011 A 
ATOM      5  C   UNL     1      -3.747  -4.602   6.070  0.00  0.00    +0.013 A 
ATOM      6  C   UNL     1      -3.063  -3.926   5.042  0.00  0.00    +0.053 A 
ATOM      7  C   UNL     1      -3.242  -2.474   5.268  0.00  0.00    +0.200 C 
ATOM      8  O   UNL     1      -2.798  -1.576   4.581  0.00  0.00    -0.286 OA
ATOM      9  C   UNL     1      -4.062  -2.325   6.487  0.00  0.00    +0.075 A 
ATOM     10  C   UNL     1      -4.371  -3.593   6.959  0.00  0.00    +0.078 A 
ATOM     11  N   UNL     1      -5.124  -3.436   8.069  0.00  0.00    -0.276 N 
ATOM     12  N   UNL     1      -5.308  -2.067   8.293  0.00  0.00    -0.173 NA
ATOM     13  H   UNL     1      -5.478  -4.152   8.620  0.00  0.00    +0.189 HD
ATOM     14  C   UNL     1      -4.667  -1.391   7.362  0.00  0.00    +0.104 A 
ENDROOT
BRANCH   1  18
ATOM     15  N   UNL     1      -1.099  -3.845   0.792  0.00  0.00    -0.232 N 
ATOM     16  C   UNL     1      -1.673  -4.528   1.803  0.00  0.00    +0.318 C 
ATOM     17  O   UNL     1      -2.150  -5.627   1.600  0.00  0.00    -0.251 OA
ATOM     18  N   UNL     1      -1.717  -3.992   3.039  0.00  0.00    -0.268 N 
ATOM     19  H   UNL     1      -1.067  -4.231  -0.097  0.00  0.00    +0.171 HD
ATOM     20  H   UNL     1      -1.279  -3.144   3.216  0.00  0.00    +0.156 HD
BRANCH  15  25
ATOM     21  C   UNL     1       1.381   1.111   0.549  0.00  0.00    +0.105 C 
ATOM     22  N   UNL     1       0.804  -0.217   0.304  0.00  0.00    -0.303 NA
ATOM     23  C   UNL     1      -0.648  -0.212   0.535  0.00  0.00    +0.101 C 
ATOM     24  C   UNL     1      -1.221  -1.589   0.193  0.00  0.00    +0.121 C 
ATOM     25  N   UNL     1      -0.563  -2.610   1.020  0.00  0.00    -0.223 NA
ATOM     26  C   UNL     1       0.888  -2.615   0.790  0.00  0.00    +0.121 C 
ATOM     27  C   UNL     1       1.462  -1.238   1.132  0.00  0.00    +0.101 C 
ENDBRANCH  15  25
ENDBRANCH   1  18
BRANCH  14  28
ATOM     28  C   UNL     1      -4.612   0.084   7.237  0.00  0.00    +0.003 A 
ATOM     29  C   UNL     1      -3.463   0.701   6.742  0.00  0.00    +0.013 A 
ATOM     30  C   UNL     1      -3.414   2.074   6.628  0.00  0.00    +0.046 A 
ATOM     31  C   UNL     1      -4.507   2.843   7.005  0.00  0.00    +0.120 A 
ATOM     32  C   UNL     1      -5.652   2.232   7.499  0.00  0.00    +0.046 A 
ATOM     33  C   UNL     1      -5.710   0.859   7.610  0.00  0.00    +0.013 A 
BRANCH  31  34
ATOM     34  O   UNL     1      -4.455   4.196   6.892  0.00  0.00    -0.495 OA
ATOM     35  C   UNL     1      -5.615   4.926   7.299  0.00  0.00    +0.277 C 
ENDBRANCH  31  34
ENDBRANCH  14  28
TORSDOF 4
