REMARK  Name = CHEMBL188863
REMARK  5 active torsions:
REMARK  status: ('A' for Active; 'I' for Inactive)
REMARK    1  A    between atoms: C_1  and  C_2
REMARK    2  A    between atoms: C_2  and  C_3
REMARK    3  A    between atoms: C_7  and  C_11
REMARK    4  A    between atoms: C_11  and  C_12
REMARK    5  A    between atoms: N_18  and  C_20
REMARK                            x       y       z     vdW  Elec       q    Type
REMARK                         _______ _______ _______ _____ _____    ______ ____
ROOT
ATOM      1  C   UNL     1       0.718  -0.426  -1.261  0.00  0.00    +0.078 A 
ATOM      2  C   UNL     1       0.091  -0.815  -2.459  0.00  0.00    +0.106 A 
ATOM      3  C   UNL     1       1.094  -1.286  -3.322  0.00  0.00    +0.171 A 
ATOM      4  N   UNL     1       0.754  -1.723  -4.544  0.00  0.00    -0.214 NA
ATOM      5  C   UNL     1      -0.480  -1.724  -4.955  0.00  0.00    +0.116 A 
ATOM      6  N   UNL     1      -1.514  -1.289  -4.191  0.00  0.00    -0.310 N 
ATOM      7  C   UNL     1      -1.291  -0.825  -2.939  0.00  0.00    +0.263 A 
ATOM      8  O   UNL     1      -2.206  -0.430  -2.239  0.00  0.00    -0.267 OA
ATOM      9  N   UNL     1       2.270  -1.173  -2.647  0.00  0.00    -0.211 N 
ATOM     10  N   UNL     1       2.001  -0.634  -1.382  0.00  0.00    -0.169 NA
ATOM     11  H   UNL     1      -2.418  -1.310  -4.544  0.00  0.00    +0.170 HD
ENDROOT
BRANCH   9  12
ATOM     12  C   UNL     1       3.535  -1.530  -3.135  0.00  0.00    +0.104 A 
ATOM     13  C   UNL     1       4.000  -0.986  -4.325  0.00  0.00    +0.069 A 
ATOM     14  C   UNL     1       5.247  -1.340  -4.804  0.00  0.00    +0.042 A 
ATOM     15  C   UNL     1       6.032  -2.235  -4.099  0.00  0.00    +0.044 A 
ATOM     16  C   UNL     1       5.572  -2.778  -2.913  0.00  0.00    +0.042 A 
ATOM     17  C   UNL     1       4.328  -2.424  -2.426  0.00  0.00    +0.069 A 
ATOM     18 CL   UNL     1       3.754  -3.100  -0.933  0.00  0.00    -0.081 Cl
ATOM     19 CL   UNL     1       7.598  -2.678  -4.704  0.00  0.00    -0.083 Cl
ATOM     20 CL   UNL     1       3.015   0.136  -5.212  0.00  0.00    -0.081 Cl
ENDBRANCH   9  12
BRANCH   1  22
ATOM     21  C   UNL     1      -0.039   1.666  -0.165  0.00  0.00    +0.010 C 
ATOM     22  C   UNL     1       0.027   0.142  -0.048  0.00  0.00    +0.055 C 
ENDBRANCH   1  22
BRANCH   5  23
ATOM     23  C   UNL     1      -0.775  -2.232  -6.343  0.00  0.00    +0.109 C 
BRANCH  23  24
ATOM     24  C   UNL     1       0.519  -2.540  -7.050  0.00  0.00    -0.037 A 
ATOM     25  C   UNL     1       1.170  -1.569  -7.795  0.00  0.00    +0.024 A 
ATOM     26  C   UNL     1       2.355  -1.889  -8.430  0.00  0.00    +0.111 A 
ATOM     27  N   UNL     1       2.866  -3.100  -8.334  0.00  0.00    -0.263 NA
ATOM     28  C   UNL     1       2.275  -4.049  -7.635  0.00  0.00    +0.111 A 
ATOM     29  C   UNL     1       1.090  -3.801  -6.967  0.00  0.00    +0.024 A 
ENDBRANCH  23  24
ENDBRANCH   5  23
TORSDOF 4
