REMARK  Name = CHEMBL186371
REMARK  2 active torsions:
REMARK  status: ('A' for Active; 'I' for Inactive)
REMARK    1  A    between atoms: C_5  and  N_7
REMARK    2  A    between atoms: C_14  and  C_16
REMARK                            x       y       z     vdW  Elec       q    Type
REMARK                         _______ _______ _______ _____ _____    ______ ____
ROOT
ATOM      1  N   UNL     1       1.211  -2.087  -0.021  0.00  0.00    -0.267 N 
ATOM      2  C   UNL     1       0.054  -2.769   0.089  0.00  0.00    +0.310 C 
ATOM      3  O   UNL     1      -1.005  -2.172   0.103  0.00  0.00    -0.252 OA
ATOM      4  N   UNL     1       0.071  -4.114   0.183  0.00  0.00    -0.248 N 
ATOM      5  C   UNL     1      -1.122  -4.818   0.296  0.00  0.00    +0.166 A 
ATOM      6  N   UNL     1      -2.350  -4.347   0.322  0.00  0.00    -0.233 NA
ATOM      7  C   UNL     1      -3.388  -5.154   0.435  0.00  0.00    +0.124 A 
ATOM      8  C   UNL     1      -3.130  -6.482   0.522  0.00  0.00    +0.014 A 
ATOM      9  S   UNL     1      -1.347  -6.481   0.425  0.00  0.00    -0.057 S 
ATOM     10  H   UNL     1       2.050  -2.565  -0.114  0.00  0.00    +0.156 HD
ATOM     11  H   UNL     1       0.916  -4.590   0.172  0.00  0.00    +0.158 HD
ENDROOT
BRANCH   1  16
ATOM     12  C   UNL     1       0.155   1.376   0.646  0.00  0.00    +0.004 A 
ATOM     13  C   UNL     1       1.167   2.098   0.053  0.00  0.00    +0.029 A 
ATOM     14  C   UNL     1       2.215   1.437  -0.578  0.00  0.00    +0.088 A 
ATOM     15  C   UNL     1       2.243   0.033  -0.611  0.00  0.00    +0.134 A 
ATOM     16  C   UNL     1       1.202  -0.690   0.001  0.00  0.00    +0.064 A 
ATOM     17  C   UNL     1       0.172  -0.011   0.621  0.00  0.00    +0.026 A 
ATOM     18  N   UNL     1       3.354  -0.340  -1.276  0.00  0.00    -0.128 NA
ATOM     19  N   UNL     1       4.015   0.696  -1.658  0.00  0.00    -0.067 NA
ATOM     20  N   UNL     1       3.342   1.856  -1.245  0.00  0.00    -0.257 N 
ATOM     21  H   UNL     1       3.618   2.773  -1.399  0.00  0.00    +0.191 HD
ENDBRANCH   1  16
BRANCH   8  22
ATOM     22  C   UNL     1      -4.084  -7.640   0.657  0.00  0.00    +0.027 C 
ATOM     23  C   UNL     1      -3.568  -8.759   1.577  0.00  0.00    +0.009 C 
ATOM     24  C   UNL     1      -4.155  -9.756   0.563  0.00  0.00    +0.001 C 
ATOM     25  C   UNL     1      -3.991  -8.653  -0.496  0.00  0.00    +0.009 C 
ENDBRANCH   8  22
TORSDOF 2
