REMARK  Name = CHEMBL181790
REMARK  3 active torsions:
REMARK  status: ('A' for Active; 'I' for Inactive)
REMARK    1  A    between atoms: N_11  and  C_17
REMARK    2  A    between atoms: C_13  and  C_14
REMARK    3  A    between atoms: C_17  and  C_18
REMARK                            x       y       z     vdW  Elec       q    Type
REMARK                         _______ _______ _______ _____ _____    ______ ____
ROOT
ATOM      1  C   UNL     1      -0.016   1.350   0.009  0.00  0.00    +0.115 A 
ATOM      2  C   UNL     1       1.260   1.768  -0.001  0.00  0.00    +0.041 A 
ATOM      3  C   UNL     1       2.106   0.617   0.029  0.00  0.00    +0.072 A 
ATOM      4  N   UNL     1       1.341  -0.427   0.012  0.00  0.00    -0.178 NA
ATOM      5  N   UNL     1       0.002  -0.004   0.002  0.00  0.00    -0.284 N 
ATOM      6  H   UNL     1      -0.776  -0.583  -0.009  0.00  0.00    +0.188 HD
ATOM      7  C   UNL     1       3.607   0.723   0.103  0.00  0.00    +0.063 C 
ATOM      8  C   UNL     1       4.110   1.987  -0.597  0.00  0.00    +0.046 C 
ATOM      9  C   UNL     1       3.251   3.176  -0.286  0.00  0.00    +0.011 A 
ATOM     10  C   UNL     1       1.897   3.099  -0.023  0.00  0.00    +0.076 A 
ATOM     11  N   UNL     1       1.452   4.350   0.168  0.00  0.00    -0.254 N 
ATOM     12  N   UNL     1       2.438   5.180   0.075  0.00  0.00    -0.165 NA
ATOM     13  C   UNL     1       3.562   4.537  -0.196  0.00  0.00    +0.151 A 
ENDROOT
BRANCH  13  14
ATOM     14  C   UNL     1       4.898   5.144  -0.371  0.00  0.00    +0.262 C 
ATOM     15  O   UNL     1       5.858   4.439  -0.619  0.00  0.00    -0.269 OA
ATOM     16  N   UNL     1       5.053   6.478  -0.257  0.00  0.00    -0.324 N 
ATOM     17  H   UNL     1       4.287   7.039  -0.059  0.00  0.00    +0.145 HD
ATOM     18  H   UNL     1       5.930   6.876  -0.371  0.00  0.00    +0.145 HD
ENDBRANCH  13  14
BRANCH  11  19
ATOM     19  C   UNL     1       0.061   4.719   0.441  0.00  0.00    +0.257 C 
BRANCH  19  20
ATOM     20  C   UNL     1      -0.179   4.717   1.952  0.00  0.00    +0.409 C 
ATOM     21  F   UNL     1       0.676   5.641   2.562  0.00  0.00    -0.169 F 
ATOM     22  F   UNL     1      -1.508   5.069   2.213  0.00  0.00    -0.169 F 
ATOM     23  F   UNL     1       0.073   3.439   2.463  0.00  0.00    -0.169 F 
ENDBRANCH  19  20
ENDBRANCH  11  19
TORSDOF 3
