REMARK  Name = CHEMBL360695
REMARK  5 active torsions:
REMARK  status: ('A' for Active; 'I' for Inactive)
REMARK    1  A    between atoms: C_1  and  N_2
REMARK    2  A    between atoms: N_5  and  S_8
REMARK    3  A    between atoms: S_8  and  C_11
REMARK    4  A    between atoms: C_14  and  N_17
REMARK    5  A    between atoms: C_28  and  C_30
REMARK                            x       y       z     vdW  Elec       q    Type
REMARK                         _______ _______ _______ _____ _____    ______ ____
ROOT
ATOM      1  N   UNL     1       7.583  -1.061  -0.105  0.00  0.00    -0.231 N 
ATOM      2  C   UNL     1       8.015  -0.145   0.814  0.00  0.00    +0.086 A 
ATOM      3  C   UNL     1       9.305   0.241   0.446  0.00  0.00    +0.033 A 
ATOM      4  C   UNL     1      10.032   1.185   1.201  0.00  0.00    +0.014 A 
ATOM      5  C   UNL     1       9.530   1.765   2.311  0.00  0.00    +0.031 A 
ATOM      6  C   UNL     1       8.189   1.424   2.775  0.00  0.00    +0.095 A 
ATOM      7  C   UNL     1       7.408   0.442   2.006  0.00  0.00    +0.046 A 
ATOM      8  C   UNL     1       6.200   0.309   2.654  0.00  0.00    +0.115 A 
ATOM      9  N   UNL     1       6.213   1.121   3.722  0.00  0.00    -0.284 N 
ATOM     10  N   UNL     1       7.434   1.802   3.788  0.00  0.00    -0.174 NA
ATOM     11  H   UNL     1       5.483   1.223   4.354  0.00  0.00    +0.188 HD
ATOM     12  C   UNL     1       9.626  -0.514  -0.773  0.00  0.00    +0.155 A 
ATOM     13  N   UNL     1       8.586  -1.270  -1.056  0.00  0.00    -0.161 NA
ENDROOT
BRANCH   1  17
ATOM     14  C   UNL     1       3.868  -2.947  -0.065  0.00  0.00    +0.106 A 
ATOM     15  C   UNL     1       4.464  -2.623  -1.270  0.00  0.00    +0.030 A 
ATOM     16  C   UNL     1       5.696  -1.998  -1.287  0.00  0.00    +0.030 A 
ATOM     17  C   UNL     1       6.335  -1.694  -0.091  0.00  0.00    +0.066 A 
ATOM     18  C   UNL     1       5.733  -2.021   1.117  0.00  0.00    +0.030 A 
ATOM     19  C   UNL     1       4.499  -2.641   1.126  0.00  0.00    +0.030 A 
BRANCH  14  20
ATOM     20  S   UNL     1       2.296  -3.744  -0.049  0.00  0.00    +0.061 S 
ATOM     21  O   UNL     1       2.200  -4.426   1.194  0.00  0.00    -0.153 OA
ATOM     22  O   UNL     1       2.167  -4.412  -1.296  0.00  0.00    -0.153 OA
BRANCH  20  27
ATOM     23  C   UNL     1      -0.018   1.465   0.010  0.00  0.00    -0.096 C 
ATOM     24  N   UNL     1       0.002  -0.004   0.002  0.00  0.00    +0.380 N 
ATOM     25  C   UNL     1       0.680  -0.476  -1.212  0.00  0.00    -0.062 C 
ATOM     26  C   UNL     1       0.601  -2.005  -1.279  0.00  0.00    +0.091 C 
ATOM     27  N   UNL     1       1.144  -2.555  -0.027  0.00  0.00    -0.180 NA
ATOM     28  C   UNL     1       0.635  -2.018   1.245  0.00  0.00    +0.091 C 
ATOM     29  C   UNL     1       0.713  -0.489   1.192  0.00  0.00    -0.062 C 
ATOM     30  H   UNL     1      -0.945  -0.352   0.012  0.00  0.00    -0.082 HD
ENDBRANCH  20  27
ENDBRANCH  14  20
ENDBRANCH   1  17
BRANCH  12  31
ATOM     31  C   UNL     1      10.885  -0.442  -1.536  0.00  0.00    +0.262 C 
ATOM     32  O   UNL     1      11.778   0.296  -1.167  0.00  0.00    -0.269 OA
ATOM     33  N   UNL     1      11.046  -1.194  -2.643  0.00  0.00    -0.324 N 
ATOM     34  H   UNL     1      10.333  -1.783  -2.937  0.00  0.00    +0.145 HD
ATOM     35  H   UNL     1      11.874  -1.147  -3.145  0.00  0.00    +0.145 HD
ENDBRANCH  12  31
TORSDOF 4
