REMARK  Name = CHEMBL380280
REMARK  7 active torsions:
REMARK  status: ('A' for Active; 'I' for Inactive)
REMARK    1  A    between atoms: C_1  and  C_2
REMARK    2  A    between atoms: C_2  and  C_4
REMARK    3  A    between atoms: C_2  and  C_18
REMARK    4  A    between atoms: C_7  and  N_10
REMARK    5  A    between atoms: C_13  and  O_17
REMARK    6  A    between atoms: N_20  and  C_21
REMARK    7  A    between atoms: C_23  and  C_27
REMARK                            x       y       z     vdW  Elec       q    Type
REMARK                         _______ _______ _______ _____ _____    ______ ____
ROOT
ATOM      1  C   UNL     1      -0.034   1.525   0.019  0.00  0.00    +0.022 C 
ATOM      2  C   UNL     1       0.002  -0.004   0.002  0.00  0.00    +0.102 C 
ENDROOT
BRANCH   2   3
ATOM      3  C   UNL     1       0.731  -0.503   1.223  0.00  0.00    -0.036 A 
ATOM      4  C   UNL     1       0.253  -0.199   2.484  0.00  0.00    +0.006 A 
ATOM      5  C   UNL     1       0.919  -0.655   3.605  0.00  0.00    +0.024 A 
ATOM      6  C   UNL     1       2.069  -1.420   3.465  0.00  0.00    +0.036 A 
ATOM      7  C   UNL     1       2.546  -1.725   2.196  0.00  0.00    +0.024 A 
ATOM      8  C   UNL     1       1.873  -1.270   1.079  0.00  0.00    +0.006 A 
BRANCH   6   9
ATOM      9  N   UNL     1       2.746  -1.883   4.598  0.00  0.00    -0.269 N 
ATOM     10  C   UNL     1       3.900  -2.790   4.561  0.00  0.00    +0.117 C 
ATOM     11  C   UNL     1       4.561  -2.672   5.952  0.00  0.00    +0.060 C 
ATOM     12  C   UNL     1       3.370  -2.227   6.831  0.00  0.00    +0.202 C 
ATOM     13  C   UNL     1       2.427  -1.551   5.861  0.00  0.00    +0.248 C 
ATOM     14  O   UNL     1       1.514  -0.817   6.176  0.00  0.00    -0.272 OA
BRANCH  12  15
ATOM     15  O   UNL     1       3.804  -1.303   7.831  0.00  0.00    -0.382 OA
ATOM     16  H   UNL     1       3.097  -0.991   8.412  0.00  0.00    +0.210 HD
ENDBRANCH  12  15
ENDBRANCH   6   9
ENDBRANCH   2   3
BRANCH   2  17
ATOM     17  C   UNL     1      -1.407  -0.540   0.004  0.00  0.00    +0.225 C 
ATOM     18  O   UNL     1      -1.782  -1.257   0.907  0.00  0.00    -0.275 OA
ATOM     19  N   UNL     1      -2.249  -0.223  -0.999  0.00  0.00    -0.270 N 
ATOM     20  H   UNL     1      -1.949   0.351  -1.722  0.00  0.00    +0.156 HD
BRANCH  19  21
ATOM     21  C   UNL     1      -3.553  -0.719  -0.997  0.00  0.00    +0.121 A 
ATOM     22  C   UNL     1      -4.106  -1.524  -0.050  0.00  0.00    +0.068 A 
ATOM     23  C   UNL     1      -5.426  -1.786  -0.428  0.00  0.00    +0.068 A 
ATOM     24  N   UNL     1      -5.661  -1.166  -1.556  0.00  0.00    -0.177 NA
ATOM     25  N   UNL     1      -4.499  -0.482  -1.934  0.00  0.00    -0.264 N 
ATOM     26  H   UNL     1      -4.392   0.064  -2.729  0.00  0.00    +0.190 HD
BRANCH  23  27
ATOM     27  C   UNL     1      -6.409  -2.638   0.333  0.00  0.00    +0.040 C 
ATOM     28  C   UNL     1      -5.850  -3.575   1.405  0.00  0.00    +0.010 C 
ATOM     29  C   UNL     1      -6.375  -4.147   0.087  0.00  0.00    +0.010 C 
ENDBRANCH  23  27
ENDBRANCH  19  21
ENDBRANCH   2  17
TORSDOF 6
