REMARK  Name = CHEMBL1083509
REMARK  10 active torsions:
REMARK  status: ('A' for Active; 'I' for Inactive)
REMARK    1  A    between atoms: C_1  and  C_2
REMARK    2  A    between atoms: C_3  and  C_26
REMARK    3  A    between atoms: C_4  and  C_18
REMARK    4  A    between atoms: C_6  and  S_8
REMARK    5  A    between atoms: S_8  and  C_11
REMARK    6  A    between atoms: C_11  and  C_12
REMARK    7  A    between atoms: C_21  and  O_25
REMARK    8  A    between atoms: C_23  and  O_24
REMARK    9  A    between atoms: N_28  and  C_29
REMARK   10  A    between atoms: C_33  and  N_35
REMARK                            x       y       z     vdW  Elec       q    Type
REMARK                         _______ _______ _______ _____ _____    ______ ____
ROOT
ATOM      1  C   UNL     1       0.253   1.305  -0.257  0.00  0.00    +0.066 C 
ATOM      2  C   UNL     1       0.182  -0.197  -0.158  0.00  0.00    +0.056 A 
ATOM      3  C   UNL     1      -0.168  -0.966  -1.272  0.00  0.00    +0.084 A 
ATOM      4  C   UNL     1      -0.218  -2.369  -1.120  0.00  0.00    +0.092 A 
ATOM      5  N   UNL     1       0.068  -2.894   0.071  0.00  0.00    -0.211 NA
ATOM      6  C   UNL     1       0.391  -2.122   1.087  0.00  0.00    +0.271 A 
ATOM      7  N   UNL     1       0.454  -0.808   0.982  0.00  0.00    -0.216 NA
ENDROOT
BRANCH   4   8
ATOM      8  C   UNL     1      -0.580  -3.239  -2.258  0.00  0.00    +0.043 A 
ATOM      9  C   UNL     1       0.074  -3.098  -3.483  0.00  0.00    +0.017 A 
ATOM     10  C   UNL     1      -0.266  -3.910  -4.542  0.00  0.00    +0.046 A 
ATOM     11  C   UNL     1      -1.260  -4.871  -4.396  0.00  0.00    +0.120 A 
ATOM     12  C   UNL     1      -1.916  -5.019  -3.183  0.00  0.00    +0.091 A 
ATOM     13  C   UNL     1      -1.578  -4.211  -2.110  0.00  0.00    +0.129 A 
BRANCH  13  14
ATOM     14  O   UNL     1      -2.215  -4.358  -0.920  0.00  0.00    -0.506 OA
ATOM     15  H   UNL     1      -3.009  -3.814  -0.829  0.00  0.00    +0.292 HD
ENDBRANCH  13  14
BRANCH  11  16
ATOM     16  O   UNL     1      -1.591  -5.668  -5.444  0.00  0.00    -0.507 OA
ATOM     17  H   UNL     1      -1.079  -6.487  -5.492  0.00  0.00    +0.292 HD
ENDBRANCH  11  16
ENDBRANCH   4   8
BRANCH   3  18
ATOM     18  C   UNL     1      -0.475  -0.331  -2.567  0.00  0.00    +0.252 C 
ATOM     19  O   UNL     1       0.414  -0.135  -3.374  0.00  0.00    -0.270 OA
ATOM     20  N   UNL     1      -1.740   0.031  -2.857  0.00  0.00    -0.281 N 
ATOM     21  H   UNL     1      -2.436  -0.062  -2.188  0.00  0.00    +0.155 HD
BRANCH  20  22
ATOM     22  C   UNL     1      -2.049   0.542  -4.121  0.00  0.00    +0.036 A 
ATOM     23  C   UNL     1      -3.275   0.254  -4.708  0.00  0.00    +0.023 A 
ATOM     24  C   UNL     1      -3.577   0.760  -5.956  0.00  0.00    +0.004 A 
ATOM     25  C   UNL     1      -2.661   1.553  -6.623  0.00  0.00    +0.033 A 
ATOM     26  C   UNL     1      -1.440   1.842  -6.042  0.00  0.00    +0.128 A 
ATOM     27  C   UNL     1      -1.134   1.344  -4.791  0.00  0.00    +0.056 A 
BRANCH  26  28
ATOM     28  N   UNL     1      -0.463   2.691  -6.760  0.00  0.00    +0.056 N 
ATOM     29  O   UNL     1      -0.732   3.131  -7.853  0.00  0.00    -0.126 OA
ATOM     30  O   UNL     1       0.605   2.943  -6.252  0.00  0.00    -0.126 OA
ENDBRANCH  26  28
ENDBRANCH  20  22
ENDBRANCH   3  18
BRANCH   6  31
ATOM     31  S   UNL     1       0.759  -2.870   2.640  0.00  0.00    +0.036 S 
ATOM     32  O   UNL     1       0.458  -1.871   3.604  0.00  0.00    -0.166 OA
ATOM     33  O   UNL     1       0.050  -4.101   2.627  0.00  0.00    -0.166 OA
BRANCH  31  34
ATOM     34  C   UNL     1       2.546  -3.178   2.597  0.00  0.00    +0.210 C 
BRANCH  34  35
ATOM     35  C   UNL     1       2.976  -3.823   3.889  0.00  0.00    -0.026 A 
ATOM     36  C   UNL     1       3.366  -3.037   4.958  0.00  0.00    +0.005 A 
ATOM     37  C   UNL     1       3.760  -3.629   6.144  0.00  0.00    +0.000 A 
ATOM     38  C   UNL     1       3.764  -5.006   6.261  0.00  0.00    +0.000 A 
ATOM     39  C   UNL     1       3.374  -5.792   5.192  0.00  0.00    +0.000 A 
ATOM     40  C   UNL     1       2.975  -5.200   4.008  0.00  0.00    +0.005 A 
ENDBRANCH  34  35
ENDBRANCH  31  34
ENDBRANCH   6  31
TORSDOF 9
