REMARK  Name = CHEMBL136575
REMARK  7 active torsions:
REMARK  status: ('A' for Active; 'I' for Inactive)
REMARK    1  A    between atoms: C_3  and  S_23
REMARK    2  A    between atoms: C_6  and  N_7
REMARK    3  A    between atoms: C_8  and  C_9
REMARK    4  A    between atoms: S_23  and  N_26
REMARK    5  A    between atoms: N_26  and  C_27
REMARK    6  A    between atoms: C_27  and  C_28
REMARK    7  A    between atoms: C_28  and  C_29
REMARK                            x       y       z     vdW  Elec       q    Type
REMARK                         _______ _______ _______ _____ _____    ______ ____
ROOT
ATOM      1  C   UNL     1      -0.017   1.393   0.010  0.00  0.00    +0.029 A 
ATOM      2  C   UNL     1       1.170   2.095   0.002  0.00  0.00    +0.030 A 
ATOM      3  C   UNL     1       2.378   1.420  -0.013  0.00  0.00    +0.105 A 
ATOM      4  C   UNL     1       2.404   0.036  -0.021  0.00  0.00    +0.030 A 
ATOM      5  C   UNL     1       1.225  -0.679  -0.013  0.00  0.00    +0.029 A 
ATOM      6  C   UNL     1       0.002  -0.004   0.002  0.00  0.00    +0.064 A 
ENDROOT
BRANCH   3   7
ATOM      7  S   UNL     1       3.889   2.325  -0.024  0.00  0.00    +0.058 S 
ATOM      8  O   UNL     1       4.872   1.469  -0.589  0.00  0.00    -0.153 OA
ATOM      9  O   UNL     1       3.592   3.605  -0.566  0.00  0.00    -0.153 OA
BRANCH   7  10
ATOM     10  N   UNL     1       4.325   2.569   1.555  0.00  0.00    -0.190 NA
ATOM     11  H   UNL     1       4.351   3.468   1.917  0.00  0.00    +0.148 HD
BRANCH  10  12
ATOM     12  C   UNL     1       4.671   1.427   2.404  0.00  0.00    +0.112 C 
BRANCH  12  13
ATOM     13  C   UNL     1       5.382   1.924   3.664  0.00  0.00    +0.074 C 
BRANCH  13  14
ATOM     14  C   UNL     1       5.739   0.749   4.537  0.00  0.00    +0.060 A 
ATOM     15  C   UNL     1       6.967   0.452   5.002  0.00  0.00    +0.107 A 
ATOM     16  N   UNL     1       6.843  -0.688   5.749  0.00  0.00    -0.351 N 
ATOM     17  H   UNL     1       7.556  -1.151   6.216  0.00  0.00    +0.166 HD
ATOM     18  C   UNL     1       5.542  -1.048   5.715  0.00  0.00    +0.196 A 
ATOM     19  N   UNL     1       4.886  -0.181   4.992  0.00  0.00    -0.241 NA
ENDBRANCH  13  14
ENDBRANCH  12  13
ENDBRANCH  10  12
ENDBRANCH   7  10
ENDBRANCH   3   7
BRANCH   6  20
ATOM     20  N   UNL     1      -1.171  -0.707   0.010  0.00  0.00    -0.255 NA
ATOM     21  C   UNL     1      -1.329  -1.727  -0.796  0.00  0.00    +0.125 C 
BRANCH  21  22
ATOM     22  C   UNL     1      -2.544  -2.456  -0.788  0.00  0.00    +0.068 A 
ATOM     23  C   UNL     1      -2.879  -3.626  -1.622  0.00  0.00    +0.028 A 
ATOM     24  C   UNL     1      -4.183  -3.998  -1.260  0.00  0.00    +0.051 A 
ATOM     25  C   UNL     1      -4.776  -5.091  -1.893  0.00  0.00    +0.028 A 
ATOM     26  C   UNL     1      -4.121  -5.800  -2.848  0.00  0.00    +0.031 A 
ATOM     27  C   UNL     1      -2.805  -5.457  -3.241  0.00  0.00    +0.079 A 
ATOM     28  C   UNL     1      -2.215  -4.352  -2.597  0.00  0.00    +0.049 A 
ATOM     29  S   UNL     1      -0.621  -4.280  -3.372  0.00  0.00    -0.075 S 
ATOM     30  C   UNL     1      -0.804  -5.593  -4.409  0.00  0.00    +0.157 A 
ATOM     31  N   UNL     1      -2.002  -6.035  -4.160  0.00  0.00    -0.247 NA
ATOM     32  N   UNL     1      -4.618  -3.125  -0.279  0.00  0.00    -0.322 N 
ATOM     33  H   UNL     1      -5.489  -3.161   0.146  0.00  0.00    +0.169 HD
ATOM     34  C   UNL     1      -3.652  -2.214   0.010  0.00  0.00    +0.258 A 
ATOM     35  O   UNL     1      -3.756  -1.226   0.927  0.00  0.00    -0.267 OA
ENDBRANCH  21  22
ENDBRANCH   6  20
TORSDOF 7
