REMARK  Name = CHEMBL411865
REMARK  8 active torsions:
REMARK  status: ('A' for Active; 'I' for Inactive)
REMARK    1  A    between atoms: C_3  and  C_23
REMARK    2  A    between atoms: N_11  and  N_12
REMARK    3  A    between atoms: N_12  and  C_13
REMARK    4  A    between atoms: C_16  and  S_19
REMARK    5  A    between atoms: S_19  and  N_22
REMARK    6  A    between atoms: C_23  and  C_24
REMARK    7  A    between atoms: C_24  and  C_25
REMARK    8  A    between atoms: C_28  and  O_31
REMARK                            x       y       z     vdW  Elec       q    Type
REMARK                         _______ _______ _______ _____ _____    ______ ____
ROOT
ATOM      1  C   UNL     1      -0.050   1.437   0.000  0.00  0.00    +0.002 A 
ATOM      2  C   UNL     1       1.091   2.222  -0.017  0.00  0.00    +0.004 A 
ATOM      3  C   UNL     1       2.338   1.630  -0.036  0.00  0.00    -0.036 A 
ATOM      4  C   UNL     1       2.443   0.244  -0.037  0.00  0.00    +0.031 A 
ATOM      5  C   UNL     1       1.292  -0.554  -0.020  0.00  0.00    +0.043 A 
ATOM      6  C   UNL     1       0.044   0.060  -0.001  0.00  0.00    +0.024 A 
ATOM      7  N   UNL     1       1.663  -1.894  -0.026  0.00  0.00    -0.280 N 
ATOM      8  C   UNL     1       2.999  -2.033  -0.046  0.00  0.00    +0.269 C 
ATOM      9  O   UNL     1       3.609  -3.087  -0.056  0.00  0.00    -0.268 OA
ATOM     10  C   UNL     1       3.596  -0.687  -0.055  0.00  0.00    +0.153 C 
ATOM     11  N   UNL     1       4.873  -0.378  -0.075  0.00  0.00    -0.177 NA
ATOM     12  H   UNL     1       1.036  -2.634  -0.016  0.00  0.00    +0.155 HD
ENDROOT
BRANCH  11  13
ATOM     13  N   UNL     1       5.760  -1.307  -0.197  0.00  0.00    -0.237 N 
ATOM     14  H   UNL     1       5.483  -2.224  -0.352  0.00  0.00    +0.174 HD
BRANCH  13  15
ATOM     15  C   UNL     1       7.116  -0.993  -0.105  0.00  0.00    +0.048 A 
ATOM     16  C   UNL     1       7.518   0.332   0.017  0.00  0.00    +0.026 A 
ATOM     17  C   UNL     1       8.861   0.638   0.108  0.00  0.00    +0.030 A 
ATOM     18  C   UNL     1       9.806  -0.371   0.077  0.00  0.00    +0.105 A 
ATOM     19  C   UNL     1       9.410  -1.691  -0.046  0.00  0.00    +0.030 A 
ATOM     20  C   UNL     1       8.068  -2.005  -0.131  0.00  0.00    +0.026 A 
BRANCH  18  21
ATOM     21  S   UNL     1      11.519   0.025   0.193  0.00  0.00    +0.056 S 
ATOM     22  O   UNL     1      12.226  -1.051  -0.408  0.00  0.00    -0.153 OA
ATOM     23  O   UNL     1      11.656   1.368  -0.249  0.00  0.00    -0.153 OA
BRANCH  21  24
ATOM     24  N   UNL     1      11.917   0.013   1.800  0.00  0.00    -0.204 NA
ATOM     25  H   UNL     1      11.241  -0.190   2.466  0.00  0.00    +0.144 HD
ATOM     26  H   UNL     1      12.826   0.209   2.077  0.00  0.00    +0.144 HD
ENDBRANCH  21  24
ENDBRANCH  18  21
ENDBRANCH  13  15
ENDBRANCH  11  13
BRANCH   3  27
ATOM     27  C   UNL     1       3.580   2.483  -0.055  0.00  0.00    +0.040 C 
BRANCH  27  28
ATOM     28  C   UNL     1       3.186   3.956  -0.184  0.00  0.00    +0.040 C 
BRANCH  28  29
ATOM     29  C   UNL     1       4.428   4.798  -0.324  0.00  0.00    -0.047 A 
ATOM     30  C   UNL     1       5.111   5.213   0.804  0.00  0.00    +0.007 A 
ATOM     31  C   UNL     1       6.250   5.985   0.678  0.00  0.00    +0.045 A 
ATOM     32  C   UNL     1       6.707   6.345  -0.582  0.00  0.00    +0.117 A 
ATOM     33  C   UNL     1       6.019   5.927  -1.712  0.00  0.00    +0.045 A 
ATOM     34  C   UNL     1       4.884   5.150  -1.581  0.00  0.00    +0.007 A 
BRANCH  32  35
ATOM     35  O   UNL     1       7.826   7.105  -0.708  0.00  0.00    -0.507 OA
ATOM     36  H   UNL     1       8.644   6.593  -0.774  0.00  0.00    +0.292 HD
ENDBRANCH  32  35
ENDBRANCH  28  29
ENDBRANCH  27  28
ENDBRANCH   3  27
TORSDOF 8
