REMARK  Name = CHEMBL1077107
REMARK  9 active torsions:
REMARK  status: ('A' for Active; 'I' for Inactive)
REMARK    1  A    between atoms: C_1  and  C_2
REMARK    2  A    between atoms: C_3  and  C_30
REMARK    3  A    between atoms: C_4  and  C_22
REMARK    4  A    between atoms: N_8  and  N_9
REMARK    5  A    between atoms: C_13  and  C_14
REMARK    6  A    between atoms: C_25  and  O_29
REMARK    7  A    between atoms: C_27  and  O_28
REMARK    8  A    between atoms: N_32  and  C_33
REMARK    9  A    between atoms: C_37  and  N_39
REMARK                            x       y       z     vdW  Elec       q    Type
REMARK                         _______ _______ _______ _____ _____    ______ ____
ROOT
ATOM      1  C   UNL     1       1.105   0.537   2.949  0.00  0.00    +0.061 C 
ATOM      2  C   UNL     1       0.895  -0.746   2.187  0.00  0.00    +0.018 C 
ATOM      3  C   UNL     1      -0.268  -0.945   1.544  0.00  0.00    +0.056 C 
ATOM      4  C   UNL     1      -0.527  -2.189   0.736  0.00  0.00    +0.144 C 
ATOM      5  N   UNL     1       0.481  -3.205   1.081  0.00  0.00    -0.305 N 
ATOM      6  C   UNL     1       1.772  -2.748   1.288  0.00  0.00    +0.202 C 
ATOM      7  N   UNL     1       1.898  -1.682   2.160  0.00  0.00    -0.290 N 
ATOM      8  N   UNL     1       2.814  -3.290   0.691  0.00  0.00    -0.139 NA
ATOM      9  H   UNL     1       2.671  -1.600   2.739  0.00  0.00    +0.155 HD
ATOM     10  H   UNL     1       0.253  -4.145   1.159  0.00  0.00    +0.150 HD
ENDROOT
BRANCH   8  11
ATOM     11  N   UNL     1       4.085  -2.720   0.843  0.00  0.00    -0.139 N 
ATOM     12  C   UNL     1       4.356  -1.528   0.332  0.00  0.00    +0.278 C 
ATOM     13  O   UNL     1       3.522  -0.889  -0.283  0.00  0.00    -0.267 OA
ATOM     14  C   UNL     1       5.724  -1.015   0.548  0.00  0.00    +0.082 C 
ATOM     15  C   UNL     1       6.285   0.204   0.125  0.00  0.00    +0.066 C 
ATOM     16  S   UNL     1       6.441  -2.256   1.430  0.00  0.00    -0.059 S 
ATOM     17  C   UNL     1       5.054  -3.371   1.519  0.00  0.00    +0.142 C 
ATOM     18  S   UNL     1       4.972  -4.903   2.278  0.00  0.00    -0.025 S 
BRANCH  15  19
ATOM     19  C   UNL     1       5.479   1.175  -0.452  0.00  0.00    +0.129 A 
ATOM     20  C   UNL     1       5.920   2.385  -1.036  0.00  0.00    +0.049 A 
ATOM     21  C   UNL     1       4.785   3.041  -1.482  0.00  0.00    +0.042 A 
ATOM     22  C   UNL     1       3.701   2.243  -1.171  0.00  0.00    +0.195 A 
ATOM     23  O   UNL     1       4.133   1.133  -0.563  0.00  0.00    -0.463 OA
ENDBRANCH  15  19
ENDBRANCH   8  11
BRANCH   4  24
ATOM     24  C   UNL     1      -0.433  -1.865  -0.733  0.00  0.00    +0.019 A 
ATOM     25  C   UNL     1       0.148  -0.680  -1.142  0.00  0.00    +0.013 A 
ATOM     26  C   UNL     1       0.236  -0.379  -2.488  0.00  0.00    +0.046 A 
ATOM     27  C   UNL     1      -0.260  -1.268  -3.432  0.00  0.00    +0.120 A 
ATOM     28  C   UNL     1      -0.843  -2.457  -3.024  0.00  0.00    +0.091 A 
ATOM     29  C   UNL     1      -0.925  -2.759  -1.673  0.00  0.00    +0.126 A 
BRANCH  29  30
ATOM     30  O   UNL     1      -1.490  -3.927  -1.270  0.00  0.00    -0.506 OA
ATOM     31  H   UNL     1      -2.454  -3.890  -1.190  0.00  0.00    +0.292 HD
ENDBRANCH  29  30
BRANCH  27  32
ATOM     32  O   UNL     1      -0.174  -0.971  -4.756  0.00  0.00    -0.507 OA
ATOM     33  H   UNL     1       0.639  -1.284  -5.177  0.00  0.00    +0.292 HD
ENDBRANCH  27  32
ENDBRANCH   4  24
BRANCH   3  34
ATOM     34  C   UNL     1      -1.279   0.043   1.629  0.00  0.00    +0.248 C 
ATOM     35  O   UNL     1      -1.051   1.100   2.189  0.00  0.00    -0.270 OA
ATOM     36  N   UNL     1      -2.493  -0.187   1.091  0.00  0.00    -0.282 N 
ATOM     37  H   UNL     1      -2.705  -1.061   0.728  0.00  0.00    +0.155 HD
BRANCH  36  38
ATOM     38  C   UNL     1      -3.447   0.835   1.057  0.00  0.00    +0.036 A 
ATOM     39  C   UNL     1      -3.050   2.153   0.873  0.00  0.00    +0.023 A 
ATOM     40  C   UNL     1      -3.995   3.159   0.839  0.00  0.00    +0.004 A 
ATOM     41  C   UNL     1      -5.336   2.855   0.988  0.00  0.00    +0.033 A 
ATOM     42  C   UNL     1      -5.735   1.544   1.171  0.00  0.00    +0.128 A 
ATOM     43  C   UNL     1      -4.795   0.532   1.200  0.00  0.00    +0.056 A 
BRANCH  42  44
ATOM     44  N   UNL     1      -7.171   1.224   1.329  0.00  0.00    +0.056 N 
ATOM     45  O   UNL     1      -8.069   2.188   1.296  0.00  0.00    -0.126 OA
ATOM     46  O   UNL     1      -7.552  -0.025   1.504  0.00  0.00    -0.126 OA
ENDBRANCH  42  44
ENDBRANCH  36  38
ENDBRANCH   3  34
TORSDOF 8
