REMARK  Name = CHEMBL147038
REMARK  5 active torsions:
REMARK  status: ('A' for Active; 'I' for Inactive)
REMARK    1  A    between atoms: C_1  and  O_2
REMARK    2  A    between atoms: O_2  and  C_3
REMARK    3  A    between atoms: C_6  and  C_9
REMARK    4  A    between atoms: C_19  and  N_23
REMARK    5  A    between atoms: N_26  and  N_27
REMARK                            x       y       z     vdW  Elec       q    Type
REMARK                         _______ _______ _______ _____ _____    ______ ____
ROOT
ATOM      1  C   UNL     1       2.516  -2.507  -4.365  0.00  0.00    +0.077 A 
ATOM      2  C   UNL     1       2.015  -3.579  -5.091  0.00  0.00    +0.075 A 
ATOM      3  C   UNL     1       3.008  -3.885  -6.124  0.00  0.00    +0.105 A 
ATOM      4  N   UNL     1       3.996  -3.037  -5.979  0.00  0.00    -0.173 NA
ATOM      5  N   UNL     1       3.719  -2.175  -4.913  0.00  0.00    -0.276 N 
ATOM      6  H   UNL     1       4.295  -1.456  -4.608  0.00  0.00    +0.189 HD
ATOM      7  C   UNL     1       2.493  -5.031  -6.914  0.00  0.00    +0.015 A 
ATOM      8  C   UNL     1       3.025  -5.718  -7.997  0.00  0.00    +0.011 A 
ATOM      9  C   UNL     1       2.330  -6.774  -8.565  0.00  0.00    +0.002 A 
ATOM     10  C   UNL     1       1.103  -7.156  -8.062  0.00  0.00    +0.024 A 
ATOM     11  C   UNL     1       0.551  -6.482  -6.977  0.00  0.00    +0.046 A 
ATOM     12  C   UNL     1       1.244  -5.414  -6.394  0.00  0.00    +0.053 A 
ATOM     13  C   UNL     1       0.910  -4.533  -5.257  0.00  0.00    +0.200 C 
ATOM     14  O   UNL     1      -0.099  -4.588  -4.579  0.00  0.00    -0.286 OA
ENDROOT
BRANCH   1  18
ATOM     15  C   UNL     1       0.637  -0.602  -1.067  0.00  0.00    +0.120 A 
ATOM     16  C   UNL     1       1.211   0.164  -2.075  0.00  0.00    +0.046 A 
ATOM     17  C   UNL     1       1.822  -0.450  -3.147  0.00  0.00    +0.013 A 
ATOM     18  C   UNL     1       1.864  -1.845  -3.220  0.00  0.00    +0.001 A 
ATOM     19  C   UNL     1       1.286  -2.612  -2.204  0.00  0.00    +0.013 A 
ATOM     20  C   UNL     1       0.682  -1.990  -1.133  0.00  0.00    +0.046 A 
BRANCH  15  22
ATOM     21  C   UNL     1       0.026   1.436  -0.009  0.00  0.00    +0.277 C 
ATOM     22  O   UNL     1       0.036   0.007  -0.013  0.00  0.00    -0.495 OA
ENDBRANCH  15  22
ENDBRANCH   1  18
BRANCH  11  23
ATOM     23  N   UNL     1      -0.688  -6.870  -6.472  0.00  0.00    -0.268 N 
ATOM     24  C   UNL     1      -1.643  -7.325  -7.306  0.00  0.00    +0.318 C 
ATOM     25  O   UNL     1      -1.397  -7.476  -8.488  0.00  0.00    -0.251 OA
ATOM     26  N   UNL     1      -2.871  -7.614  -6.832  0.00  0.00    -0.232 N 
ATOM     27  H   UNL     1      -0.863  -6.812  -5.520  0.00  0.00    +0.156 HD
ATOM     28  H   UNL     1      -3.558  -7.942  -7.432  0.00  0.00    +0.171 HD
BRANCH  26  29
ATOM     29  N   UNL     1      -3.147  -7.445  -5.505  0.00  0.00    -0.226 NA
ATOM     30  C   UNL     1      -3.452  -8.729  -4.863  0.00  0.00    +0.105 C 
ATOM     31  C   UNL     1      -3.613  -8.523  -3.355  0.00  0.00    +0.017 C 
ATOM     32  C   UNL     1      -4.743  -7.522  -3.099  0.00  0.00    +0.003 C 
ATOM     33  C   UNL     1      -4.423  -6.208  -3.819  0.00  0.00    +0.017 C 
ATOM     34  C   UNL     1      -4.239  -6.482  -5.313  0.00  0.00    +0.105 C 
ENDBRANCH  26  29
ENDBRANCH  11  23
TORSDOF 4
