REMARK  Name = CHEMBL364805
REMARK  6 active torsions:
REMARK  status: ('A' for Active; 'I' for Inactive)
REMARK    1  A    between atoms: C_1  and  O_2
REMARK    2  A    between atoms: O_2  and  C_3
REMARK    3  A    between atoms: C_6  and  C_9
REMARK    4  A    between atoms: C_19  and  N_23
REMARK    5  A    between atoms: N_26  and  N_27
REMARK    6  A    between atoms: C_28  and  C_30
REMARK                            x       y       z     vdW  Elec       q    Type
REMARK                         _______ _______ _______ _____ _____    ______ ____
ROOT
ATOM      1  C   UNL     1       2.549  -2.553   4.298  0.00  0.00    +0.077 A 
ATOM      2  C   UNL     1       3.447  -3.608   4.208  0.00  0.00    +0.075 A 
ATOM      3  C   UNL     1       3.862  -3.920   5.578  0.00  0.00    +0.105 A 
ATOM      4  N   UNL     1       3.235  -3.091   6.375  0.00  0.00    -0.173 NA
ATOM      5  N   UNL     1       2.426  -2.237   5.618  0.00  0.00    -0.276 N 
ATOM      6  H   UNL     1       1.864  -1.533   5.976  0.00  0.00    +0.189 HD
ATOM      7  C   UNL     1       4.824  -5.048   5.507  0.00  0.00    +0.015 A 
ATOM      8  C   UNL     1       5.519  -5.732   6.497  0.00  0.00    +0.011 A 
ATOM      9  C   UNL     1       6.374  -6.768   6.161  0.00  0.00    +0.002 A 
ATOM     10  C   UNL     1       6.546  -7.134   4.842  0.00  0.00    +0.024 A 
ATOM     11  C   UNL     1       5.862  -6.464   3.834  0.00  0.00    +0.046 A 
ATOM     12  C   UNL     1       4.994  -5.414   4.161  0.00  0.00    +0.053 A 
ATOM     13  C   UNL     1       4.153  -4.540   3.319  0.00  0.00    +0.200 C 
ATOM     14  O   UNL     1       4.060  -4.584   2.106  0.00  0.00    -0.286 OA
ENDROOT
BRANCH   1  18
ATOM     15  C   UNL     1       0.568  -0.652   1.058  0.00  0.00    +0.120 A 
ATOM     16  C   UNL     1       1.148   0.115   2.062  0.00  0.00    +0.046 A 
ATOM     17  C   UNL     1       1.792  -0.498   3.115  0.00  0.00    +0.013 A 
ATOM     18  C   UNL     1       1.860  -1.892   3.172  0.00  0.00    +0.001 A 
ATOM     19  C   UNL     1       1.276  -2.659   2.161  0.00  0.00    +0.013 A 
ATOM     20  C   UNL     1       0.629  -2.039   1.115  0.00  0.00    +0.046 A 
BRANCH  15  22
ATOM     21  C   UNL     1      -0.091   1.385   0.026  0.00  0.00    +0.277 C 
ATOM     22  O   UNL     1      -0.065  -0.043   0.022  0.00  0.00    -0.495 OA
ENDBRANCH  15  22
ENDBRANCH   1  18
BRANCH  11  23
ATOM     23  N   UNL     1       6.039  -6.835   2.503  0.00  0.00    -0.268 N 
ATOM     24  C   UNL     1       6.435  -8.086   2.200  0.00  0.00    +0.320 C 
ATOM     25  O   UNL     1       6.537  -8.921   3.078  0.00  0.00    -0.251 OA
ATOM     26  N   UNL     1       6.718  -8.413   0.923  0.00  0.00    -0.218 N 
ATOM     27  H   UNL     1       5.878  -6.192   1.795  0.00  0.00    +0.156 HD
ATOM     28  H   UNL     1       7.003  -9.314   0.705  0.00  0.00    +0.174 HD
BRANCH  26  29
ATOM     29  N   UNL     1       6.600  -7.451  -0.088  0.00  0.00    -0.229 N 
ATOM     30  C   UNL     1       6.883  -7.777  -1.365  0.00  0.00    +0.261 C 
ATOM     31  O   UNL     1       7.240  -8.907  -1.639  0.00  0.00    -0.269 OA
ATOM     32  H   UNL     1       6.315  -6.550   0.130  0.00  0.00    +0.173 HD
BRANCH  30  33
ATOM     33  C   UNL     1       6.759  -6.765  -2.430  0.00  0.00    +0.046 A 
ATOM     34  C   UNL     1       6.460  -5.448  -2.114  0.00  0.00    +0.014 A 
ATOM     35  C   UNL     1       6.343  -4.489  -3.112  0.00  0.00    +0.001 A 
ATOM     36  C   UNL     1       6.516  -4.812  -4.425  0.00  0.00    +0.008 A 
ATOM     37  C   UNL     1       6.820  -6.135  -4.791  0.00  0.00    -0.017 A 
ATOM     38  C   UNL     1       6.951  -7.125  -3.787  0.00  0.00    -0.006 A 
ATOM     39  C   UNL     1       7.260  -8.442  -4.153  0.00  0.00    +0.009 A 
ATOM     40  C   UNL     1       7.437  -8.753  -5.468  0.00  0.00    +0.001 A 
ATOM     41  C   UNL     1       7.316  -7.779  -6.457  0.00  0.00    +0.001 A 
ATOM     42  C   UNL     1       7.003  -6.493  -6.138  0.00  0.00    +0.008 A 
ENDBRANCH  30  33
ENDBRANCH  26  29
ENDBRANCH  11  23
TORSDOF 5
