REMARK  Name = CHEMBL1084630
REMARK  6 active torsions:
REMARK  status: ('A' for Active; 'I' for Inactive)
REMARK    1  A    between atoms: C_1  and  C_2
REMARK    2  A    between atoms: C_2  and  N_3
REMARK    3  A    between atoms: C_6  and  C_28
REMARK    4  A    between atoms: C_7  and  C_9
REMARK    5  A    between atoms: N_15  and  C_16
REMARK    6  A    between atoms: C_19  and  N_22
REMARK                            x       y       z     vdW  Elec       q    Type
REMARK                         _______ _______ _______ _____ _____    ______ ____
ROOT
ATOM      1  C   UNL     1       1.768  -5.550  -2.834  0.00  0.00    +0.084 A 
ATOM      2  C   UNL     1       2.202  -5.527  -4.167  0.00  0.00    +0.049 A 
ATOM      3  C   UNL     1       2.345  -6.728  -4.832  0.00  0.00    +0.116 A 
ATOM      4  N   UNL     1       2.070  -7.859  -4.198  0.00  0.00    -0.223 NA
ATOM      5  C   UNL     1       1.662  -7.853  -2.937  0.00  0.00    +0.220 A 
ATOM      6  N   UNL     1       1.516  -6.726  -2.257  0.00  0.00    -0.214 NA
ATOM      7  N   UNL     1       1.385  -9.058  -2.312  0.00  0.00    -0.284 N 
ATOM      8  H   UNL     1       1.008  -9.065  -1.418  0.00  0.00    +0.155 HD
ENDROOT
BRANCH   1  13
ATOM      9  N   UNL     1       1.434  -0.498  -0.872  0.00  0.00    -0.324 N 
ATOM     10  C   UNL     1       1.447  -1.850  -1.157  0.00  0.00    +0.159 A 
ATOM     11  N   UNL     1       1.135  -2.856  -0.364  0.00  0.00    -0.230 NA
ATOM     12  C   UNL     1       1.197  -4.100  -0.783  0.00  0.00    +0.057 A 
ATOM     13  C   UNL     1       1.600  -4.295  -2.079  0.00  0.00    +0.062 A 
ATOM     14  S   UNL     1       1.858  -2.607  -2.603  0.00  0.00    -0.051 S 
ATOM     15  C   UNL     1       0.843  -5.256   0.117  0.00  0.00    +0.067 C 
ATOM     16  H   UNL     1       1.685   0.144  -1.554  0.00  0.00    +0.148 HD
BRANCH   9  18
ATOM     17  C   UNL     1       1.113   1.494   0.511  0.00  0.00    +0.024 C 
ATOM     18  C   UNL     1       1.042  -0.034   0.461  0.00  0.00    +0.100 C 
ENDBRANCH   9  18
ENDBRANCH   1  13
BRANCH   7  19
ATOM     19  C   UNL     1       1.650 -10.265  -2.971  0.00  0.00    +0.034 A 
ATOM     20  C   UNL     1       2.786 -10.391  -3.760  0.00  0.00    +0.025 A 
ATOM     21  C   UNL     1       3.047 -11.582  -4.409  0.00  0.00    +0.025 A 
ATOM     22  C   UNL     1       2.174 -12.653  -4.272  0.00  0.00    +0.030 A 
ATOM     23  C   UNL     1       1.038 -12.527  -3.483  0.00  0.00    +0.025 A 
ATOM     24  C   UNL     1       0.780 -11.338  -2.830  0.00  0.00    +0.025 A 
BRANCH  22  25
ATOM     25  N   UNL     1       2.439 -13.860  -4.931  0.00  0.00    -0.326 N 
ATOM     26  C   UNL     1       1.469 -14.966  -4.904  0.00  0.00    +0.133 C 
ATOM     27  C   UNL     1       1.236 -15.439  -6.343  0.00  0.00    +0.178 C 
ATOM     28  O   UNL     1       2.497 -15.716  -6.957  0.00  0.00    -0.377 OA
ATOM     29  C   UNL     1       3.354 -14.577  -7.072  0.00  0.00    +0.178 C 
ATOM     30  C   UNL     1       3.693 -14.057  -5.675  0.00  0.00    +0.133 C 
ENDBRANCH  22  25
ENDBRANCH   7  19
TORSDOF 4
