REMARK  Name = CHEMBL556214
REMARK  3 active torsions:
REMARK  status: ('A' for Active; 'I' for Inactive)
REMARK    1  A    between atoms: C_1  and  C_2
REMARK    2  A    between atoms: C_8  and  C_10
REMARK    3  A    between atoms: C_10  and  C_11
REMARK                            x       y       z     vdW  Elec       q    Type
REMARK                         _______ _______ _______ _____ _____    ______ ____
ROOT
ATOM      1  C   UNL     1       0.073  -1.884   4.754  0.00  0.00    +0.089 C 
ENDROOT
BRANCH   1   9
ATOM      2  C   UNL     1      -0.018   1.503   0.010  0.00  0.00    +0.090 C 
ATOM      3  C   UNL     1       0.002  -0.004   0.002  0.00  0.00    +0.153 A 
ATOM      4  N   UNL     1       0.008  -0.764  -1.057  0.00  0.00    -0.132 NA
ATOM      5  N   UNL     1       0.026  -2.004  -0.710  0.00  0.00    -0.120 NA
ATOM      6  C   UNL     1       0.033  -2.089   0.586  0.00  0.00    +0.218 A 
ATOM      7  N   UNL     1       0.024  -0.821   1.114  0.00  0.00    -0.191 N 
ATOM      8  N   UNL     1       0.036  -0.728   2.499  0.00  0.00    -0.161 NA
ATOM      9  C   UNL     1       0.057  -1.788   3.250  0.00  0.00    +0.104 A 
ATOM     10  S   UNL     1       0.052  -3.104   2.042  0.00  0.00    -0.031 S 
ENDBRANCH   1   9
BRANCH   1  11
ATOM     11  C   UNL     1       0.059  -0.476   5.354  0.00  0.00    +0.148 C 
ATOM     12  C   UNL     1      -0.050  -0.520   6.874  0.00  0.00    +0.252 C 
ATOM     13  N   UNL     1       0.992   0.000   7.472  0.00  0.00    -0.159 NA
ATOM     14  C   UNL     1       2.032   0.512   6.839  0.00  0.00    +0.145 C 
ATOM     15  S   UNL     1       1.702   0.337   5.198  0.00  0.00    -0.080 S 
ATOM     16  N   UNL     1       3.144   1.067   7.400  0.00  0.00    -0.340 N 
ATOM     17  O   UNL     1      -1.002  -0.989   7.468  0.00  0.00    -0.272 OA
ATOM     18  H   UNL     1       3.228   1.116   8.365  0.00  0.00    +0.144 HD
ATOM     19  H   UNL     1       3.851   1.415   6.834  0.00  0.00    +0.144 HD
ENDBRANCH   1  11
TORSDOF 2
