REMARK  Name = CHEMBL336892
REMARK  9 active torsions:
REMARK  status: ('A' for Active; 'I' for Inactive)
REMARK    1  A    between atoms: C_3  and  S_31
REMARK    2  A    between atoms: C_6  and  N_7
REMARK    3  A    between atoms: N_8  and  C_9
REMARK    4  A    between atoms: C_12  and  C_20
REMARK    5  A    between atoms: C_18  and  O_19
REMARK    6  A    between atoms: N_22  and  C_23
REMARK    7  A    between atoms: C_23  and  C_24
REMARK    8  A    between atoms: C_24  and  C_25
REMARK    9  A    between atoms: S_31  and  N_34
REMARK                            x       y       z     vdW  Elec       q    Type
REMARK                         _______ _______ _______ _____ _____    ______ ____
ROOT
ATOM      1  C   UNL     1      -2.307  -2.691   0.011  0.00  0.00    +0.154 A 
ATOM      2  C   UNL     1      -2.460  -4.158   0.010  0.00  0.00    +0.031 A 
ATOM      3  C   UNL     1      -1.561  -5.217   0.002  0.00  0.00    +0.025 A 
ATOM      4  C   UNL     1      -2.043  -6.524   0.004  0.00  0.00    +0.037 A 
ATOM      5  C   UNL     1      -3.424  -6.761   0.015  0.00  0.00    +0.015 A 
ATOM      6  C   UNL     1      -4.306  -5.720   0.023  0.00  0.00    +0.027 A 
ATOM      7  C   UNL     1      -3.844  -4.406   0.021  0.00  0.00    +0.051 A 
ATOM      8  N   UNL     1      -4.492  -3.187   0.027  0.00  0.00    -0.324 N 
ATOM      9  H   UNL     1      -5.455  -3.073   0.035  0.00  0.00    +0.169 HD
ATOM     10  C   UNL     1      -3.590  -2.168   0.027  0.00  0.00    +0.219 A 
ENDROOT
BRANCH   4  11
ATOM     11  C   UNL     1      -1.099  -7.660  -0.005  0.00  0.00    +0.244 C 
ATOM     12  O   UNL     1       0.099  -7.454  -0.015  0.00  0.00    -0.270 OA
ATOM     13  N   UNL     1      -1.566  -8.924  -0.003  0.00  0.00    -0.311 N 
ATOM     14  H   UNL     1      -2.522  -9.088   0.005  0.00  0.00    +0.149 HD
BRANCH  13  15
ATOM     15  C   UNL     1      -0.630 -10.051  -0.012  0.00  0.00    +0.110 C 
BRANCH  15  16
ATOM     16  C   UNL     1      -1.413 -11.365  -0.007  0.00  0.00    +0.073 C 
BRANCH  16  17
ATOM     17  C   UNL     1      -0.450 -12.524  -0.016  0.00  0.00    +0.037 A 
ATOM     18  C   UNL     1       0.144 -13.083   1.055  0.00  0.00    +0.133 A 
ATOM     19  N   UNL     1       0.924 -14.084   0.622  0.00  0.00    -0.244 NA
ATOM     20  H   UNL     1      -0.269 -13.050  -2.037  0.00  0.00    +0.166 HD
ATOM     21  C   UNL     1       0.836 -14.167  -0.677  0.00  0.00    +0.196 A 
ATOM     22  N   UNL     1      -0.015 -13.215  -1.115  0.00  0.00    -0.348 N 
ENDBRANCH  16  17
ENDBRANCH  15  16
ENDBRANCH  13  15
ENDBRANCH   4  11
BRANCH   1  24
ATOM     23  N   UNL     1      -1.171  -0.707   0.010  0.00  0.00    -0.149 NA
ATOM     24  N   UNL     1      -1.150  -1.997   0.003  0.00  0.00    -0.143 NA
BRANCH  23  30
ATOM     25  C   UNL     1      -0.017   1.393   0.010  0.00  0.00    +0.031 A 
ATOM     26  C   UNL     1       1.170   2.095   0.002  0.00  0.00    +0.030 A 
ATOM     27  C   UNL     1       2.378   1.420  -0.013  0.00  0.00    +0.105 A 
ATOM     28  C   UNL     1       2.404   0.036  -0.021  0.00  0.00    +0.030 A 
ATOM     29  C   UNL     1       1.225  -0.679  -0.014  0.00  0.00    +0.031 A 
ATOM     30  C   UNL     1       0.002  -0.004   0.002  0.00  0.00    +0.086 A 
BRANCH  27  31
ATOM     31  S   UNL     1       3.889   2.326  -0.023  0.00  0.00    +0.056 S 
ATOM     32  O   UNL     1       4.872   1.469  -0.587  0.00  0.00    -0.153 OA
ATOM     33  O   UNL     1       3.592   3.606  -0.564  0.00  0.00    -0.153 OA
BRANCH  31  34
ATOM     34  N   UNL     1       4.324   2.569   1.557  0.00  0.00    -0.204 NA
ATOM     35  H   UNL     1       3.765   2.226   2.272  0.00  0.00    +0.144 HD
ATOM     36  H   UNL     1       5.137   3.054   1.766  0.00  0.00    +0.144 HD
ENDBRANCH  31  34
ENDBRANCH  27  31
ENDBRANCH  23  30
ENDBRANCH   1  24
BRANCH  10  37
ATOM     37  O   UNL     1      -3.899  -0.851   0.037  0.00  0.00    -0.492 OA
ATOM     38  H   UNL     1      -3.998  -0.464  -0.844  0.00  0.00    +0.294 HD
ENDBRANCH  10  37
TORSDOF 9
