REMARK  Name = CHEMBL457888
REMARK  11 active torsions:
REMARK  status: ('A' for Active; 'I' for Inactive)
REMARK    1  A    between atoms: C_1  and  C_2
REMARK    2  A    between atoms: C_5  and  C_10
REMARK    3  A    between atoms: N_6  and  C_7
REMARK    4  A    between atoms: C_7  and  C_8
REMARK    5  A    between atoms: C_7  and  C_9
REMARK    6  A    between atoms: N_16  and  C_17
REMARK    7  A    between atoms: C_20  and  S_23
REMARK    8  A    between atoms: S_23  and  C_26
REMARK    9  A    between atoms: C_26  and  C_27
REMARK   10  A    between atoms: C_27  and  C_28
REMARK   11  A    between atoms: C_28  and  N_29
REMARK                            x       y       z     vdW  Elec       q    Type
REMARK                         _______ _______ _______ _____ _____    ______ ____
ROOT
ATOM      1  C   UNL     1       0.901  -7.886   2.104  0.00  0.00    +0.034 A 
ATOM      2  C   UNL     1       0.780  -7.745   3.481  0.00  0.00    +0.025 A 
ATOM      3  C   UNL     1       0.897  -8.851   4.300  0.00  0.00    +0.029 A 
ATOM      4  C   UNL     1       1.134 -10.098   3.751  0.00  0.00    +0.088 A 
ATOM      5  C   UNL     1       1.256 -10.242   2.381  0.00  0.00    +0.029 A 
ATOM      6  C   UNL     1       1.134  -9.141   1.556  0.00  0.00    +0.025 A 
ENDROOT
BRANCH   1  13
ATOM      7  C   UNL     1       1.478  -3.271   1.323  0.00  0.00    +0.094 A 
ATOM      8  C   UNL     1       2.176  -3.158   2.533  0.00  0.00    +0.050 A 
ATOM      9  C   UNL     1       2.379  -4.299   3.284  0.00  0.00    +0.116 A 
ATOM     10  N   UNL     1       1.912  -5.457   2.844  0.00  0.00    -0.223 NA
ATOM     11  C   UNL     1       1.254  -5.537   1.696  0.00  0.00    +0.220 A 
ATOM     12  N   UNL     1       1.032  -4.469   0.946  0.00  0.00    -0.213 NA
ATOM     13  N   UNL     1       0.783  -6.769   1.272  0.00  0.00    -0.284 N 
ATOM     14  H   UNL     1       0.372  -6.856   0.398  0.00  0.00    +0.155 HD
BRANCH   7  19
ATOM     15  C   UNL     1       1.550   1.430  -0.492  0.00  0.00    +0.086 C 
ATOM     16  C   UNL     1       1.261  -0.038  -0.312  0.00  0.00    +0.107 A 
ATOM     17  N   UNL     1       0.514  -0.765  -1.100  0.00  0.00    -0.240 NA
ATOM     18  C   UNL     1       0.474  -2.022  -0.645  0.00  0.00    +0.140 A 
ATOM     19  C   UNL     1       1.234  -2.081   0.484  0.00  0.00    +0.087 A 
ATOM     20  N   UNL     1       1.735  -0.813   0.684  0.00  0.00    -0.324 N 
BRANCH  20  21
ATOM     21  C   UNL     1       2.614  -0.387   1.776  0.00  0.00    +0.083 C 
ATOM     22  C   UNL     1       3.992  -1.028   1.600  0.00  0.00    +0.030 C 
ATOM     23  C   UNL     1       2.754   1.137   1.753  0.00  0.00    +0.030 C 
ENDBRANCH  20  21
ENDBRANCH   7  19
ENDBRANCH   1  13
BRANCH   4  24
ATOM     24  S   UNL     1       1.282 -11.506   4.799  0.00  0.00    -0.003 S 
ATOM     25  O   UNL     1       2.091 -12.418   4.069  0.00  0.00    -0.169 OA
ATOM     26  O   UNL     1       1.722 -10.985   6.046  0.00  0.00    -0.169 OA
BRANCH  24  27
ATOM     27  C   UNL     1      -0.406 -12.153   4.952  0.00  0.00    +0.173 C 
BRANCH  27  28
ATOM     28  C   UNL     1      -0.398 -13.391   5.851  0.00  0.00    +0.038 C 
BRANCH  28  29
ATOM     29  C   UNL     1      -1.821 -13.936   5.981  0.00  0.00    +0.086 C 
BRANCH  29  30
ATOM     30  N   UNL     1      -1.814 -15.125   6.844  0.00  0.00    -0.298 NA
ATOM     31  C   UNL     1      -1.079 -16.230   6.212  0.00  0.00    +0.112 C 
ATOM     32  C   UNL     1      -1.045 -17.426   7.168  0.00  0.00    +0.175 C 
ATOM     33  O   UNL     1      -2.384 -17.793   7.512  0.00  0.00    -0.377 OA
ATOM     34  C   UNL     1      -3.128 -16.740   8.131  0.00  0.00    +0.175 C 
ATOM     35  C   UNL     1      -3.183 -15.537   7.185  0.00  0.00    +0.112 C 
ENDBRANCH  29  30
ENDBRANCH  28  29
ENDBRANCH  27  28
ENDBRANCH  24  27
ENDBRANCH   4  24
TORSDOF 8
