REMARK  Name = CHEMBL115220
REMARK  4 active torsions:
REMARK  status: ('A' for Active; 'I' for Inactive)
REMARK    1  A    between atoms: C_6  and  C_11
REMARK    2  A    between atoms: C_11  and  C_12
REMARK    3  A    between atoms: N_14  and  C_15
REMARK    4  A    between atoms: C_17  and  C_21
REMARK                            x       y       z     vdW  Elec       q    Type
REMARK                         _______ _______ _______ _____ _____    ______ ____
ROOT
ATOM      1  C   UNL     1       5.463  -2.949   1.355  0.00  0.00    +0.223 C 
ATOM      2  O   UNL     1       4.781  -2.575   2.286  0.00  0.00    -0.275 OA
ATOM      3  N   UNL     1       6.627  -3.587   1.586  0.00  0.00    -0.270 N 
ATOM      4  H   UNL     1       7.172  -3.886   0.842  0.00  0.00    +0.156 HD
ENDROOT
BRANCH   3   5
ATOM      5  C   UNL     1       7.048  -3.817   2.896  0.00  0.00    +0.120 A 
ATOM      6  C   UNL     1       6.386  -3.454   4.029  0.00  0.00    +0.068 A 
ATOM      7  C   UNL     1       7.149  -3.873   5.122  0.00  0.00    +0.068 A 
ATOM      8  N   UNL     1       8.226  -4.463   4.671  0.00  0.00    -0.177 NA
ATOM      9  H   UNL     1       8.854  -4.819   2.676  0.00  0.00    +0.190 HD
ATOM     10  N   UNL     1       8.184  -4.447   3.271  0.00  0.00    -0.264 N 
BRANCH   7  11
ATOM     11  C   UNL     1       6.792  -3.676   6.574  0.00  0.00    +0.040 C 
ATOM     12  C   UNL     1       5.711  -2.646   6.902  0.00  0.00    +0.010 C 
ATOM     13  C   UNL     1       7.176  -2.345   7.221  0.00  0.00    +0.010 C 
ENDBRANCH   7  11
ENDBRANCH   3   5
BRANCH   1  14
ATOM     14  C   UNL     1       5.008  -2.700  -0.060  0.00  0.00    +0.131 C 
BRANCH  14  20
ATOM     15  C   UNL     1      -0.016   1.357   0.009  0.00  0.00    +0.001 A 
ATOM     16  C   UNL     1       1.169   2.091   0.002  0.00  0.00    +0.001 A 
ATOM     17  C   UNL     1       2.378   1.468  -0.013  0.00  0.00    +0.008 A 
ATOM     18  C   UNL     1       2.438   0.063  -0.021  0.00  0.00    -0.018 A 
ATOM     19  C   UNL     1       3.668  -0.615  -0.036  0.00  0.00    +0.012 A 
ATOM     20  C   UNL     1       3.687  -1.976  -0.043  0.00  0.00    -0.038 A 
ATOM     21  C   UNL     1       2.502  -2.710  -0.036  0.00  0.00    +0.005 A 
ATOM     22  C   UNL     1       1.292  -2.087  -0.021  0.00  0.00    +0.009 A 
ATOM     23  C   UNL     1       1.233  -0.683  -0.013  0.00  0.00    -0.018 A 
ATOM     24  C   UNL     1       0.002  -0.004   0.002  0.00  0.00    +0.008 A 
ENDBRANCH  14  20
ENDBRANCH   1  14
TORSDOF 4
