REMARK  Name = CHEMBL468963
REMARK  5 active torsions:
REMARK  status: ('A' for Active; 'I' for Inactive)
REMARK    1  A    between atoms: C_1  and  N_2
REMARK    2  A    between atoms: N_5  and  C_8
REMARK    3  A    between atoms: C_11  and  N_18
REMARK    4  A    between atoms: C_13  and  C_14
REMARK    5  A    between atoms: C_23  and  C_25
REMARK                            x       y       z     vdW  Elec       q    Type
REMARK                         _______ _______ _______ _____ _____    ______ ____
ROOT
ATOM      1  C   UNL     1      -0.948  -3.711   1.550  0.00  0.00    +0.042 A 
ATOM      2  C   UNL     1      -0.849  -5.013   1.078  0.00  0.00    +0.025 A 
ATOM      3  C   UNL     1      -1.302  -6.064   1.850  0.00  0.00    +0.025 A 
ATOM      4  C   UNL     1      -1.857  -5.820   3.099  0.00  0.00    +0.034 A 
ATOM      5  C   UNL     1      -1.957  -4.518   3.571  0.00  0.00    +0.037 A 
ATOM      6  C   UNL     1      -1.498  -3.467   2.802  0.00  0.00    +0.077 A 
ENDROOT
BRANCH   4   7
ATOM      7  N   UNL     1      -2.316  -6.886   3.882  0.00  0.00    -0.284 N 
ATOM      8  C   UNL     1      -1.671  -8.111   3.832  0.00  0.00    +0.220 A 
ATOM      9  N   UNL     1      -0.554  -8.223   3.127  0.00  0.00    -0.223 NA
ATOM     10  C   UNL     1       0.094  -9.377   3.054  0.00  0.00    +0.116 A 
ATOM     11  C   UNL     1      -0.406 -10.477   3.723  0.00  0.00    +0.048 A 
ATOM     12  C   UNL     1      -1.588 -10.330   4.460  0.00  0.00    +0.080 A 
ATOM     13  N   UNL     1      -2.183  -9.137   4.493  0.00  0.00    -0.214 NA
ATOM     14  H   UNL     1      -3.086  -6.767   4.460  0.00  0.00    +0.155 HD
BRANCH  12  15
ATOM     15  C   UNL     1      -2.163 -11.476   5.193  0.00  0.00    +0.047 A 
ATOM     16  C   UNL     1      -1.640 -12.771   5.253  0.00  0.00    +0.147 A 
ATOM     17  N   UNL     1      -2.426 -13.513   5.999  0.00  0.00    -0.156 NA
ATOM     18  N   UNL     1      -3.496 -12.738   6.459  0.00  0.00    -0.150 N 
ATOM     19  C   UNL     1      -3.335 -11.469   5.966  0.00  0.00    +0.097 A 
ATOM     20  C   UNL     1      -4.274 -10.479   6.282  0.00  0.00    +0.032 A 
ATOM     21  C   UNL     1      -5.333 -10.800   7.081  0.00  0.00    +0.024 A 
ATOM     22  C   UNL     1      -5.469 -12.101   7.572  0.00  0.00    +0.135 A 
ATOM     23  N   UNL     1      -4.598 -13.030   7.271  0.00  0.00    -0.157 NA
ENDBRANCH  12  15
ENDBRANCH   4   7
BRANCH   1  28
ATOM     24  C   UNL     1       0.206   1.438   0.093  0.00  0.00    +0.105 C 
ATOM     25  N   UNL     1       0.099  -0.025   0.023  0.00  0.00    -0.302 NA
ATOM     26  C   UNL     1      -1.305  -0.454   0.078  0.00  0.00    +0.103 C 
ATOM     27  C   UNL     1      -1.385  -1.963  -0.178  0.00  0.00    +0.120 C 
ATOM     28  N   UNL     1      -0.489  -2.646   0.768  0.00  0.00    -0.327 N 
ATOM     29  C   UNL     1       0.902  -2.179   0.869  0.00  0.00    +0.120 C 
ATOM     30  C   UNL     1       0.892  -0.662   1.083  0.00  0.00    +0.103 C 
ENDBRANCH   1  28
BRANCH   6  31
ATOM     31  C   UNL     1      -1.600  -2.055   3.317  0.00  0.00    +0.419 C 
ATOM     32  F   UNL     1      -2.183  -2.063   4.589  0.00  0.00    -0.166 F 
ATOM     33  F   UNL     1      -0.321  -1.493   3.395  0.00  0.00    -0.166 F 
ATOM     34  F   UNL     1      -2.391  -1.296   2.447  0.00  0.00    -0.166 F 
ENDBRANCH   6  31
TORSDOF 4
