REMARK  Name = CHEMBL279590
REMARK  4 active torsions:
REMARK  status: ('A' for Active; 'I' for Inactive)
REMARK    1  A    between atoms: C_4  and  C_7
REMARK    2  A    between atoms: C_7  and  C_9
REMARK    3  A    between atoms: C_17  and  O_18
REMARK    4  A    between atoms: O_18  and  C_19
REMARK                            x       y       z     vdW  Elec       q    Type
REMARK                         _______ _______ _______ _____ _____    ______ ____
ROOT
ATOM      1  C   UNL     1       3.612  -2.151  -0.071  0.00  0.00    +0.083 A 
ATOM      2  C   UNL     1       2.355  -2.782  -0.133  0.00  0.00    +0.128 A 
ATOM      3  N   UNL     1       2.225  -4.080  -0.165  0.00  0.00    -0.233 NA
ATOM      4  C   UNL     1       3.292  -4.901  -0.141  0.00  0.00    +0.185 A 
ATOM      5  N   UNL     1       3.441  -6.211  -0.162  0.00  0.00    -0.154 NA
ATOM      6  N   UNL     1       4.804  -6.519  -0.115  0.00  0.00    -0.282 N 
ATOM      7  C   UNL     1       5.526  -5.393  -0.064  0.00  0.00    +0.118 A 
ATOM      8  C   UNL     1       4.645  -4.327  -0.077  0.00  0.00    +0.081 A 
ATOM      9  C   UNL     1       4.782  -2.921  -0.048  0.00  0.00    +0.145 A 
ATOM     10  H   UNL     1       5.173  -7.416  -0.119  0.00  0.00    +0.188 HD
ENDROOT
BRANCH   1  11
ATOM     11  C   UNL     1       3.696  -0.684  -0.037  0.00  0.00    +0.198 C 
ATOM     12  O   UNL     1       3.356  -0.079   0.961  0.00  0.00    -0.286 OA
BRANCH  11  16
ATOM     13  C   UNL     1       5.127   1.440  -3.426  0.00  0.00    +0.000 A 
ATOM     14  C   UNL     1       4.849   2.120  -2.254  0.00  0.00    +0.001 A 
ATOM     15  C   UNL     1       4.384   1.437  -1.150  0.00  0.00    +0.012 A 
ATOM     16  C   UNL     1       4.194   0.055  -1.217  0.00  0.00    +0.022 A 
ATOM     17  C   UNL     1       4.476  -0.625  -2.403  0.00  0.00    +0.012 A 
ATOM     18  C   UNL     1       4.940   0.071  -3.500  0.00  0.00    +0.001 A 
ENDBRANCH  11  16
ENDBRANCH   1  11
BRANCH   9  19
ATOM     19  O   UNL     1       6.000  -2.338   0.005  0.00  0.00    -0.487 OA
BRANCH  19  20
ATOM     20  C   UNL     1       6.543  -2.085   1.303  0.00  0.00    +0.174 C 
ATOM     21  C   UNL     1       6.114  -0.694   1.772  0.00  0.00    +0.044 C 
ATOM     22  C   UNL     1       6.694  -0.423   3.162  0.00  0.00    +0.004 C 
ATOM     23  C   UNL     1       8.221  -0.491   3.099  0.00  0.00    +0.000 C 
ATOM     24  C   UNL     1       8.650  -1.883   2.630  0.00  0.00    +0.004 C 
ATOM     25  C   UNL     1       8.070  -2.154   1.240  0.00  0.00    +0.044 C 
ENDBRANCH  19  20
ENDBRANCH   9  19
TORSDOF 4
