REMARK  Name = CHEMBL147122
REMARK  4 active torsions:
REMARK  status: ('A' for Active; 'I' for Inactive)
REMARK    1  A    between atoms: C_1  and  C_2
REMARK    2  A    between atoms: N_4  and  C_5
REMARK    3  A    between atoms: C_18  and  C_19
REMARK    4  A    between atoms: C_22  and  N_25
REMARK                            x       y       z     vdW  Elec       q    Type
REMARK                         _______ _______ _______ _____ _____    ______ ____
ROOT
ATOM      1  C   UNL     1      -1.193  -2.084  -0.049  0.00  0.00    +0.045 A 
ATOM      2  C   UNL     1      -0.005  -2.819  -0.052  0.00  0.00    +0.024 A 
ATOM      3  C   UNL     1      -0.040  -4.191  -0.158  0.00  0.00    +0.002 A 
ATOM      4  C   UNL     1      -1.253  -4.861  -0.263  0.00  0.00    +0.011 A 
ATOM      5  C   UNL     1      -2.444  -4.150  -0.262  0.00  0.00    +0.013 A 
ATOM      6  C   UNL     1      -2.415  -2.747  -0.148  0.00  0.00    +0.053 A 
ATOM      7  C   UNL     1      -3.817  -2.270  -0.168  0.00  0.00    +0.200 C 
ATOM      8  O   UNL     1      -4.188  -1.116  -0.095  0.00  0.00    -0.286 OA
ATOM      9  C   UNL     1      -4.677  -3.464  -0.293  0.00  0.00    +0.075 A 
ATOM     10  C   UNL     1      -3.859  -4.584  -0.358  0.00  0.00    +0.078 A 
ATOM     11  N   UNL     1      -4.663  -5.662  -0.476  0.00  0.00    -0.276 N 
ATOM     12  H   UNL     1      -4.367  -6.585  -0.533  0.00  0.00    +0.189 HD
ATOM     13  N   UNL     1      -5.992  -5.228  -0.502  0.00  0.00    -0.173 NA
ATOM     14  C   UNL     1      -6.016  -3.916  -0.382  0.00  0.00    +0.104 A 
ENDROOT
BRANCH  14  15
ATOM     15  C   UNL     1      -7.228  -3.063  -0.365  0.00  0.00    +0.003 A 
ATOM     16  C   UNL     1      -7.256  -1.906   0.412  0.00  0.00    +0.012 A 
ATOM     17  C   UNL     1      -8.385  -1.114   0.426  0.00  0.00    +0.024 A 
ATOM     18  C   UNL     1      -9.494  -1.469  -0.334  0.00  0.00    +0.030 A 
ATOM     19  C   UNL     1      -9.467  -2.623  -1.109  0.00  0.00    +0.024 A 
ATOM     20  C   UNL     1      -8.339  -3.414  -1.132  0.00  0.00    +0.012 A 
BRANCH  18  21
ATOM     21  N   UNL     1     -10.635  -0.667  -0.318  0.00  0.00    -0.326 N 
ATOM     22  C   UNL     1     -11.864  -1.084  -1.011  0.00  0.00    +0.133 C 
ATOM     23  C   UNL     1     -13.037  -0.961  -0.031  0.00  0.00    +0.178 C 
ATOM     24  O   UNL     1     -13.041   0.352   0.535  0.00  0.00    -0.377 OA
ATOM     25  C   UNL     1     -11.877   0.662   1.304  0.00  0.00    +0.178 C 
ATOM     26  C   UNL     1     -10.646   0.619   0.398  0.00  0.00    +0.133 C 
ENDBRANCH  18  21
ENDBRANCH  14  15
BRANCH   1  30
ATOM     27  C   UNL     1      -0.165   1.504  -0.477  0.00  0.00    +0.109 C 
ATOM     28  C   UNL     1      -0.152  -0.003  -0.509  0.00  0.00    +0.214 C 
ATOM     29  O   UNL     1       0.763  -0.591  -1.045  0.00  0.00    -0.276 OA
ATOM     30  N   UNL     1      -1.158  -0.697   0.059  0.00  0.00    -0.285 N 
ATOM     31  H   UNL     1      -1.857  -0.230   0.543  0.00  0.00    +0.155 HD
ENDBRANCH   1  30
TORSDOF 3
