REMARK  Name = CHEMBL143748
REMARK  5 active torsions:
REMARK  status: ('A' for Active; 'I' for Inactive)
REMARK    1  A    between atoms: C_5  and  N_7
REMARK    2  A    between atoms: N_10  and  C_11
REMARK    3  A    between atoms: C_13  and  C_17
REMARK    4  A    between atoms: C_17  and  N_18
REMARK    5  A    between atoms: N_18  and  C_19
REMARK                            x       y       z     vdW  Elec       q    Type
REMARK                         _______ _______ _______ _____ _____    ______ ____
ROOT
ATOM      1  C   UNL     1      -1.096  -4.830   0.287  0.00  0.00    +0.122 A 
ATOM      2  C   UNL     1      -2.349  -4.300   0.305  0.00  0.00    +0.066 A 
ATOM      3  C   UNL     1      -3.259  -5.354   0.420  0.00  0.00    +0.048 A 
ATOM      4  N   UNL     1      -2.585  -6.475   0.469  0.00  0.00    -0.179 NA
ATOM      5  N   UNL     1      -1.220  -6.173   0.382  0.00  0.00    -0.264 N 
ATOM      6  H   UNL     1      -0.492  -6.815   0.390  0.00  0.00    +0.190 HD
ENDROOT
BRANCH   1  10
ATOM      7  N   UNL     1       1.231  -2.086  -0.011  0.00  0.00    -0.269 N 
ATOM      8  C   UNL     1       0.076  -2.774   0.089  0.00  0.00    +0.309 C 
ATOM      9  O   UNL     1      -0.986  -2.182   0.094  0.00  0.00    -0.252 OA
ATOM     10  N   UNL     1       0.099  -4.118   0.184  0.00  0.00    -0.254 N 
ATOM     11  H   UNL     1       2.072  -2.560  -0.097  0.00  0.00    +0.156 HD
ATOM     12  H   UNL     1       0.946  -4.590   0.180  0.00  0.00    +0.158 HD
BRANCH   7  17
ATOM     13  C   UNL     1       0.150   1.372   0.648  0.00  0.00    +0.003 A 
ATOM     14  C   UNL     1       1.166   2.091   0.051  0.00  0.00    +0.013 A 
ATOM     15  C   UNL     1       2.217   1.425  -0.580  0.00  0.00    +0.044 A 
ATOM     16  C   UNL     1       2.242   0.026  -0.582  0.00  0.00    +0.006 A 
ATOM     17  C   UNL     1       1.216  -0.686   0.010  0.00  0.00    +0.040 A 
ATOM     18  C   UNL     1       0.168  -0.010   0.626  0.00  0.00    +0.024 A 
ATOM     19  C   UNL     1       3.514  -0.367  -1.274  0.00  0.00    +0.109 C 
ATOM     20  C   UNL     1       3.272  -1.299  -2.473  0.00  0.00    +0.029 C 
ATOM     21  C   UNL     1       4.269  -0.809  -3.549  0.00  0.00    +0.021 C 
ATOM     22  C   UNL     1       4.990   0.399  -2.901  0.00  0.00    +0.109 C 
ATOM     23  N   UNL     1       4.046   0.880  -1.870  0.00  0.00    -0.290 N 
ATOM     24  C   UNL     1       3.411   1.909  -1.305  0.00  0.00    +0.247 C 
ATOM     25  O   UNL     1       3.761   3.071  -1.377  0.00  0.00    -0.270 OA
ENDBRANCH   7  17
ENDBRANCH   1  10
BRANCH   3  26
ATOM     26  C   UNL     1      -4.759  -5.224   0.477  0.00  0.00    -0.024 C 
BRANCH  26  27
ATOM     27  N   UNL     1      -5.318  -5.398  -0.870  0.00  0.00    +0.385 N 
ATOM     28  H   UNL     1      -4.942  -4.691  -1.484  0.00  0.00    -0.085 HD
ATOM     29  H   UNL     1      -5.073  -6.312  -1.220  0.00  0.00    -0.085 HD
BRANCH  27  30
ATOM     30  C   UNL     1      -6.780  -5.271  -0.814  0.00  0.00    -0.063 C 
ATOM     31  C   UNL     1      -7.193  -3.817  -0.501  0.00  0.00    +0.020 C 
ATOM     32  C   UNL     1      -8.462  -3.586  -1.293  0.00  0.00    -0.046 A 
ATOM     33  C   UNL     1      -9.433  -2.607  -1.166  0.00  0.00    +0.005 A 
ATOM     34  C   UNL     1     -10.523  -2.594  -2.014  0.00  0.00    +0.020 A 
ATOM     35  C   UNL     1     -10.645  -3.562  -2.995  0.00  0.00    +0.041 A 
ATOM     36  C   UNL     1      -9.677  -4.539  -3.123  0.00  0.00    +0.023 A 
ATOM     37  C   UNL     1      -8.584  -4.553  -2.273  0.00  0.00    -0.044 A 
ATOM     38  C   UNL     1      -7.405  -5.505  -2.206  0.00  0.00    +0.020 C 
ATOM     39 CL   UNL     1     -12.014  -3.548  -4.064  0.00  0.00    -0.084 Cl
ENDBRANCH  27  30
ENDBRANCH  26  27
ENDBRANCH   3  26
TORSDOF 5
