REMARK  Name = CHEMBL429142
REMARK  9 active torsions:
REMARK  status: ('A' for Active; 'I' for Inactive)
REMARK    1  A    between atoms: C_1  and  C_2
REMARK    2  A    between atoms: C_2  and  C_3
REMARK    3  A    between atoms: C_2  and  C_4
REMARK    4  A    between atoms: C_4  and  C_5
REMARK    5  A    between atoms: C_5  and  C_7
REMARK    6  A    between atoms: C_14  and  N_15
REMARK    7  A    between atoms: N_15  and  C_16
REMARK    8  A    between atoms: C_19  and  S_22
REMARK    9  A    between atoms: S_22  and  N_25
REMARK                            x       y       z     vdW  Elec       q    Type
REMARK                         _______ _______ _______ _____ _____    ______ ____
ROOT
ATOM      1  C   UNL     1       0.477  -0.504   3.805  0.00  0.00    +0.018 A 
ATOM      2  C   UNL     1       1.681  -1.212   3.925  0.00  0.00    +0.013 A 
ATOM      3  C   UNL     1       2.160  -1.564   5.152  0.00  0.00    +0.024 A 
ATOM      4  C   UNL     1       1.459  -1.226   6.309  0.00  0.00    +0.042 A 
ATOM      5  C   UNL     1       0.252  -0.517   6.199  0.00  0.00    +0.010 A 
ATOM      6  C   UNL     1      -0.237  -0.152   4.955  0.00  0.00    +0.022 A 
ATOM      7  C   UNL     1      -0.240  -0.316   7.583  0.00  0.00    +0.060 C 
ATOM      8  C   UNL     1      -1.381   0.323   7.975  0.00  0.00    +0.085 C 
ATOM      9  C   UNL     1       0.766  -0.954   8.439  0.00  0.00    +0.250 C 
ATOM     10  O   UNL     1       0.738  -1.011   9.655  0.00  0.00    -0.270 OA
ATOM     11  N   UNL     1       1.725  -1.463   7.647  0.00  0.00    -0.281 N 
ATOM     12  H   UNL     1       2.506  -1.937   7.972  0.00  0.00    +0.155 HD
ENDROOT
BRANCH   1  13
ATOM     13  C   UNL     1      -0.030  -0.130   2.478  0.00  0.00    +0.163 C 
ATOM     14  O   UNL     1      -1.069   0.487   2.378  0.00  0.00    -0.292 OA
BRANCH  13  15
ATOM     15  C   UNL     1       0.742  -0.511   1.242  0.00  0.00    +0.082 C 
BRANCH  15  17
ATOM     16  C   UNL     1      -0.019   1.526   0.010  0.00  0.00    +0.007 C 
ATOM     17  C   UNL     1       0.002  -0.004   0.002  0.00  0.00    -0.010 C 
ATOM     18  C   UNL     1       0.718  -0.497  -1.257  0.00  0.00    +0.007 C 
ENDBRANCH  15  17
ENDBRANCH  13  15
ENDBRANCH   1  13
BRANCH   8  19
ATOM     19  N   UNL     1      -1.686   0.420   9.298  0.00  0.00    -0.320 N 
ATOM     20  H   UNL     1      -1.093   0.035   9.962  0.00  0.00    +0.152 HD
BRANCH  19  21
ATOM     21  C   UNL     1      -2.854   1.074   9.700  0.00  0.00    +0.031 A 
ATOM     22  C   UNL     1      -3.707   1.622   8.750  0.00  0.00    +0.025 A 
ATOM     23  C   UNL     1      -4.860   2.268   9.150  0.00  0.00    +0.030 A 
ATOM     24  C   UNL     1      -5.165   2.371  10.495  0.00  0.00    +0.105 A 
ATOM     25  C   UNL     1      -4.318   1.827  11.443  0.00  0.00    +0.030 A 
ATOM     26  C   UNL     1      -3.167   1.174  11.050  0.00  0.00    +0.025 A 
BRANCH  24  27
ATOM     27  S   UNL     1      -6.637   3.197  11.001  0.00  0.00    +0.056 S 
ATOM     28  O   UNL     1      -6.419   3.634  12.336  0.00  0.00    -0.153 OA
ATOM     29  O   UNL     1      -6.981   4.093   9.953  0.00  0.00    -0.153 OA
BRANCH  27  30
ATOM     30  N   UNL     1      -7.839   2.060  11.066  0.00  0.00    -0.204 NA
ATOM     31  H   UNL     1      -7.646   1.136  10.843  0.00  0.00    +0.144 HD
ATOM     32  H   UNL     1      -8.737   2.318  11.328  0.00  0.00    +0.144 HD
ENDBRANCH  27  30
ENDBRANCH  24  27
ENDBRANCH  19  21
ENDBRANCH   8  19
TORSDOF 7
