REMARK  Name = CHEMBL189455
REMARK  2 active torsions:
REMARK  status: ('A' for Active; 'I' for Inactive)
REMARK    1  A    between atoms: C_4  and  C_10
REMARK    2  A    between atoms: N_16  and  C_17
REMARK                            x       y       z     vdW  Elec       q    Type
REMARK                         _______ _______ _______ _____ _____    ______ ____
ROOT
ATOM      1  C   UNL     1       4.226   3.178  -0.085  0.00  0.00    +0.080 A 
ATOM      2  C   UNL     1       5.577   3.417   0.199  0.00  0.00    +0.048 A 
ATOM      3  C   UNL     1       5.983   4.719   0.415  0.00  0.00    +0.116 A 
ATOM      4  N   UNL     1       5.091   5.697   0.349  0.00  0.00    -0.223 NA
ATOM      5  C   UNL     1       3.818   5.444   0.079  0.00  0.00    +0.220 A 
ATOM      6  N   UNL     1       3.386   4.212  -0.141  0.00  0.00    -0.214 NA
ATOM      7  N   UNL     1       2.919   6.495   0.019  0.00  0.00    -0.283 N 
ATOM      8  H   UNL     1       1.973   6.318  -0.098  0.00  0.00    +0.155 HD
ENDROOT
BRANCH   1  12
ATOM      9  C   UNL     1       0.083   1.456  -1.078  0.00  0.00    +0.024 A 
ATOM     10  C   UNL     1       1.228   2.137  -0.782  0.00  0.00    +0.032 A 
ATOM     11  C   UNL     1       2.423   1.424  -0.622  0.00  0.00    +0.097 A 
ATOM     12  C   UNL     1       3.741   1.803  -0.324  0.00  0.00    +0.047 A 
ATOM     13  C   UNL     1       4.508   0.635  -0.297  0.00  0.00    +0.147 A 
ATOM     14  N   UNL     1       3.731  -0.390  -0.557  0.00  0.00    -0.156 NA
ATOM     15  N   UNL     1       2.422   0.060  -0.766  0.00  0.00    -0.150 N 
ATOM     16  N   UNL     1       1.228  -0.603  -1.070  0.00  0.00    -0.157 NA
ATOM     17  C   UNL     1       0.113   0.065  -1.218  0.00  0.00    +0.135 A 
ENDBRANCH   1  12
BRANCH   7  18
ATOM     18  C   UNL     1       3.377   7.814   0.127  0.00  0.00    +0.037 A 
ATOM     19  C   UNL     1       4.566   8.189  -0.484  0.00  0.00    +0.027 A 
ATOM     20  C   UNL     1       5.018   9.491  -0.379  0.00  0.00    +0.051 A 
ATOM     21  C   UNL     1       4.287  10.425   0.337  0.00  0.00    +0.166 A 
ATOM     22  C   UNL     1       3.094  10.052   0.951  0.00  0.00    +0.168 A 
ATOM     23  C   UNL     1       2.638   8.749   0.840  0.00  0.00    +0.072 A 
ATOM     24  O   UNL     1       2.570  11.142   1.586  0.00  0.00    -0.453 OA
ATOM     25  C   UNL     1       3.657  12.080   1.699  0.00  0.00    +0.466 C 
ATOM     26  O   UNL     1       4.511  11.749   0.588  0.00  0.00    -0.453 OA
ENDBRANCH   7  18
TORSDOF 2
