REMARK  Name = CHEMBL74637
REMARK  1 active torsions:
REMARK  status: ('A' for Active; 'I' for Inactive)
REMARK    1  A    between atoms: C_15  and  O_17
REMARK                            x       y       z     vdW  Elec       q    Type
REMARK                         _______ _______ _______ _____ _____    ______ ____
ROOT
ATOM      1  C   UNL     1      -0.017   1.403   0.010  0.00  0.00    +0.010 A 
ATOM      2  C   UNL     1       1.140   2.110   0.003  0.00  0.00    +0.011 A 
ATOM      3  C   UNL     1       2.383   1.446  -0.013  0.00  0.00    +0.009 A 
ATOM      4  C   UNL     1       2.426   0.031  -0.021  0.00  0.00    +0.021 A 
ATOM      5  C   UNL     1       3.670  -0.632  -0.037  0.00  0.00    +0.060 A 
ATOM      6  C   UNL     1       4.858   0.110  -0.044  0.00  0.00    +0.060 A 
ATOM      7  C   UNL     1       4.815   1.513  -0.036  0.00  0.00    +0.021 A 
ATOM      8  C   UNL     1       3.585   2.186  -0.021  0.00  0.00    +0.056 A 
ATOM      9  N   UNL     1       3.829   3.541  -0.016  0.00  0.00    -0.354 N 
ATOM     10  H   UNL     1       3.144   4.227  -0.005  0.00  0.00    +0.166 HD
ATOM     11  C   UNL     1       5.190   3.786  -0.028  0.00  0.00    +0.051 A 
ATOM     12  C   UNL     1       5.859   2.551  -0.040  0.00  0.00    +0.008 A 
ATOM     13  C   UNL     1       7.252   2.509  -0.055  0.00  0.00    +0.014 A 
ATOM     14  C   UNL     1       7.973   3.682  -0.055  0.00  0.00    +0.046 A 
ATOM     15  C   UNL     1       7.314   4.908  -0.041  0.00  0.00    +0.119 A 
ATOM     16  C   UNL     1       5.931   4.962  -0.028  0.00  0.00    +0.071 A 
ATOM     17  C   UNL     1       5.954  -0.879  -0.061  0.00  0.00    +0.252 C 
ATOM     18  O   UNL     1       7.141  -0.623  -0.071  0.00  0.00    -0.270 OA
ATOM     19  N   UNL     1       5.416  -2.112  -0.062  0.00  0.00    -0.248 N 
ATOM     20  C   UNL     1       4.073  -2.049  -0.048  0.00  0.00    +0.252 C 
ATOM     21  O   UNL     1       3.318  -3.001  -0.046  0.00  0.00    -0.270 OA
ATOM     22  C   UNL     1       1.218  -0.697  -0.013  0.00  0.00    +0.055 A 
ATOM     23  C   UNL     1       0.002  -0.004   0.002  0.00  0.00    +0.000 A 
ATOM     24  C   UNL     1      -1.045  -1.027   0.006  0.00  0.00    +0.027 A 
ATOM     25  C   UNL     1      -0.426  -2.220  -0.006  0.00  0.00    +0.083 A 
ATOM     26  N   UNL     1       0.927  -2.038  -0.017  0.00  0.00    -0.360 N 
ATOM     27  H   UNL     1       1.585  -2.751  -0.027  0.00  0.00    +0.165 HD
ATOM     28  H   UNL     1       5.928  -2.936  -0.072  0.00  0.00    +0.158 HD
ENDROOT
BRANCH  15  29
ATOM     29  O   UNL     1       8.034   6.060  -0.041  0.00  0.00    -0.507 OA
ATOM     30  H   UNL     1       8.233   6.399  -0.924  0.00  0.00    +0.292 HD
ENDBRANCH  15  29
TORSDOF 1
