REMARK  Name = CHEMBL356728
REMARK  3 active torsions:
REMARK  status: ('A' for Active; 'I' for Inactive)
REMARK    1  A    between atoms: C_1  and  N_2
REMARK    2  A    between atoms: C_5  and  C_7
REMARK    3  A    between atoms: C_17  and  N_21
REMARK                            x       y       z     vdW  Elec       q    Type
REMARK                         _______ _______ _______ _____ _____    ______ ____
ROOT
ATOM      1  C   UNL     1       0.075  -3.318   1.567  0.00  0.00    +0.105 A 
ATOM      2  C   UNL     1      -0.568  -4.549   1.292  0.00  0.00    +0.075 A 
ATOM      3  C   UNL     1      -0.288  -5.405   2.349  0.00  0.00    +0.078 A 
ATOM      4  N   UNL     1       0.487  -4.726   3.222  0.00  0.00    -0.276 N 
ATOM      5  N   UNL     1       0.704  -3.439   2.717  0.00  0.00    -0.173 NA
ATOM      6  H   UNL     1       0.837  -5.073   4.057  0.00  0.00    +0.189 HD
ATOM      7  C   UNL     1      -0.946  -6.710   2.097  0.00  0.00    +0.013 A 
ATOM      8  C   UNL     1      -0.982  -7.888   2.828  0.00  0.00    +0.011 A 
ATOM      9  C   UNL     1      -1.690  -8.984   2.351  0.00  0.00    +0.002 A 
ATOM     10  C   UNL     1      -2.362  -8.915   1.151  0.00  0.00    +0.024 A 
ATOM     11  C   UNL     1      -2.337  -7.738   0.399  0.00  0.00    +0.046 A 
ATOM     12  C   UNL     1      -1.630  -6.633   0.870  0.00  0.00    +0.053 A 
ATOM     13  C   UNL     1      -1.415  -5.274   0.325  0.00  0.00    +0.200 C 
ATOM     14  O   UNL     1      -1.853  -4.837  -0.722  0.00  0.00    -0.286 OA
ENDROOT
BRANCH  11  15
ATOM     15  N   UNL     1      -3.015  -7.670  -0.814  0.00  0.00    -0.269 N 
ATOM     16  C   UNL     1      -4.066  -8.481  -1.045  0.00  0.00    +0.301 C 
ATOM     17  O   UNL     1      -4.486  -9.200  -0.159  0.00  0.00    -0.253 OA
ATOM     18  N   UNL     1      -4.652  -8.495  -2.259  0.00  0.00    -0.313 N 
ATOM     19  H   UNL     1      -2.731  -7.038  -1.493  0.00  0.00    +0.156 HD
ATOM     20  H   UNL     1      -4.317  -7.922  -2.966  0.00  0.00    +0.146 HD
ATOM     21  H   UNL     1      -5.408  -9.079  -2.426  0.00  0.00    +0.146 HD
ENDBRANCH  11  15
BRANCH   1  26
ATOM     22  C   UNL     1      -0.005   1.452   0.054  0.00  0.00    +0.148 C 
ATOM     23  N   UNL     1       0.014  -0.012   0.036  0.00  0.00    -0.356 N 
ATOM     24  C   UNL     1       0.012  -0.790  -1.085  0.00  0.00    +0.086 A 
ATOM     25  C   UNL     1       0.033  -2.083  -0.710  0.00  0.00    +0.029 A 
ATOM     26  C   UNL     1       0.049  -2.110   0.709  0.00  0.00    +0.020 A 
ATOM     27  C   UNL     1       0.042  -0.816   1.133  0.00  0.00    +0.095 A 
ENDBRANCH   1  26
TORSDOF 2
