REMARK  Name = CHEMBL85667
REMARK  6 active torsions:
REMARK  status: ('A' for Active; 'I' for Inactive)
REMARK    1  A    between atoms: C_4  and  N_7
REMARK    2  A    between atoms: N_7  and  S_8
REMARK    3  A    between atoms: S_8  and  C_11
REMARK    4  A    between atoms: C_14  and  N_17
REMARK    5  A    between atoms: C_18  and  C_19
REMARK    6  A    between atoms: C_31  and  O_32
REMARK                            x       y       z     vdW  Elec       q    Type
REMARK                         _______ _______ _______ _____ _____    ______ ____
ROOT
ATOM      1  C   UNL     1       2.624  -3.189   0.323  0.00  0.00    +0.109 A 
ATOM      2  C   UNL     1       1.292  -3.156   0.697  0.00  0.00    +0.031 A 
ATOM      3  C   UNL     1       0.413  -4.102   0.212  0.00  0.00    +0.029 A 
ATOM      4  C   UNL     1       0.869  -5.094  -0.658  0.00  0.00    +0.064 A 
ATOM      5  C   UNL     1       2.215  -5.122  -1.031  0.00  0.00    +0.029 A 
ATOM      6  C   UNL     1       3.082  -4.167  -0.543  0.00  0.00    +0.031 A 
ENDROOT
BRANCH   1   7
ATOM      7  S   UNL     1       3.740  -1.977   0.946  0.00  0.00    +0.072 S 
ATOM      8  O   UNL     1       5.050  -2.497   0.761  0.00  0.00    -0.150 OA
ATOM      9  O   UNL     1       3.248  -1.589   2.221  0.00  0.00    -0.150 OA
BRANCH   7  10
ATOM     10  N   UNL     1       3.617  -0.648  -0.034  0.00  0.00    -0.216 N 
ATOM     11  H   UNL     1       3.319   0.199   0.333  0.00  0.00    +0.174 HD
BRANCH  10  15
ATOM     12  C   UNL     1       4.584  -0.940  -4.073  0.00  0.00    +0.000 A 
ATOM     13  C   UNL     1       3.421  -0.299  -3.687  0.00  0.00    +0.002 A 
ATOM     14  C   UNL     1       3.097  -0.200  -2.348  0.00  0.00    +0.024 A 
ATOM     15  C   UNL     1       3.941  -0.746  -1.389  0.00  0.00    +0.048 A 
ATOM     16  C   UNL     1       5.108  -1.389  -1.780  0.00  0.00    +0.024 A 
ATOM     17  C   UNL     1       5.426  -1.484  -3.121  0.00  0.00    +0.002 A 
ENDBRANCH  10  15
ENDBRANCH   7  10
ENDBRANCH   1   7
BRANCH   4  18
ATOM     18  N   UNL     1       0.002  -6.036  -1.142  0.00  0.00    -0.255 NA
ATOM     19  C   UNL     1       0.021  -6.351  -2.412  0.00  0.00    +0.125 C 
BRANCH  19  20
ATOM     20  C   UNL     1      -0.877  -7.326  -2.914  0.00  0.00    +0.063 A 
ATOM     21  C   UNL     1      -0.981  -7.799  -4.308  0.00  0.00    +0.028 A 
ATOM     22  C   UNL     1      -2.005  -8.759  -4.314  0.00  0.00    +0.051 A 
ATOM     23  C   UNL     1      -2.333  -9.389  -5.515  0.00  0.00    +0.028 A 
ATOM     24  C   UNL     1      -1.687  -9.094  -6.673  0.00  0.00    +0.031 A 
ATOM     25  C   UNL     1      -0.649  -8.133  -6.708  0.00  0.00    +0.079 A 
ATOM     26  C   UNL     1      -0.324  -7.501  -5.491  0.00  0.00    +0.049 A 
ATOM     27  S   UNL     1       0.983  -6.407  -5.980  0.00  0.00    -0.075 S 
ATOM     28  C   UNL     1       1.025  -6.806  -7.614  0.00  0.00    +0.157 A 
ATOM     29  N   UNL     1       0.100  -7.711  -7.748  0.00  0.00    -0.247 NA
ATOM     30  N   UNL     1      -2.493  -8.870  -3.026  0.00  0.00    -0.325 N 
ATOM     31  H   UNL     1      -3.208  -9.467  -2.755  0.00  0.00    +0.169 HD
ATOM     32  C   UNL     1      -1.827  -8.030  -2.191  0.00  0.00    +0.200 A 
BRANCH  32  33
ATOM     33  O   UNL     1      -2.057  -7.899  -0.864  0.00  0.00    -0.493 OA
ATOM     34  H   UNL     1      -2.718  -7.229  -0.644  0.00  0.00    +0.294 HD
ENDBRANCH  32  33
ENDBRANCH  19  20
ENDBRANCH   4  18
TORSDOF 6
