REMARK  Name = CHEMBL565137
REMARK  9 active torsions:
REMARK  status: ('A' for Active; 'I' for Inactive)
REMARK    1  A    between atoms: C_1  and  C_2
REMARK    2  A    between atoms: C_2  and  C_35
REMARK    3  A    between atoms: C_12  and  C_16
REMARK    4  A    between atoms: N_14  and  C_15
REMARK    5  A    between atoms: N_18  and  C_19
REMARK    6  A    between atoms: N_20  and  C_21
REMARK    7  A    between atoms: C_24  and  O_27
REMARK    8  A    between atoms: O_27  and  C_28
REMARK    9  A    between atoms: N_31  and  C_34
REMARK                            x       y       z     vdW  Elec       q    Type
REMARK                         _______ _______ _______ _____ _____    ______ ____
ROOT
ATOM      1  C   UNL     1      -0.744   1.033   2.283  0.00  0.00    +0.016 C 
ATOM      2  C   UNL     1      -0.595  -0.444   1.911  0.00  0.00    -0.001 C 
ATOM      3  C   UNL     1      -0.319  -0.565   0.412  0.00  0.00    +0.050 C 
ATOM      4  C   UNL     1       0.175  -1.930   0.030  0.00  0.00    -0.001 A 
ATOM      5  C   UNL     1      -0.173  -2.495  -1.183  0.00  0.00    +0.120 A 
ATOM      6  N   UNL     1       0.304  -3.690  -1.498  0.00  0.00    -0.222 NA
ATOM      7  C   UNL     1       1.109  -4.351  -0.677  0.00  0.00    +0.220 A 
ATOM      8  N   UNL     1       1.461  -3.853   0.501  0.00  0.00    -0.212 NA
ATOM      9  C   UNL     1       1.006  -2.669   0.884  0.00  0.00    +0.097 A 
ATOM     10  C   UNL     1       1.295  -2.094   2.208  0.00  0.00    +0.092 A 
ATOM     11  C   UNL     1       0.544  -1.040   2.685  0.00  0.00    +0.018 A 
ATOM     12  C   UNL     1       1.079  -0.733   3.937  0.00  0.00    +0.151 A 
ATOM     13  N   UNL     1       2.064  -1.591   4.161  0.00  0.00    -0.166 NA
ATOM     14  N   UNL     1       2.193  -2.401   3.164  0.00  0.00    -0.264 N 
ATOM     15  C   UNL     1       3.169  -3.491   3.086  0.00  0.00    +0.173 C 
ATOM     16  N   UNL     1       1.593  -5.591  -1.058  0.00  0.00    -0.284 N 
ATOM     17  C   UNL     1      -1.887  -1.188   2.252  0.00  0.00    +0.016 C 
ATOM     18  H   UNL     1       2.119  -6.119  -0.437  0.00  0.00    +0.155 HD
ENDROOT
BRANCH  16  19
ATOM     19  C   UNL     1       1.324  -6.083  -2.342  0.00  0.00    +0.034 A 
ATOM     20  C   UNL     1       1.206  -5.206  -3.412  0.00  0.00    +0.027 A 
ATOM     21  C   UNL     1       0.941  -5.693  -4.677  0.00  0.00    +0.047 A 
ATOM     22  C   UNL     1       0.793  -7.057  -4.879  0.00  0.00    +0.121 A 
ATOM     23  C   UNL     1       0.911  -7.934  -3.810  0.00  0.00    +0.047 A 
ATOM     24  C   UNL     1       1.181  -7.449  -2.546  0.00  0.00    +0.027 A 
BRANCH  22  25
ATOM     25  O   UNL     1       0.532  -7.535  -6.125  0.00  0.00    -0.489 OA
BRANCH  25  26
ATOM     26  C   UNL     1       0.533  -6.589  -7.196  0.00  0.00    +0.170 C 
ATOM     27  C   UNL     1      -0.846  -5.930  -7.298  0.00  0.00    +0.026 C 
ATOM     28  C   UNL     1      -0.863  -4.978  -8.495  0.00  0.00    -0.076 C 
ATOM     29  N   UNL     1      -0.585  -5.728  -9.726  0.00  0.00    +0.378 N 
ATOM     30  C   UNL     1       0.764  -6.303  -9.665  0.00  0.00    -0.076 C 
ATOM     31  C   UNL     1       0.843  -7.307  -8.512  0.00  0.00    +0.026 C 
ATOM     32  C   UNL     1      -0.679  -4.825 -10.880  0.00  0.00    -0.096 C 
ATOM     33  H   UNL     1      -1.262  -6.470  -9.826  0.00  0.00    -0.082 HD
ENDBRANCH  25  26
ENDBRANCH  22  25
ENDBRANCH  16  19
BRANCH  12  34
ATOM     34  C   UNL     1       0.631   0.345   4.842  0.00  0.00    +0.264 C 
ATOM     35  O   UNL     1      -0.407   0.226   5.463  0.00  0.00    -0.268 OA
ATOM     36  N   UNL     1       1.374   1.462   4.979  0.00  0.00    -0.313 N 
ATOM     37  C   UNL     1       0.930   2.531   5.876  0.00  0.00    +0.128 C 
ATOM     38  H   UNL     1       2.202   1.557   4.484  0.00  0.00    +0.149 HD
ENDBRANCH  12  34
TORSDOF 4
