REMARK  Name = CHEMBL27275
REMARK  7 active torsions:
REMARK  status: ('A' for Active; 'I' for Inactive)
REMARK    1  A    between atoms: C_1  and  O_2
REMARK    2  A    between atoms: O_2  and  C_3
REMARK    3  A    between atoms: C_6  and  C_9
REMARK    4  A    between atoms: C_19  and  N_23
REMARK    5  A    between atoms: C_24  and  C_26
REMARK    6  A    between atoms: C_26  and  C_27
REMARK    7  A    between atoms: C_30  and  N_33
REMARK                            x       y       z     vdW  Elec       q    Type
REMARK                         _______ _______ _______ _____ _____    ______ ____
ROOT
ATOM      1  C   UNL     1      -4.977  -2.630   0.051  0.00  0.00    +0.104 A 
ATOM      2  C   UNL     1      -5.278  -3.847  -0.607  0.00  0.00    +0.075 A 
ATOM      3  C   UNL     1      -6.607  -4.144  -0.336  0.00  0.00    +0.078 A 
ATOM      4  N   UNL     1      -7.087  -3.156   0.449  0.00  0.00    -0.276 N 
ATOM      5  N   UNL     1      -6.062  -2.232   0.681  0.00  0.00    -0.173 NA
ATOM      6  H   UNL     1      -7.991  -3.098   0.796  0.00  0.00    +0.189 HD
ATOM      7  C   UNL     1      -6.961  -5.416  -1.011  0.00  0.00    +0.013 A 
ATOM      8  C   UNL     1      -8.141  -6.143  -1.061  0.00  0.00    +0.011 A 
ATOM      9  C   UNL     1      -8.201  -7.328  -1.784  0.00  0.00    +0.002 A 
ATOM     10  C   UNL     1      -7.094  -7.794  -2.457  0.00  0.00    +0.024 A 
ATOM     11  C   UNL     1      -5.896  -7.077  -2.420  0.00  0.00    +0.045 A 
ATOM     12  C   UNL     1      -5.826  -5.887  -1.697  0.00  0.00    +0.053 A 
ATOM     13  C   UNL     1      -4.732  -4.917  -1.466  0.00  0.00    +0.200 C 
ATOM     14  O   UNL     1      -3.599  -4.988  -1.901  0.00  0.00    -0.286 OA
ENDROOT
BRANCH   1  18
ATOM     15  C   UNL     1      -1.226  -0.626   0.016  0.00  0.00    +0.120 A 
ATOM     16  C   UNL     1      -2.404   0.109   0.033  0.00  0.00    +0.046 A 
ATOM     17  C   UNL     1      -3.622  -0.538   0.044  0.00  0.00    +0.013 A 
ATOM     18  C   UNL     1      -3.670  -1.932   0.039  0.00  0.00    +0.003 A 
ATOM     19  C   UNL     1      -2.485  -2.667   0.021  0.00  0.00    +0.013 A 
ATOM     20  C   UNL     1      -1.270  -2.014   0.005  0.00  0.00    +0.046 A 
BRANCH  15  22
ATOM     21  C   UNL     1      -0.056   1.443   0.017  0.00  0.00    +0.277 C 
ATOM     22  O   UNL     1      -0.028   0.014   0.004  0.00  0.00    -0.495 OA
ENDBRANCH  15  22
ENDBRANCH   1  18
BRANCH  11  23
ATOM     23  N   UNL     1      -4.778  -7.548  -3.100  0.00  0.00    -0.285 N 
ATOM     24  C   UNL     1      -4.930  -8.364  -4.163  0.00  0.00    +0.222 C 
ATOM     25  O   UNL     1      -6.040  -8.607  -4.587  0.00  0.00    -0.275 OA
ATOM     26  H   UNL     1      -3.889  -7.290  -2.811  0.00  0.00    +0.155 HD
BRANCH  24  27
ATOM     27  C   UNL     1      -3.720  -8.974  -4.823  0.00  0.00    +0.131 C 
BRANCH  27  28
ATOM     28  C   UNL     1      -4.160  -9.838  -5.977  0.00  0.00    -0.039 A 
ATOM     29  C   UNL     1      -4.441 -11.175  -5.769  0.00  0.00    +0.006 A 
ATOM     30  C   UNL     1      -4.845 -11.970  -6.824  0.00  0.00    +0.023 A 
ATOM     31  C   UNL     1      -4.968 -11.424  -8.096  0.00  0.00    +0.025 A 
ATOM     32  C   UNL     1      -4.684 -10.080  -8.301  0.00  0.00    +0.023 A 
ATOM     33  C   UNL     1      -4.287  -9.289  -7.240  0.00  0.00    +0.006 A 
BRANCH  31  34
ATOM     34  N   UNL     1      -5.375 -12.225  -9.165  0.00  0.00    -0.358 N 
ATOM     35  H   UNL     1      -5.572 -13.163  -9.021  0.00  0.00    +0.142 HD
ATOM     36  H   UNL     1      -5.461 -11.842 -10.052  0.00  0.00    +0.142 HD
ENDBRANCH  31  34
ENDBRANCH  27  28
ENDBRANCH  24  27
ENDBRANCH  11  23
TORSDOF 6
