REMARK  Name = CHEMBL258040
REMARK  4 active torsions:
REMARK  status: ('A' for Active; 'I' for Inactive)
REMARK    1  A    between atoms: C_3  and  N_28
REMARK    2  A    between atoms: C_6  and  C_7
REMARK    3  A    between atoms: C_7  and  C_8
REMARK    4  A    between atoms: C_14  and  N_21
REMARK                            x       y       z     vdW  Elec       q    Type
REMARK                         _______ _______ _______ _____ _____    ______ ____
ROOT
ATOM      1  C   UNL     1      -1.750  -1.006  -1.407  0.00  0.00    +0.223 C 
ATOM      2  O   UNL     1      -1.087  -0.588  -2.333  0.00  0.00    -0.275 OA
ATOM      3  N   UNL     1      -2.893  -1.678  -1.645  0.00  0.00    -0.268 N 
ATOM      4  C   UNL     1      -3.316  -1.894  -2.962  0.00  0.00    +0.154 A 
ATOM      5  C   UNL     1      -4.532  -2.597  -3.374  0.00  0.00    +0.043 A 
ATOM      6  C   UNL     1      -5.571  -3.226  -2.680  0.00  0.00    +0.038 A 
ATOM      7  C   UNL     1      -6.601  -3.814  -3.386  0.00  0.00    +0.052 A 
ATOM      8  C   UNL     1      -6.607  -3.782  -4.782  0.00  0.00    +0.027 A 
ATOM      9  C   UNL     1      -5.598  -3.172  -5.469  0.00  0.00    +0.029 A 
ATOM     10  C   UNL     1      -4.547  -2.571  -4.781  0.00  0.00    +0.068 A 
ATOM     11  N   UNL     1      -3.418  -1.898  -5.176  0.00  0.00    -0.275 N 
ATOM     12  H   UNL     1      -3.160  -1.723  -6.095  0.00  0.00    +0.189 HD
ATOM     13  N   UNL     1      -2.701  -1.498  -4.044  0.00  0.00    -0.157 NA
ATOM     14  H   UNL     1      -3.422  -2.013  -0.905  0.00  0.00    +0.156 HD
ENDROOT
BRANCH   7  15
ATOM     15  N   UNL     1      -7.645  -4.445  -2.700  0.00  0.00    -0.207 N 
ATOM     16  C   UNL     1      -7.596  -5.021  -1.344  0.00  0.00    +0.133 C 
ATOM     17  C   UNL     1      -8.980  -4.956  -0.671  0.00  0.00    +0.045 C 
ATOM     18  C   UNL     1      -9.982  -5.448  -1.759  0.00  0.00    +0.190 C 
ATOM     19  S   UNL     1      -9.209  -4.695  -3.249  0.00  0.00    +0.046 S 
ATOM     20  O   UNL     1      -9.738  -3.399  -3.491  0.00  0.00    -0.155 OA
ATOM     21  O   UNL     1      -9.097  -5.652  -4.293  0.00  0.00    -0.155 OA
ENDBRANCH   7  15
BRANCH   1  22
ATOM     22  C   UNL     1      -1.294  -0.773   0.011  0.00  0.00    +0.131 C 
BRANCH  22  28
ATOM     23  C   UNL     1      -0.017   1.379   0.026  0.00  0.00    +0.006 A 
ATOM     24  C   UNL     1       1.169   2.087   0.018  0.00  0.00    +0.023 A 
ATOM     25  C   UNL     1       2.381   1.409  -0.013  0.00  0.00    +0.030 A 
ATOM     26  C   UNL     1       2.396   0.020  -0.037  0.00  0.00    +0.023 A 
ATOM     27  C   UNL     1       1.207  -0.682  -0.029  0.00  0.00    +0.006 A 
ATOM     28  C   UNL     1       0.002  -0.004   0.002  0.00  0.00    -0.039 A 
BRANCH  25  29
ATOM     29  N   UNL     1       3.582   2.122  -0.021  0.00  0.00    -0.330 N 
ATOM     30  C   UNL     1       4.870   1.420   0.067  0.00  0.00    +0.105 C 
ATOM     31  C   UNL     1       5.753   1.862  -1.104  0.00  0.00    +0.019 C 
ATOM     32  C   UNL     1       5.867   3.388  -1.105  0.00  0.00    +0.003 C 
ATOM     33  C   UNL     1       4.479   4.005  -1.287  0.00  0.00    +0.019 C 
ATOM     34  C   UNL     1       3.582   3.588  -0.124  0.00  0.00    +0.105 C 
ENDBRANCH  25  29
ENDBRANCH  22  28
ENDBRANCH   1  22
TORSDOF 4
