REMARK  Name = CHEMBL339246
REMARK  7 active torsions:
REMARK  status: ('A' for Active; 'I' for Inactive)
REMARK    1  A    between atoms: C_1  and  C_2
REMARK    2  A    between atoms: C_8  and  S_10
REMARK    3  A    between atoms: S_10  and  C_11
REMARK    4  A    between atoms: C_11  and  C_12
REMARK    5  A    between atoms: C_12  and  O_14
REMARK    6  A    between atoms: O_14  and  C_15
REMARK    7  A    between atoms: C_15  and  C_16
REMARK                            x       y       z     vdW  Elec       q    Type
REMARK                         _______ _______ _______ _____ _____    ______ ____
ROOT
ATOM      1  S   UNL     1       0.074  -6.378  -2.176  0.00  0.00    -0.105 S 
ENDROOT
BRANCH   1   9
ATOM      2  C   UNL     1      -0.018   1.503   0.010  0.00  0.00    +0.109 C 
ATOM      3  C   UNL     1       0.002  -0.004   0.002  0.00  0.00    +0.216 C 
ATOM      4  O   UNL     1       0.020  -0.616   1.049  0.00  0.00    -0.276 OA
ATOM      5  N   UNL     1       0.000  -0.672  -1.169  0.00  0.00    -0.265 N 
ATOM      6  C   UNL     1       0.019  -2.064  -1.177  0.00  0.00    +0.165 A 
ATOM      7  N   UNL     1       0.034  -2.905  -0.160  0.00  0.00    -0.232 NA
ATOM      8  C   UNL     1       0.051  -4.212  -0.351  0.00  0.00    +0.135 A 
ATOM      9  C   UNL     1       0.053  -4.706  -1.620  0.00  0.00    +0.067 A 
ATOM     10  S   UNL     1       0.021  -3.189  -2.566  0.00  0.00    -0.046 S 
ATOM     11  H   UNL     1      -0.015  -0.182  -2.006  0.00  0.00    +0.157 HD
ENDBRANCH   1   9
BRANCH   1  12
ATOM     12  C   UNL     1       0.065  -6.239  -3.985  0.00  0.00    +0.195 C 
BRANCH  12  13
ATOM     13  C   UNL     1       0.082  -7.617  -4.594  0.00  0.00    +0.318 C 
ATOM     14  O   UNL     1       0.099  -8.593  -3.882  0.00  0.00    -0.250 OA
BRANCH  13  15
ATOM     15  O   UNL     1       0.079  -7.761  -5.929  0.00  0.00    -0.459 OA
BRANCH  15  16
ATOM     16  C   UNL     1       0.096  -9.096  -6.438  0.00  0.00    +0.267 C 
BRANCH  16  17
ATOM     17  C   UNL     1       0.089  -9.060  -7.944  0.00  0.00    -0.010 A 
ATOM     18  C   UNL     1      -1.111  -9.054  -8.630  0.00  0.00    +0.007 A 
ATOM     19  C   UNL     1      -1.117  -9.020 -10.012  0.00  0.00    +0.000 A 
ATOM     20  C   UNL     1       0.078  -8.992 -10.708  0.00  0.00    +0.000 A 
ATOM     21  C   UNL     1       1.278  -8.997 -10.022  0.00  0.00    +0.000 A 
ATOM     22  C   UNL     1       1.283  -9.026  -8.640  0.00  0.00    +0.007 A 
ENDBRANCH  16  17
ENDBRANCH  15  16
ENDBRANCH  13  15
ENDBRANCH  12  13
ENDBRANCH   1  12
TORSDOF 6
