REMARK  Name = CHEMBL315837
REMARK  9 active torsions:
REMARK  status: ('A' for Active; 'I' for Inactive)
REMARK    1  A    between atoms: C_1  and  C_2
REMARK    2  A    between atoms: C_2  and  C_3
REMARK    3  A    between atoms: C_2  and  N_4
REMARK    4  A    between atoms: C_12  and  N_13
REMARK    5  A    between atoms: N_13  and  C_14
REMARK    6  A    between atoms: N_19  and  C_20
REMARK    7  A    between atoms: C_20  and  C_21
REMARK    8  A    between atoms: C_21  and  C_22
REMARK    9  A    between atoms: C_22  and  O_23
REMARK                            x       y       z     vdW  Elec       q    Type
REMARK                         _______ _______ _______ _____ _____    ______ ____
ROOT
ATOM      1  N   UNL     1      -1.372  -0.511   0.012  0.00  0.00    -0.312 N 
ATOM      2  C   UNL     1      -2.313  -0.275   0.972  0.00  0.00    +0.201 A 
ATOM      3  N   UNL     1      -3.423  -0.878   0.664  0.00  0.00    -0.231 NA
ATOM      4  C   UNL     1      -3.267  -1.538  -0.510  0.00  0.00    +0.148 A 
ATOM      5  C   UNL     1      -1.952  -1.306  -0.944  0.00  0.00    +0.167 A 
ATOM      6  N   UNL     1      -1.542  -1.845  -2.088  0.00  0.00    -0.195 NA
ATOM      7  C   UNL     1      -2.362  -2.589  -2.813  0.00  0.00    +0.219 A 
ATOM      8  N   UNL     1      -3.612  -2.832  -2.442  0.00  0.00    -0.197 NA
ATOM      9  C   UNL     1      -4.101  -2.339  -1.310  0.00  0.00    +0.152 A 
ATOM     10  N   UNL     1      -1.898  -3.134  -3.999  0.00  0.00    -0.313 N 
ATOM     11  H   UNL     1      -0.986  -2.966  -4.286  0.00  0.00    +0.149 HD
ENDROOT
BRANCH   1  13
ATOM     12  C   UNL     1      -0.019   1.526   0.010  0.00  0.00    +0.030 C 
ATOM     13  C   UNL     1       0.002  -0.004   0.002  0.00  0.00    +0.084 C 
ATOM     14  C   UNL     1       0.742  -0.511   1.242  0.00  0.00    +0.030 C 
ENDBRANCH   1  13
BRANCH   9  15
ATOM     15  N   UNL     1      -5.407  -2.596  -0.932  0.00  0.00    -0.324 N 
ATOM     16  H   UNL     1      -5.757  -2.222  -0.108  0.00  0.00    +0.148 HD
BRANCH  15  17
ATOM     17  C   UNL     1      -6.263  -3.433  -1.778  0.00  0.00    +0.072 C 
ATOM     18  C   UNL     1      -6.970  -2.564  -2.838  0.00  0.00    +0.022 C 
ATOM     19  C   UNL     1      -8.380  -3.192  -2.965  0.00  0.00    +0.002 C 
ATOM     20  C   UNL     1      -8.713  -3.581  -1.504  0.00  0.00    +0.002 C 
ATOM     21  C   UNL     1      -7.371  -4.080  -0.929  0.00  0.00    +0.022 C 
ENDBRANCH  15  17
ENDBRANCH   9  15
BRANCH  10  22
ATOM     22  C   UNL     1      -2.784  -3.962  -4.821  0.00  0.00    +0.106 C 
BRANCH  22  23
ATOM     23  C   UNL     1      -2.031  -4.434  -6.066  0.00  0.00    +0.046 C 
BRANCH  23  24
ATOM     24  C   UNL     1      -2.957  -5.298  -6.925  0.00  0.00    +0.157 C 
BRANCH  24  25
ATOM     25  O   UNL     1      -2.253  -5.739  -8.088  0.00  0.00    -0.395 OA
ATOM     26  H   UNL     1      -2.780  -6.294  -8.680  0.00  0.00    +0.209 HD
ENDBRANCH  24  25
ENDBRANCH  23  24
ENDBRANCH  22  23
ENDBRANCH  10  22
TORSDOF 7
