REMARK  Name = CHEMBL183269
REMARK  5 active torsions:
REMARK  status: ('A' for Active; 'I' for Inactive)
REMARK    1  A    between atoms: C_1  and  O_2
REMARK    2  A    between atoms: O_2  and  C_3
REMARK    3  A    between atoms: C_12  and  C_13
REMARK    4  A    between atoms: N_18  and  C_19
REMARK    5  A    between atoms: C_22  and  N_25
REMARK                            x       y       z     vdW  Elec       q    Type
REMARK                         _______ _______ _______ _____ _____    ______ ____
ROOT
ATOM      1  C   UNL     1       0.785  -0.598  -0.978  0.00  0.00    +0.126 A 
ATOM      2  C   UNL     1       1.073   0.172  -2.110  0.00  0.00    +0.046 A 
ATOM      3  C   UNL     1       1.482  -0.413  -3.268  0.00  0.00    +0.015 A 
ATOM      4  C   UNL     1       1.619  -1.808  -3.332  0.00  0.00    +0.019 A 
ATOM      5  C   UNL     1       2.038  -2.462  -4.504  0.00  0.00    +0.124 A 
ATOM      6  N   UNL     1       2.144  -3.774  -4.490  0.00  0.00    -0.222 NA
ATOM      7  C   UNL     1       1.863  -4.484  -3.398  0.00  0.00    +0.220 A 
ATOM      8  N   UNL     1       1.466  -3.928  -2.271  0.00  0.00    -0.214 NA
ATOM      9  C   UNL     1       1.329  -2.598  -2.188  0.00  0.00    +0.083 A 
ATOM     10  C   UNL     1       0.915  -1.969  -1.006  0.00  0.00    +0.023 A 
ATOM     11  N   UNL     1       1.994  -5.861  -3.450  0.00  0.00    -0.284 N 
ATOM     12  H   UNL     1       1.719  -6.403  -2.694  0.00  0.00    +0.155 HD
ENDROOT
BRANCH  11  13
ATOM     13  C   UNL     1       2.525  -6.472  -4.593  0.00  0.00    +0.034 A 
ATOM     14  C   UNL     1       3.585  -5.881  -5.268  0.00  0.00    +0.025 A 
ATOM     15  C   UNL     1       4.108  -6.483  -6.395  0.00  0.00    +0.025 A 
ATOM     16  C   UNL     1       3.574  -7.680  -6.854  0.00  0.00    +0.030 A 
ATOM     17  C   UNL     1       2.514  -8.271  -6.179  0.00  0.00    +0.025 A 
ATOM     18  C   UNL     1       1.994  -7.672  -5.049  0.00  0.00    +0.025 A 
BRANCH  16  19
ATOM     19  N   UNL     1       4.103  -8.290  -7.996  0.00  0.00    -0.330 N 
ATOM     20  C   UNL     1       3.474  -9.491  -8.564  0.00  0.00    +0.105 C 
ATOM     21  C   UNL     1       3.183  -9.240 -10.047  0.00  0.00    +0.019 C 
ATOM     22  C   UNL     1       4.473  -8.815 -10.751  0.00  0.00    +0.003 C 
ATOM     23  C   UNL     1       4.988  -7.512 -10.133  0.00  0.00    +0.019 C 
ATOM     24  C   UNL     1       5.296  -7.739  -8.655  0.00  0.00    +0.105 C 
ENDBRANCH  16  19
ENDBRANCH  11  13
BRANCH  10  25
ATOM     25  C   UNL     1       0.608  -2.787   0.222  0.00  0.00    +0.025 C 
ATOM     26  C   UNL     1      -0.838  -2.518   0.687  0.00  0.00    +0.008 C 
ATOM     27  C   UNL     1      -0.750  -2.542   2.233  0.00  0.00    +0.001 C 
ATOM     28  C   UNL     1       0.609  -1.853   2.509  0.00  0.00    +0.001 C 
ATOM     29  C   UNL     1       1.528  -2.364   1.380  0.00  0.00    +0.008 C 
ENDBRANCH  10  25
BRANCH   1  31
ATOM     30  C   UNL     1       0.264   1.438   0.131  0.00  0.00    +0.277 C 
ATOM     31  O   UNL     1       0.379   0.014   0.164  0.00  0.00    -0.495 OA
ENDBRANCH   1  31
TORSDOF 4
