REMARK  Name = CHEMBL281948
REMARK  5 active torsions:
REMARK  status: ('A' for Active; 'I' for Inactive)
REMARK    1  A    between atoms: C_1  and  C_2
REMARK    2  A    between atoms: C_3  and  C_32
REMARK    3  A    between atoms: C_3  and  O_36
REMARK    4  A    between atoms: C_32  and  O_34
REMARK    5  A    between atoms: O_34  and  C_35
REMARK                            x       y       z     vdW  Elec       q    Type
REMARK                         _______ _______ _______ _____ _____    ______ ____
ROOT
ATOM      1  C   UNL     1      -1.145   0.921  -2.299  0.00  0.00    +0.070 C 
ATOM      2  C   UNL     1      -0.844  -0.187  -1.287  0.00  0.00    +0.186 C 
ATOM      3  C   UNL     1       0.661  -0.527  -1.292  0.00  0.00    +0.214 C 
ATOM      4  C   UNL     1       1.055  -0.635   0.196  0.00  0.00    +0.106 C 
ATOM      5  C   UNL     1      -0.244  -0.350   0.979  0.00  0.00    +0.226 C 
ATOM      6  O   UNL     1      -1.129   0.259   0.038  0.00  0.00    -0.327 OA
ATOM      7  N   UNL     1      -0.791  -1.617   1.472  0.00  0.00    -0.311 N 
ATOM      8  C   UNL     1      -0.632  -2.159   2.723  0.00  0.00    +0.052 A 
ATOM      9  C   UNL     1       0.128  -1.730   3.811  0.00  0.00    +0.026 A 
ATOM     10  C   UNL     1       0.072  -2.496   4.962  0.00  0.00    +0.002 A 
ATOM     11  C   UNL     1      -0.700  -3.643   5.049  0.00  0.00    +0.001 A 
ATOM     12  C   UNL     1      -1.459  -4.094   3.983  0.00  0.00    +0.010 A 
ATOM     13  C   UNL     1      -1.414  -3.337   2.811  0.00  0.00    +0.008 A 
ATOM     14  C   UNL     1      -2.052  -3.518   1.511  0.00  0.00    +0.022 A 
ATOM     15  C   UNL     1      -1.615  -2.450   0.728  0.00  0.00    +0.077 A 
ATOM     16  C   UNL     1      -1.969  -2.375  -0.624  0.00  0.00    +0.077 A 
ATOM     17  N   UNL     1      -1.621  -1.390  -1.601  0.00  0.00    -0.306 N 
ATOM     18  C   UNL     1      -2.148  -1.739  -2.821  0.00  0.00    +0.053 A 
ATOM     19  C   UNL     1      -2.010  -1.143  -4.074  0.00  0.00    +0.026 A 
ATOM     20  C   UNL     1      -2.691  -1.725  -5.129  0.00  0.00    +0.002 A 
ATOM     21  C   UNL     1      -3.479  -2.851  -4.967  0.00  0.00    +0.001 A 
ATOM     22  C   UNL     1      -3.627  -3.466  -3.735  0.00  0.00    +0.010 A 
ATOM     23  C   UNL     1      -2.944  -2.898  -2.660  0.00  0.00    +0.008 A 
ATOM     24  C   UNL     1      -2.795  -3.352  -1.194  0.00  0.00    +0.015 A 
ATOM     25  C   UNL     1      -3.293  -4.376  -0.393  0.00  0.00    -0.008 A 
ATOM     26  C   UNL     1      -2.935  -4.470   0.950  0.00  0.00    +0.052 A 
ATOM     27  C   UNL     1      -3.612  -5.641   1.528  0.00  0.00    +0.245 C 
ATOM     28  O   UNL     1      -3.517  -5.995   2.688  0.00  0.00    -0.270 OA
ATOM     29  N   UNL     1      -4.350  -6.265   0.595  0.00  0.00    -0.307 N 
ATOM     30  C   UNL     1      -4.214  -5.538  -0.672  0.00  0.00    +0.141 C 
ATOM     31  H   UNL     1      -4.883  -7.063   0.735  0.00  0.00    +0.149 HD
ENDROOT
BRANCH   3  32
ATOM     32  C   UNL     1       1.444   0.573  -1.962  0.00  0.00    +0.344 C 
ATOM     33  O   UNL     1       1.944   1.449  -1.297  0.00  0.00    -0.247 OA
BRANCH  32  34
ATOM     34  O   UNL     1       1.584   0.579  -3.296  0.00  0.00    -0.466 OA
ATOM     35  C   UNL     1       2.339   1.652  -3.864  0.00  0.00    +0.280 C 
ENDBRANCH  32  34
ENDBRANCH   3  32
BRANCH   3  36
ATOM     36  O   UNL     1       0.886  -1.772  -1.956  0.00  0.00    -0.374 OA
ATOM     37  H   UNL     1       1.815  -2.038  -1.989  0.00  0.00    +0.211 HD
ENDBRANCH   3  36
TORSDOF 3
