REMARK  Name = CHEMBL300936
REMARK  16 active torsions:
REMARK  status: ('A' for Active; 'I' for Inactive)
REMARK    1  A    between atoms: C_1  and  C_2
REMARK    2  A    between atoms: C_2  and  C_3
REMARK    3  A    between atoms: C_2  and  C_4
REMARK    4  A    between atoms: C_2  and  C_5
REMARK    5  A    between atoms: C_8  and  C_10
REMARK    6  A    between atoms: C_10  and  S_11
REMARK    7  A    between atoms: S_11  and  C_12
REMARK    8  A    between atoms: C_18  and  C_20
REMARK    9  A    between atoms: C_20  and  C_21
REMARK   10  A    between atoms: C_24  and  C_27
REMARK   11  A    between atoms: C_27  and  N_28
REMARK   12  A    between atoms: N_28  and  CA_29
REMARK   13  A    between atoms: CA_29  and  CB_30
REMARK   14  A    between atoms: CA_29  and  C_32
REMARK   15  A    between atoms: CB_30  and  OG_31
REMARK   16  A    between atoms: C_32  and  O_33
REMARK                            x       y       z     vdW  Elec       q    Type
REMARK                         _______ _______ _______ _____ _____    ______ ____
ROOT
ATOM      1  C   UNL     1       1.190  -4.819  -5.598  0.00  0.00    +0.067 A 
ATOM      2  C   UNL     1       1.371  -6.127  -5.932  0.00  0.00    +0.135 A 
ATOM      3  N   UNL     1       1.132  -6.524  -7.168  0.00  0.00    -0.232 NA
ATOM      4  C   UNL     1       0.719  -5.678  -8.093  0.00  0.00    +0.165 A 
ATOM      5  S   UNL     1       0.640  -4.152  -7.164  0.00  0.00    -0.046 S 
ATOM      6  N   UNL     1       0.420  -5.912  -9.432  0.00  0.00    -0.264 N 
ATOM      7  C   UNL     1       0.542  -7.153  -9.943  0.00  0.00    +0.223 C 
ATOM      8  O   UNL     1       0.913  -8.066  -9.236  0.00  0.00    -0.275 OA
ATOM      9  H   UNL     1       0.124  -5.181  -9.998  0.00  0.00    +0.157 HD
ENDROOT
BRANCH   1  10
ATOM     10  S   UNL     1       1.424  -4.009  -4.051  0.00  0.00    -0.107 S 
BRANCH  10  11
ATOM     11  C   UNL     1       0.974  -2.284  -4.386  0.00  0.00    +0.170 C 
BRANCH  11  15
ATOM     12  C   UNL     1       0.707  -0.490  -1.238  0.00  0.00    +0.131 A 
ATOM     13  C   UNL     1       1.979  -0.232  -1.585  0.00  0.00    +0.156 A 
ATOM     14  N   UNL     1       2.215  -0.849  -2.757  0.00  0.00    -0.221 NA
ATOM     15  C   UNL     1       1.132  -1.470  -3.128  0.00  0.00    +0.206 A 
ATOM     16  O   UNL     1       0.183  -1.270  -2.203  0.00  0.00    -0.443 OA
BRANCH  12  18
ATOM     17  C   UNL     1      -0.019   1.526   0.010  0.00  0.00    +0.019 C 
ATOM     18  C   UNL     1       0.002  -0.004   0.002  0.00  0.00    +0.022 C 
ATOM     19  C   UNL     1       0.742  -0.511   1.242  0.00  0.00    +0.019 C 
ATOM     20  C   UNL     1      -1.433  -0.534   0.013  0.00  0.00    +0.019 C 
ENDBRANCH  12  18
ENDBRANCH  11  15
ENDBRANCH  10  11
ENDBRANCH   1  10
BRANCH   7  21
ATOM     21  C   UNL     1       0.219  -7.406 -11.393  0.00  0.00    +0.131 C 
BRANCH  21  22
ATOM     22  C   UNL     1       0.436  -8.864 -11.709  0.00  0.00    -0.039 A 
ATOM     23  C   UNL     1       1.674  -9.300 -12.143  0.00  0.00    +0.004 A 
ATOM     24  C   UNL     1       1.873 -10.637 -12.433  0.00  0.00    +0.002 A 
ATOM     25  C   UNL     1       0.834 -11.537 -12.288  0.00  0.00    -0.064 A 
ATOM     26  C   UNL     1      -0.403 -11.101 -11.854  0.00  0.00    +0.002 A 
ATOM     27  C   UNL     1      -0.601  -9.765 -11.560  0.00  0.00    +0.004 A 
BRANCH  25  28
ATOM     28  C   ACE A   0       1.051 -12.995 -12.605  0.00  0.00    -0.046 C 
BRANCH  28  29
ATOM     29  N   UNL     1       1.502 -13.697 -11.396  0.00  0.00    +0.387 N 
ATOM     30  H1  UNL     1       2.368 -13.290 -11.075  0.00  0.00    -0.085 HD
ATOM     31  H2  UNL     1       0.801 -13.610 -10.676  0.00  0.00    -0.085 HD
BRANCH  29  32
ATOM     32  CA  UNL     1       1.713 -15.117 -11.705  0.00  0.00    -0.020 C 
BRANCH  32  33
ATOM     33  CB  UNL     1       2.301 -15.823 -10.482  0.00  0.00    +0.142 C 
BRANCH  33  34
ATOM     34  O   UNL     1       1.347 -15.806  -9.418  0.00  0.00    -0.397 OA
ATOM     35  H   UNL     1       1.653 -16.237  -8.608  0.00  0.00    +0.209 HD
ENDBRANCH  33  34
ENDBRANCH  32  33
BRANCH  32  36
ATOM     36  C   UNL     1       0.376 -15.764 -12.074  0.00  0.00    +0.142 C 
BRANCH  36  37
ATOM     37  O   UNL     1      -0.489 -15.749 -10.937  0.00  0.00    -0.397 OA
ATOM     38  H   UNL     1      -1.357 -16.143 -11.098  0.00  0.00    +0.209 HD
ENDBRANCH  36  37
ENDBRANCH  32  36
ENDBRANCH  29  32
ENDBRANCH  28  29
ENDBRANCH  25  28
ENDBRANCH  21  22
ENDBRANCH   7  21
TORSDOF 13
