REMARK  Name = CHEMBL373346
REMARK  5 active torsions:
REMARK  status: ('A' for Active; 'I' for Inactive)
REMARK    1  A    between atoms: C_1  and  C_2
REMARK    2  A    between atoms: C_2  and  C_3
REMARK    3  A    between atoms: C_2  and  C_16
REMARK    4  A    between atoms: C_6  and  N_9
REMARK    5  A    between atoms: C_21  and  C_25
REMARK                            x       y       z     vdW  Elec       q    Type
REMARK                         _______ _______ _______ _____ _____    ______ ____
ROOT
ATOM      1  C   UNL     1       0.221   1.499  -0.144  0.00  0.00    +0.022 C 
ATOM      2  C   UNL     1      -0.024  -0.002   0.018  0.00  0.00    +0.102 C 
ENDROOT
BRANCH   2   3
ATOM      3  C   UNL     1       0.477  -0.728  -1.204  0.00  0.00    +0.225 C 
ATOM      4  O   UNL     1       1.345  -1.569  -1.097  0.00  0.00    -0.275 OA
ATOM      5  N   UNL     1      -0.039  -0.444  -2.416  0.00  0.00    -0.268 N 
ATOM      6  C   UNL     1       0.427  -1.119  -3.552  0.00  0.00    +0.147 A 
ATOM      7  C   UNL     1       1.418  -2.113  -3.572  0.00  0.00    +0.068 A 
ATOM      8  C   UNL     1       1.580  -2.511  -4.854  0.00  0.00    +0.041 A 
ATOM      9  N   UNL     1       0.726  -1.799  -5.620  0.00  0.00    -0.280 N 
ATOM     10  H   UNL     1       0.625  -1.875  -6.582  0.00  0.00    +0.189 HD
ATOM     11  N   UNL     1       0.009  -0.936  -4.783  0.00  0.00    -0.158 NA
ATOM     12  H   UNL     1      -0.734   0.228  -2.501  0.00  0.00    +0.156 HD
BRANCH   8  13
ATOM     13  C   UNL     1       2.543  -3.563  -5.342  0.00  0.00    +0.037 C 
ATOM     14  C   UNL     1       3.163  -3.366  -6.727  0.00  0.00    +0.010 C 
ATOM     15  C   UNL     1       2.096  -4.442  -6.512  0.00  0.00    +0.010 C 
ENDBRANCH   8  13
ENDBRANCH   2   3
BRANCH   2  16
ATOM     16  C   UNL     1       0.711  -0.502   1.236  0.00  0.00    -0.036 A 
ATOM     17  C   UNL     1       2.085  -0.371   1.314  0.00  0.00    +0.006 A 
ATOM     18  C   UNL     1       2.761  -0.828   2.429  0.00  0.00    +0.024 A 
ATOM     19  C   UNL     1       2.059  -1.418   3.471  0.00  0.00    +0.041 A 
ATOM     20  C   UNL     1       0.679  -1.548   3.389  0.00  0.00    +0.024 A 
ATOM     21  C   UNL     1       0.008  -1.085   2.274  0.00  0.00    +0.006 A 
BRANCH  19  22
ATOM     22  N   UNL     1       2.742  -1.883   4.602  0.00  0.00    -0.245 N 
ATOM     23  C   UNL     1       2.855  -3.227   4.923  0.00  0.00    +0.012 C 
ATOM     24  C   UNL     1       2.351  -4.229   4.230  0.00  0.00    +0.029 C 
ATOM     25  C   UNL     1       3.655  -3.351   6.202  0.00  0.00    +0.060 C 
ATOM     26  C   UNL     1       3.986  -1.893   6.574  0.00  0.00    +0.102 C 
ATOM     27  C   UNL     1       3.352  -1.072   5.475  0.00  0.00    +0.224 C 
ATOM     28  O   UNL     1       3.389   0.138   5.397  0.00  0.00    -0.275 OA
ENDBRANCH  19  22
ENDBRANCH   2  16
TORSDOF 4
