REMARK  Name = CHEMBL443198
REMARK  5 active torsions:
REMARK  status: ('A' for Active; 'I' for Inactive)
REMARK    1  A    between atoms: C_6  and  N_7
REMARK    2  A    between atoms: C_8  and  C_10
REMARK    3  A    between atoms: C_11  and  N_16
REMARK    4  A    between atoms: C_17  and  C_19
REMARK    5  A    between atoms: C_19  and  O_20
REMARK                            x       y       z     vdW  Elec       q    Type
REMARK                         _______ _______ _______ _____ _____    ______ ____
ROOT
ATOM      1  C   UNL     1      -2.443  -2.807  -0.202  0.00  0.00    +0.142 A 
ATOM      2  C   UNL     1      -2.596  -4.185  -0.319  0.00  0.00    +0.084 A 
ATOM      3  C   UNL     1      -3.982  -4.397  -0.382  0.00  0.00    +0.158 A 
ATOM      4  N   UNL     1      -4.570  -3.232  -0.306  0.00  0.00    -0.180 NA
ATOM      5  H   UNL     1      -3.927  -1.341  -0.121  0.00  0.00    +0.189 HD
ATOM      6  N   UNL     1      -3.711  -2.284  -0.195  0.00  0.00    -0.271 N 
ENDROOT
BRANCH   1   8
ATOM      7  N   UNL     1      -1.200  -0.721   0.010  0.00  0.00    -0.280 N 
ATOM      8  C   UNL     1      -1.183  -2.064  -0.100  0.00  0.00    +0.268 C 
ATOM      9  O   UNL     1      -0.123  -2.661  -0.113  0.00  0.00    -0.268 OA
ATOM     10  H   UNL     1      -2.044  -0.252   0.098  0.00  0.00    +0.155 HD
BRANCH   7  16
ATOM     11  C   UNL     1       1.072  -0.453  -0.766  0.00  0.00    +0.026 A 
ATOM     12  C   UNL     1       2.256   0.257  -0.778  0.00  0.00    +0.040 A 
ATOM     13  C   UNL     1       2.378   1.416  -0.030  0.00  0.00    +0.124 A 
ATOM     14  C   UNL     1       1.312   1.865   0.731  0.00  0.00    +0.040 A 
ATOM     15  C   UNL     1       0.126   1.159   0.746  0.00  0.00    +0.026 A 
ATOM     16  C   UNL     1       0.002  -0.004  -0.004  0.00  0.00    +0.034 A 
ATOM     17  F   UNL     1       3.538   2.108  -0.043  0.00  0.00    -0.205 F 
ENDBRANCH   7  16
ENDBRANCH   1   8
BRANCH   2  18
ATOM     18  N   UNL     1      -1.587  -5.150  -0.365  0.00  0.00    -0.281 N 
ATOM     19  C   UNL     1      -1.906  -6.454  -0.482  0.00  0.00    +0.243 C 
ATOM     20  O   UNL     1      -3.070  -6.790  -0.548  0.00  0.00    -0.273 OA
ATOM     21  H   UNL     1      -0.656  -4.881  -0.313  0.00  0.00    +0.155 HD
BRANCH  19  22
ATOM     22  C   UNL     1      -0.818  -7.495  -0.531  0.00  0.00    +0.251 C 
BRANCH  22  23
ATOM     23  O   UNL     1      -1.404  -8.792  -0.656  0.00  0.00    -0.386 OA
ATOM     24  H   UNL     1      -0.760  -9.512  -0.694  0.00  0.00    +0.210 HD
ENDBRANCH  22  23
ENDBRANCH  19  22
ENDBRANCH   2  18
TORSDOF 5
