REMARK  Name = CHEMBL509730
REMARK  7 active torsions:
REMARK  status: ('A' for Active; 'I' for Inactive)
REMARK    1  A    between atoms: C_1  and  C_2
REMARK    2  A    between atoms: C_2  and  C_3
REMARK    3  A    between atoms: C_2  and  N_4
REMARK    4  A    between atoms: N_4  and  C_5
REMARK    5  A    between atoms: C_13  and  C_14
REMARK    6  A    between atoms: N_16  and  C_17
REMARK    7  A    between atoms: C_20  and  N_23
REMARK                            x       y       z     vdW  Elec       q    Type
REMARK                         _______ _______ _______ _____ _____    ______ ____
ROOT
ATOM      1  C   UNL     1      -2.066  -0.646  -1.171  0.00  0.00    +0.126 A 
ATOM      2  C   UNL     1      -1.479  -0.314  -2.359  0.00  0.00    +0.087 A 
ATOM      3  C   UNL     1      -2.208  -0.462  -3.547  0.00  0.00    +0.125 A 
ATOM      4  N   UNL     1      -3.452  -0.917  -3.510  0.00  0.00    -0.212 NA
ATOM      5  C   UNL     1      -4.030  -1.242  -2.353  0.00  0.00    +0.177 A 
ATOM      6  N   UNL     1      -3.353  -1.119  -1.172  0.00  0.00    -0.199 N 
ATOM      7  N   UNL     1      -4.200  -1.536  -0.139  0.00  0.00    -0.170 NA
ATOM      8  C   UNL     1      -5.348  -1.908  -0.639  0.00  0.00    +0.156 A 
ATOM      9  C   UNL     1      -5.309  -1.738  -2.036  0.00  0.00    +0.116 A 
ATOM     10  N   UNL     1      -1.629  -0.131  -4.759  0.00  0.00    -0.326 N 
ATOM     11  H   UNL     1      -0.719   0.203  -4.787  0.00  0.00    +0.148 HD
ENDROOT
BRANCH  10  12
ATOM     12  C   UNL     1      -2.391  -0.285  -6.001  0.00  0.00    +0.072 C 
ATOM     13  C   UNL     1      -2.265  -1.725  -6.501  0.00  0.00    +0.020 C 
ATOM     14  C   UNL     1      -3.061  -1.886  -7.798  0.00  0.00    -0.014 C 
ATOM     15  C   UNL     1      -2.509  -0.929  -8.857  0.00  0.00    -0.075 C 
ATOM     16  C   UNL     1      -2.635   0.512  -8.357  0.00  0.00    -0.014 C 
ATOM     17  C   UNL     1      -1.839   0.672  -7.060  0.00  0.00    +0.020 C 
BRANCH  15  18
ATOM     18  N   UNL     1      -3.273  -1.083 -10.102  0.00  0.00    +0.380 N 
ATOM     19  H   UNL     1      -4.244  -0.870  -9.930  0.00  0.00    -0.090 HD
ATOM     20  H   UNL     1      -2.909  -0.452 -10.800  0.00  0.00    -0.090 HD
ATOM     21  H   UNL     1      -3.190  -2.033 -10.432  0.00  0.00    -0.090 HD
ENDBRANCH  15  18
ENDBRANCH  10  12
BRANCH   1  22
ATOM     22  N   UNL     1      -1.372  -0.511   0.012  0.00  0.00    -0.327 N 
ATOM     23  H   UNL     1      -1.794  -0.752   0.852  0.00  0.00    +0.148 HD
BRANCH  22  25
ATOM     24  C   UNL     1      -0.019   1.526   0.010  0.00  0.00    +0.027 C 
ATOM     25  C   UNL     1       0.002  -0.004   0.002  0.00  0.00    +0.066 C 
ATOM     26  C   UNL     1       0.742  -0.511   1.242  0.00  0.00    +0.027 C 
ENDBRANCH  22  25
ENDBRANCH   1  22
BRANCH   9  27
ATOM     27  C   UNL     1      -6.364  -2.030  -2.961  0.00  0.00    +0.104 C 
ATOM     28  N   UNL     1      -7.200  -2.260  -3.694  0.00  0.00    -0.191 NA
ENDBRANCH   9  27
TORSDOF 5
