REMARK  Name = CHEMBL192556
REMARK  7 active torsions:
REMARK  status: ('A' for Active; 'I' for Inactive)
REMARK    1  A    between atoms: C_1  and  C_2
REMARK    2  A    between atoms: C_2  and  C_3
REMARK    3  A    between atoms: C_2  and  C_18
REMARK    4  A    between atoms: C_6  and  N_9
REMARK    5  A    between atoms: C_12  and  C_15
REMARK    6  A    between atoms: N_20  and  C_21
REMARK    7  A    between atoms: C_23  and  C_27
REMARK                            x       y       z     vdW  Elec       q    Type
REMARK                         _______ _______ _______ _____ _____    ______ ____
ROOT
ATOM      1  C   UNL     1       0.708  -0.490  -1.238  0.00  0.00    -0.036 A 
ATOM      2  C   UNL     1       2.031  -0.153  -1.456  0.00  0.00    +0.006 A 
ATOM      3  C   UNL     1       2.680  -0.597  -2.591  0.00  0.00    +0.024 A 
ATOM      4  C   UNL     1       2.003  -1.383  -3.514  0.00  0.00    +0.036 A 
ATOM      5  C   UNL     1       0.674  -1.720  -3.292  0.00  0.00    +0.024 A 
ATOM      6  C   UNL     1       0.032  -1.277  -2.152  0.00  0.00    +0.006 A 
ENDROOT
BRANCH   4   7
ATOM      7  N   UNL     1       2.658  -1.834  -4.665  0.00  0.00    -0.271 N 
ATOM      8  C   UNL     1       2.071  -2.759  -5.643  0.00  0.00    +0.115 C 
ATOM      9  C   UNL     1       2.942  -2.623  -6.912  0.00  0.00    +0.041 C 
ATOM     10  C   UNL     1       4.288  -2.142  -6.321  0.00  0.00    +0.162 C 
ATOM     11  C   UNL     1       3.902  -1.471  -5.022  0.00  0.00    +0.232 C 
ATOM     12  O   UNL     1       4.613  -0.717  -4.391  0.00  0.00    -0.274 OA
BRANCH  10  13
ATOM     13  C   UNL     1       4.946  -1.151  -7.247  0.00  0.00    +0.222 C 
ATOM     14  O   UNL     1       4.406  -0.844  -8.289  0.00  0.00    -0.275 OA
ATOM     15  N   UNL     1       6.134  -0.608  -6.917  0.00  0.00    -0.329 N 
ATOM     16  H   UNL     1       6.566  -0.854  -6.084  0.00  0.00    +0.145 HD
ATOM     17  H   UNL     1       6.558   0.030  -7.513  0.00  0.00    +0.145 HD
ENDBRANCH  10  13
ENDBRANCH   4   7
BRANCH   1  19
ATOM     18  C   UNL     1      -0.003   1.526   0.019  0.00  0.00    +0.022 C 
ATOM     19  C   UNL     1       0.002  -0.004   0.002  0.00  0.00    +0.102 C 
BRANCH  19  20
ATOM     20  C   UNL     1       0.721  -0.518   1.223  0.00  0.00    +0.225 C 
ATOM     21  O   UNL     1       1.709  -1.210   1.098  0.00  0.00    -0.275 OA
ATOM     22  N   UNL     1       0.266  -0.207   2.453  0.00  0.00    -0.270 N 
ATOM     23  H   UNL     1      -0.524   0.346   2.553  0.00  0.00    +0.156 HD
BRANCH  22  24
ATOM     24  C   UNL     1       0.931  -0.683   3.583  0.00  0.00    +0.121 A 
ATOM     25  C   UNL     1       2.045  -1.465   3.591  0.00  0.00    +0.068 A 
ATOM     26  C   UNL     1       2.385  -1.712   4.923  0.00  0.00    +0.068 A 
ATOM     27  N   UNL     1       1.514  -1.106   5.689  0.00  0.00    -0.177 NA
ATOM     28  H   UNL     1      -0.163   0.086   5.172  0.00  0.00    +0.190 HD
ATOM     29  N   UNL     1       0.590  -0.446   4.870  0.00  0.00    -0.264 N 
BRANCH  26  30
ATOM     30  C   UNL     1       3.554  -2.537   5.398  0.00  0.00    +0.040 C 
ATOM     31  C   UNL     1       4.221  -3.466   4.382  0.00  0.00    +0.010 C 
ATOM     32  C   UNL     1       3.356  -4.050   5.500  0.00  0.00    +0.010 C 
ENDBRANCH  26  30
ENDBRANCH  22  24
ENDBRANCH  19  20
ENDBRANCH   1  19
TORSDOF 6
