REMARK  Name = CHEMBL139653
REMARK  7 active torsions:
REMARK  status: ('A' for Active; 'I' for Inactive)
REMARK    1  A    between atoms: C_3  and  N_26
REMARK    2  A    between atoms: C_6  and  N_7
REMARK    3  A    between atoms: N_16  and  C_19
REMARK    4  A    between atoms: C_29  and  C_32
REMARK    5  A    between atoms: C_32  and  C_33
REMARK    6  A    between atoms: C_33  and  C_34
REMARK    7  A    between atoms: C_34  and  O_35
REMARK                            x       y       z     vdW  Elec       q    Type
REMARK                         _______ _______ _______ _____ _____    ______ ____
ROOT
ATOM      1  N   UNL     1      -1.430  -1.749  -2.139  0.00  0.00    -0.284 N 
ATOM      2  C   UNL     1      -2.525  -0.908  -2.083  0.00  0.00    +0.221 A 
ATOM      3  N   UNL     1      -2.448   0.281  -2.671  0.00  0.00    -0.222 NA
ATOM      4  C   UNL     1      -3.466   1.123  -2.648  0.00  0.00    +0.126 A 
ATOM      5  C   UNL     1      -4.637   0.734  -1.987  0.00  0.00    +0.036 A 
ATOM      6  C   UNL     1      -5.808   1.602  -1.914  0.00  0.00    +0.018 A 
ATOM      7  C   UNL     1      -6.905   1.149  -1.253  0.00  0.00    +0.071 A 
ATOM      8  C   UNL     1      -6.897  -0.129  -0.658  0.00  0.00    +0.253 A 
ATOM      9  O   UNL     1      -7.892  -0.516  -0.070  0.00  0.00    -0.268 OA
ATOM     10  N   UNL     1      -5.821  -0.934  -0.722  0.00  0.00    -0.289 N 
ATOM     11  C   UNL     1      -4.682  -0.537  -1.374  0.00  0.00    +0.149 A 
ATOM     12  N   UNL     1      -3.613  -1.320  -1.451  0.00  0.00    -0.196 NA
ATOM     13  H   UNL     1      -1.497  -2.656  -1.802  0.00  0.00    +0.155 HD
ENDROOT
BRANCH  10  14
ATOM     14  C   UNL     1      -5.867  -2.253  -0.087  0.00  0.00    +0.096 C 
ATOM     15  C   UNL     1      -4.479  -2.625   0.482  0.00  0.00    +0.029 C 
ATOM     16  C   UNL     1      -4.712  -2.787   2.016  0.00  0.00    -0.009 C 
ATOM     17  C   UNL     1      -4.971  -1.337   2.526  0.00  0.00    +0.004 C 
ATOM     18  C   UNL     1      -6.359  -0.964   1.957  0.00  0.00    +0.006 C 
ATOM     19  C   UNL     1      -6.808  -2.224   1.156  0.00  0.00    +0.012 C 
ATOM     20  C   UNL     1      -6.171  -3.364   2.028  0.00  0.00    +0.009 C 
ENDBRANCH  10  14
BRANCH   1  26
ATOM     21  C   UNL     1       0.085   0.062  -2.648  0.00  0.00    +0.025 A 
ATOM     22  C   UNL     1       1.276   0.509  -3.184  0.00  0.00    +0.023 A 
ATOM     23  C   UNL     1       2.161  -0.389  -3.753  0.00  0.00    +0.014 A 
ATOM     24  C   UNL     1       1.856  -1.737  -3.786  0.00  0.00    +0.023 A 
ATOM     25  C   UNL     1       0.667  -2.191  -3.252  0.00  0.00    +0.025 A 
ATOM     26  C   UNL     1      -0.225  -1.292  -2.680  0.00  0.00    +0.034 A 
BRANCH  23  27
ATOM     27  N   UNL     1       3.366   0.068  -4.295  0.00  0.00    -0.393 NA
ATOM     28  C   UNL     1       3.416  -0.267  -5.723  0.00  0.00    +0.085 C 
ATOM     29  C   UNL     1       4.696   0.302  -6.340  0.00  0.00    +0.021 C 
ATOM     30  C   UNL     1       5.910  -0.303  -5.629  0.00  0.00    -0.008 C 
ATOM     31  C   UNL     1       5.809  -0.011  -4.129  0.00  0.00    +0.021 C 
ATOM     32  C   UNL     1       4.488  -0.568  -3.595  0.00  0.00    +0.085 C 
ATOM     33  H   UNL     1       3.425   1.069  -4.184  0.00  0.00    +0.126 HD
BRANCH  30  34
ATOM     34  C   UNL     1       7.192   0.320  -6.187  0.00  0.00    +0.006 C 
BRANCH  34  35
ATOM     35  C   UNL     1       8.407  -0.373  -5.567  0.00  0.00    +0.028 C 
BRANCH  35  36
ATOM     36  C   UNL     1       9.688   0.250  -6.124  0.00  0.00    +0.156 C 
BRANCH  36  37
ATOM     37  O   UNL     1      10.823  -0.396  -5.545  0.00  0.00    -0.395 OA
ATOM     38  H   UNL     1      11.672  -0.051  -5.853  0.00  0.00    +0.209 HD
ENDBRANCH  36  37
ENDBRANCH  35  36
ENDBRANCH  34  35
ENDBRANCH  30  34
ENDBRANCH  23  27
ENDBRANCH   1  26
TORSDOF 7
