REMARK  Name = CHEMBL362109
REMARK  7 active torsions:
REMARK  status: ('A' for Active; 'I' for Inactive)
REMARK    1  A    between atoms: C_1  and  O_2
REMARK    2  A    between atoms: O_2  and  C_3
REMARK    3  A    between atoms: C_6  and  C_9
REMARK    4  A    between atoms: C_19  and  N_23
REMARK    5  A    between atoms: N_26  and  N_27
REMARK    6  A    between atoms: C_28  and  O_30
REMARK    7  A    between atoms: O_30  and  C_31
REMARK                            x       y       z     vdW  Elec       q    Type
REMARK                         _______ _______ _______ _____ _____    ______ ____
ROOT
ATOM      1  C   UNL     1       2.604  -2.553   4.299  0.00  0.00    +0.104 A 
ATOM      2  C   UNL     1       2.218  -3.780   4.889  0.00  0.00    +0.075 A 
ATOM      3  C   UNL     1       3.124  -4.052   5.905  0.00  0.00    +0.078 A 
ATOM      4  N   UNL     1       4.016  -3.039   5.930  0.00  0.00    -0.276 N 
ATOM      5  H   UNL     1       4.766  -2.959   6.539  0.00  0.00    +0.189 HD
ATOM      6  N   UNL     1       3.680  -2.124   4.925  0.00  0.00    -0.173 NA
ATOM      7  C   UNL     1       2.752  -5.335   6.550  0.00  0.00    +0.013 A 
ATOM      8  C   UNL     1       3.317  -6.047   7.597  0.00  0.00    +0.011 A 
ATOM      9  C   UNL     1       2.754  -7.248   8.010  0.00  0.00    +0.002 A 
ATOM     10  C   UNL     1       1.632  -7.745   7.387  0.00  0.00    +0.024 A 
ATOM     11  C   UNL     1       1.046  -7.045   6.330  0.00  0.00    +0.046 A 
ATOM     12  C   UNL     1       1.604  -5.838   5.909  0.00  0.00    +0.053 A 
ATOM     13  C   UNL     1       1.232  -4.879   4.845  0.00  0.00    +0.200 C 
ATOM     14  O   UNL     1       0.292  -4.976   4.080  0.00  0.00    -0.286 OA
ENDROOT
BRANCH   1  18
ATOM     15  C   UNL     1       0.646  -0.603   1.067  0.00  0.00    +0.120 A 
ATOM     16  C   UNL     1       1.234   0.149   2.076  0.00  0.00    +0.046 A 
ATOM     17  C   UNL     1       1.869  -0.480   3.126  0.00  0.00    +0.013 A 
ATOM     18  C   UNL     1       1.921  -1.873   3.173  0.00  0.00    +0.003 A 
ATOM     19  C   UNL     1       1.331  -2.625   2.158  0.00  0.00    +0.013 A 
ATOM     20  C   UNL     1       0.692  -1.990   1.114  0.00  0.00    +0.046 A 
BRANCH  15  22
ATOM     21  C   UNL     1       0.011   1.449   0.048  0.00  0.00    +0.277 C 
ATOM     22  O   UNL     1       0.021   0.020   0.034  0.00  0.00    -0.495 OA
ENDBRANCH  15  22
ENDBRANCH   1  18
BRANCH  11  23
ATOM     23  N   UNL     1      -0.088  -7.548   5.701  0.00  0.00    -0.268 N 
ATOM     24  C   UNL     1      -0.909  -8.386   6.363  0.00  0.00    +0.320 C 
ATOM     25  O   UNL     1      -0.717  -8.623   7.540  0.00  0.00    -0.251 OA
ATOM     26  N   UNL     1      -1.944  -8.963   5.720  0.00  0.00    -0.215 N 
ATOM     27  H   UNL     1      -0.287  -7.295   4.786  0.00  0.00    +0.156 HD
ATOM     28  H   UNL     1      -2.535  -9.567   6.196  0.00  0.00    +0.174 HD
BRANCH  26  29
ATOM     29  N   UNL     1      -2.165  -8.690   4.363  0.00  0.00    -0.198 N 
ATOM     30  C   UNL     1      -3.200  -9.267   3.720  0.00  0.00    +0.417 C 
ATOM     31  O   UNL     1      -3.392  -9.030   2.544  0.00  0.00    -0.225 OA
ATOM     32  H   UNL     1      -1.574  -8.087   3.887  0.00  0.00    +0.176 HD
BRANCH  30  33
ATOM     33  O   UNL     1      -4.021 -10.105   4.381  0.00  0.00    -0.453 OA
ATOM     34  C   UNL     1      -5.097 -10.680   3.638  0.00  0.00    +0.282 C 
ENDBRANCH  30  33
ENDBRANCH  26  29
ENDBRANCH  11  23
TORSDOF 5
