REMARK  Name = CHEMBL553906
REMARK  3 active torsions:
REMARK  status: ('A' for Active; 'I' for Inactive)
REMARK    1  A    between atoms: C_1  and  C_2
REMARK    2  A    between atoms: C_8  and  C_10
REMARK    3  A    between atoms: C_13  and  N_16
REMARK                            x       y       z     vdW  Elec       q    Type
REMARK                         _______ _______ _______ _____ _____    ______ ____
ROOT
ATOM      1  C   UNL     1      -0.018   1.503   0.010  0.00  0.00    +0.090 C 
ATOM      2  C   UNL     1       0.002  -0.004   0.002  0.00  0.00    +0.153 A 
ATOM      3  N   UNL     1       0.008  -0.764  -1.057  0.00  0.00    -0.132 NA
ATOM      4  N   UNL     1       0.027  -2.004  -0.710  0.00  0.00    -0.120 NA
ATOM      5  C   UNL     1       0.034  -2.089   0.586  0.00  0.00    +0.218 A 
ATOM      6  N   UNL     1       0.024  -0.821   1.114  0.00  0.00    -0.190 N 
ATOM      7  N   UNL     1       0.035  -0.725   2.499  0.00  0.00    -0.156 NA
ATOM      8  C   UNL     1       0.056  -1.796   3.252  0.00  0.00    +0.132 A 
ATOM      9  S   UNL     1       0.054  -3.108   2.039  0.00  0.00    -0.026 S 
ENDROOT
BRANCH   8  10
ATOM     10  C   UNL     1       0.071  -1.895   4.727  0.00  0.00    +0.009 A 
ATOM     11  C   UNL     1       0.056  -0.736   5.506  0.00  0.00    +0.012 A 
ATOM     12  C   UNL     1       0.070  -0.831   6.880  0.00  0.00    +0.023 A 
ATOM     13  C   UNL     1       0.098  -2.079   7.492  0.00  0.00    +0.025 A 
ATOM     14  C   UNL     1       0.113  -3.235   6.719  0.00  0.00    +0.023 A 
ATOM     15  C   UNL     1       0.094  -3.147   5.344  0.00  0.00    +0.012 A 
BRANCH  13  16
ATOM     16  N   UNL     1       0.113  -2.172   8.883  0.00  0.00    -0.358 N 
ATOM     17  H   UNL     1       0.103  -1.366   9.424  0.00  0.00    +0.142 HD
ATOM     18  H   UNL     1       0.133  -3.042   9.311  0.00  0.00    +0.142 HD
ENDBRANCH  13  16
ENDBRANCH   8  10
TORSDOF 2
