REMARK  Name = CHEMBL195641
REMARK  7 active torsions:
REMARK  status: ('A' for Active; 'I' for Inactive)
REMARK    1  A    between atoms: C_6  and  N_7
REMARK    2  A    between atoms: C_9  and  C_27
REMARK    3  A    between atoms: N_14  and  C_15
REMARK    4  A    between atoms: C_18  and  N_24
REMARK    5  A    between atoms: C_19  and  N_21
REMARK    6  A    between atoms: N_21  and  C_22
REMARK    7  A    between atoms: N_24  and  C_25
REMARK                            x       y       z     vdW  Elec       q    Type
REMARK                         _______ _______ _______ _____ _____    ______ ____
ROOT
ATOM      1  N   UNL     1      -1.266  -0.724  -0.300  0.00  0.00    -0.299 N 
ATOM      2  C   UNL     1      -2.463  -0.035  -0.190  0.00  0.00    +0.140 A 
ATOM      3  C   UNL     1      -3.681  -0.717  -0.249  0.00  0.00    +0.113 A 
ATOM      4  C   UNL     1      -4.849   0.011  -0.134  0.00  0.00    +0.130 A 
ATOM      5  N   UNL     1      -4.782   1.325   0.026  0.00  0.00    -0.222 NA
ATOM      6  C   UNL     1      -3.613   1.945   0.078  0.00  0.00    +0.221 A 
ATOM      7  N   UNL     1      -2.469   1.284  -0.022  0.00  0.00    -0.199 NA
ATOM      8  N   UNL     1      -3.585   3.320   0.247  0.00  0.00    -0.284 N 
ATOM      9  H   UNL     1      -1.269  -1.674  -0.495  0.00  0.00    +0.154 HD
ATOM     10  H   UNL     1      -2.740   3.796   0.209  0.00  0.00    +0.155 HD
ENDROOT
BRANCH   1  16
ATOM     11  C   UNL     1       0.027   1.024   0.755  0.00  0.00    +0.025 A 
ATOM     12  C   UNL     1       1.204   1.693   0.932  0.00  0.00    +0.031 A 
ATOM     13  C   UNL     1       2.343   1.304   0.222  0.00  0.00    +0.089 A 
ATOM     14  C   UNL     1       2.267   0.222  -0.673  0.00  0.00    +0.068 A 
ATOM     15  C   UNL     1       1.066  -0.450  -0.845  0.00  0.00    +0.051 A 
ATOM     16  C   UNL     1      -0.052  -0.049  -0.131  0.00  0.00    +0.034 A 
ATOM     17  N   UNL     1       3.531   0.084  -1.211  0.00  0.00    -0.344 N 
ATOM     18  C   UNL     1       4.316   1.046  -0.654  0.00  0.00    +0.197 A 
ATOM     19  N   UNL     1       3.622   1.760   0.183  0.00  0.00    -0.236 NA
ATOM     20  H   UNL     1       3.808  -0.577  -1.865  0.00  0.00    +0.167 HD
ENDBRANCH   1  16
BRANCH   8  21
ATOM     21  C   UNL     1      -4.775   4.022   0.471  0.00  0.00    +0.035 A 
ATOM     22  C   UNL     1      -5.806   3.428   1.188  0.00  0.00    +0.025 A 
ATOM     23  C   UNL     1      -6.982   4.119   1.412  0.00  0.00    +0.027 A 
ATOM     24  C   UNL     1      -7.136   5.407   0.921  0.00  0.00    +0.062 A 
ATOM     25  C   UNL     1      -6.103   6.005   0.201  0.00  0.00    +0.064 A 
ATOM     26  C   UNL     1      -4.922   5.312  -0.018  0.00  0.00    +0.049 A 
BRANCH  25  27
ATOM     27  N   UNL     1      -6.256   7.305  -0.296  0.00  0.00    -0.250 N 
ATOM     28  H   UNL     1      -7.081   7.790  -0.139  0.00  0.00    +0.164 HD
BRANCH  27  29
ATOM     29  C   UNL     1      -5.251   7.886  -0.996  0.00  0.00    +0.171 C 
ATOM     30  N   UNL     1      -4.409   8.373  -1.583  0.00  0.00    -0.174 NA
ENDBRANCH  27  29
ENDBRANCH  25  27
BRANCH  24  31
ATOM     31  N   UNL     1      -8.330   6.106   1.148  0.00  0.00    -0.251 N 
ATOM     32  H   UNL     1      -8.437   7.007   0.805  0.00  0.00    +0.164 HD
BRANCH  31  33
ATOM     33  C   UNL     1      -9.334   5.524   1.848  0.00  0.00    +0.171 C 
ATOM     34  N   UNL     1     -10.175   5.035   2.434  0.00  0.00    -0.174 NA
ENDBRANCH  31  33
ENDBRANCH  24  31
ENDBRANCH   8  21
BRANCH   3  35
ATOM     35  C   UNL     1      -3.719  -2.212  -0.433  0.00  0.00    +0.422 C 
ATOM     36  F   UNL     1      -5.049  -2.645  -0.458  0.00  0.00    -0.166 F 
ATOM     37  F   UNL     1      -3.096  -2.549  -1.639  0.00  0.00    -0.166 F 
ATOM     38  F   UNL     1      -3.048  -2.829   0.628  0.00  0.00    -0.166 F 
ENDBRANCH   3  35
TORSDOF 7
