REMARK  Name = CHEMBL191865
REMARK  6 active torsions:
REMARK  status: ('A' for Active; 'I' for Inactive)
REMARK    1  A    between atoms: C_1  and  C_2
REMARK    2  A    between atoms: C_2  and  C_3
REMARK    3  A    between atoms: C_2  and  C_16
REMARK    4  A    between atoms: C_6  and  N_9
REMARK    5  A    between atoms: N_18  and  C_19
REMARK    6  A    between atoms: C_21  and  C_25
REMARK                            x       y       z     vdW  Elec       q    Type
REMARK                         _______ _______ _______ _____ _____    ______ ____
ROOT
ATOM      1  C   UNL     1       0.640   1.302  -0.474  0.00  0.00    +0.022 C 
ATOM      2  C   UNL     1       0.003  -0.005   0.001  0.00  0.00    +0.102 C 
ENDROOT
BRANCH   2   3
ATOM      3  C   UNL     1       0.731  -0.504   1.222  0.00  0.00    -0.036 A 
ATOM      4  C   UNL     1       0.779   0.275   2.364  0.00  0.00    +0.006 A 
ATOM      5  C   UNL     1       1.446  -0.179   3.485  0.00  0.00    +0.024 A 
ATOM      6  C   UNL     1       2.069  -1.420   3.465  0.00  0.00    +0.036 A 
ATOM      7  C   UNL     1       2.019  -2.200   2.317  0.00  0.00    +0.024 A 
ATOM      8  C   UNL     1       1.347  -1.742   1.201  0.00  0.00    +0.006 A 
BRANCH   6   9
ATOM      9  N   UNL     1       2.746  -1.883   4.598  0.00  0.00    -0.271 N 
ATOM     10  C   UNL     1       4.164  -1.569   4.723  0.00  0.00    +0.113 C 
ATOM     11  C   UNL     1       4.620  -1.720   6.175  0.00  0.00    +0.020 C 
ATOM     12  C   UNL     1       4.170  -3.092   6.691  0.00  0.00    +0.011 C 
ATOM     13  C   UNL     1       2.642  -3.098   6.779  0.00  0.00    +0.096 C 
ATOM     14  C   UNL     1       2.052  -2.580   5.499  0.00  0.00    +0.220 C 
ATOM     15  O   UNL     1       0.884  -2.811   5.271  0.00  0.00    -0.275 OA
ENDBRANCH   6   9
ENDBRANCH   2   3
BRANCH   2  16
ATOM     16  C   UNL     1      -1.445   0.238   0.344  0.00  0.00    +0.225 C 
ATOM     17  O   UNL     1      -1.845   0.026   1.470  0.00  0.00    -0.275 OA
ATOM     18  N   UNL     1      -2.294   0.690  -0.599  0.00  0.00    -0.270 N 
ATOM     19  H   UNL     1      -1.974   0.859  -1.499  0.00  0.00    +0.156 HD
BRANCH  18  20
ATOM     20  C   UNL     1      -3.634   0.914  -0.282  0.00  0.00    +0.121 A 
ATOM     21  C   UNL     1      -4.216   0.720   0.933  0.00  0.00    +0.068 A 
ATOM     22  C   UNL     1      -5.566   1.064   0.821  0.00  0.00    +0.068 A 
ATOM     23  N   UNL     1      -5.791   1.449  -0.409  0.00  0.00    -0.177 NA
ATOM     24  H   UNL     1      -4.465   1.598  -2.059  0.00  0.00    +0.190 HD
ATOM     25  N   UNL     1      -4.589   1.369  -1.124  0.00  0.00    -0.264 N 
BRANCH  22  26
ATOM     26  C   UNL     1      -6.587   1.001   1.927  0.00  0.00    +0.040 C 
ATOM     27  C   UNL     1      -6.236   0.177   3.167  0.00  0.00    +0.010 C 
ATOM     28  C   UNL     1      -7.279  -0.341   2.174  0.00  0.00    +0.010 C 
ENDBRANCH  22  26
ENDBRANCH  18  20
ENDBRANCH   2  16
TORSDOF 5
