REMARK  Name = CHEMBL317703
REMARK  6 active torsions:
REMARK  status: ('A' for Active; 'I' for Inactive)
REMARK    1  A    between atoms: C_3  and  N_24
REMARK    2  A    between atoms: C_6  and  C_7
REMARK    3  A    between atoms: C_9  and  N_13
REMARK    4  A    between atoms: N_13  and  C_14
REMARK    5  A    between atoms: C_17  and  S_20
REMARK    6  A    between atoms: S_20  and  N_23
REMARK                            x       y       z     vdW  Elec       q    Type
REMARK                         _______ _______ _______ _____ _____    ______ ____
ROOT
ATOM      1  C   UNL     1      -1.288  -0.760  -0.156  0.00  0.00    +0.094 A 
ATOM      2  C   UNL     1      -1.417  -2.160  -0.227  0.00  0.00    +0.073 A 
ATOM      3  C   UNL     1      -2.722  -2.468  -0.001  0.00  0.00    +0.119 A 
ATOM      4  N   UNL     1      -3.392  -1.303   0.205  0.00  0.00    -0.263 N 
ATOM      5  N   UNL     1      -2.472  -0.251   0.108  0.00  0.00    -0.172 NA
ATOM      6  H   UNL     1      -4.340  -1.216   0.390  0.00  0.00    +0.190 HD
ENDROOT
BRANCH   1  12
ATOM      7  C   UNL     1      -0.041   1.398  -0.243  0.00  0.00    +0.012 A 
ATOM      8  C   UNL     1       1.130   2.108  -0.415  0.00  0.00    +0.033 A 
ATOM      9  C   UNL     1       2.312   1.442  -0.683  0.00  0.00    +0.126 A 
ATOM     10  C   UNL     1       2.328   0.062  -0.781  0.00  0.00    +0.033 A 
ATOM     11  C   UNL     1       1.162  -0.658  -0.611  0.00  0.00    +0.012 A 
ATOM     12  C   UNL     1      -0.031   0.008  -0.340  0.00  0.00    +0.002 A 
BRANCH   9  13
ATOM     13  N   UNL     1       3.565   2.208  -0.868  0.00  0.00    +0.056 N 
ATOM     14  O   UNL     1       3.554   3.414  -0.784  0.00  0.00    -0.126 OA
ATOM     15  O   UNL     1       4.599   1.628  -1.102  0.00  0.00    -0.126 OA
ENDBRANCH   9  13
ENDBRANCH   1  12
BRANCH   3  16
ATOM     16  N   UNL     1      -3.274  -3.747   0.015  0.00  0.00    -0.300 N 
ATOM     17  H   UNL     1      -2.698  -4.524  -0.056  0.00  0.00    +0.154 HD
BRANCH  16  18
ATOM     18  C   UNL     1      -4.656  -3.910   0.134  0.00  0.00    +0.032 A 
ATOM     19  C   UNL     1      -5.519  -2.989  -0.448  0.00  0.00    +0.025 A 
ATOM     20  C   UNL     1      -6.884  -3.154  -0.328  0.00  0.00    +0.030 A 
ATOM     21  C   UNL     1      -7.394  -4.233   0.371  0.00  0.00    +0.105 A 
ATOM     22  C   UNL     1      -6.538  -5.151   0.951  0.00  0.00    +0.030 A 
ATOM     23  C   UNL     1      -5.171  -4.996   0.830  0.00  0.00    +0.025 A 
BRANCH  21  24
ATOM     24  S   UNL     1      -9.137  -4.439   0.521  0.00  0.00    +0.056 S 
ATOM     25  O   UNL     1      -9.354  -5.226   1.684  0.00  0.00    -0.153 OA
ATOM     26  O   UNL     1      -9.714  -3.150   0.356  0.00  0.00    -0.153 OA
BRANCH  24  27
ATOM     27  N   UNL     1      -9.636  -5.350  -0.768  0.00  0.00    -0.204 NA
ATOM     28  H   UNL     1     -10.408  -5.932  -0.681  0.00  0.00    +0.144 HD
ATOM     29  H   UNL     1      -9.158  -5.302  -1.610  0.00  0.00    +0.144 HD
ENDBRANCH  24  27
ENDBRANCH  21  24
ENDBRANCH  16  18
ENDBRANCH   3  16
TORSDOF 6
