REMARK  Name = CHEMBL409892
REMARK  4 active torsions:
REMARK  status: ('A' for Active; 'I' for Inactive)
REMARK    1  A    between atoms: N_10  and  N_11
REMARK    2  A    between atoms: N_11  and  C_12
REMARK    3  A    between atoms: C_15  and  S_18
REMARK    4  A    between atoms: S_18  and  N_21
REMARK                            x       y       z     vdW  Elec       q    Type
REMARK                         _______ _______ _______ _____ _____    ______ ____
ROOT
ATOM      1  C   UNL     1      -0.017   1.388   0.010  0.00  0.00    +0.020 A 
ATOM      2  C   UNL     1       1.160   2.085   0.002  0.00  0.00    +0.012 A 
ATOM      3  C   UNL     1       2.361   1.360  -0.013  0.00  0.00    +0.012 A 
ATOM      4  C   UNL     1       2.310  -0.056  -0.020  0.00  0.00    +0.072 A 
ATOM      5  C   UNL     1       3.513  -0.785  -0.036  0.00  0.00    +0.030 A 
ATOM      6  C   UNL     1       4.711  -0.143  -0.043  0.00  0.00    +0.026 A 
ATOM      7  C   UNL     1       4.787   1.256  -0.036  0.00  0.00    +0.044 A 
ATOM      8  C   UNL     1       3.615   2.008  -0.022  0.00  0.00    +0.037 A 
ATOM      9  C   UNL     1       4.023   3.428  -0.019  0.00  0.00    +0.153 C 
ATOM     10  N   UNL     1       3.241   4.486  -0.005  0.00  0.00    -0.177 NA
ATOM     11  C   UNL     1       5.496   3.401  -0.034  0.00  0.00    +0.269 C 
ATOM     12  O   UNL     1       6.232   4.371  -0.036  0.00  0.00    -0.268 OA
ATOM     13  N   UNL     1       5.882   2.114  -0.042  0.00  0.00    -0.280 N 
ATOM     14  N   UNL     1       1.127  -0.678  -0.013  0.00  0.00    -0.255 NA
ATOM     15  C   UNL     1       0.002  -0.004   0.002  0.00  0.00    +0.111 A 
ATOM     16  H   UNL     1       6.806   1.820  -0.051  0.00  0.00    +0.155 HD
ENDROOT
BRANCH  10  17
ATOM     17  N   UNL     1       3.756   5.669  -0.004  0.00  0.00    -0.237 N 
ATOM     18  H   UNL     1       4.720   5.778  -0.014  0.00  0.00    +0.174 HD
BRANCH  17  19
ATOM     19  C   UNL     1       2.928   6.791   0.011  0.00  0.00    +0.048 A 
ATOM     20  C   UNL     1       1.546   6.636   0.030  0.00  0.00    +0.026 A 
ATOM     21  C   UNL     1       0.729   7.749   0.046  0.00  0.00    +0.030 A 
ATOM     22  C   UNL     1       1.283   9.016   0.041  0.00  0.00    +0.105 A 
ATOM     23  C   UNL     1       2.657   9.174   0.021  0.00  0.00    +0.030 A 
ATOM     24  C   UNL     1       3.481   8.066   0.012  0.00  0.00    +0.026 A 
BRANCH  22  25
ATOM     25  S   UNL     1       0.236  10.433   0.059  0.00  0.00    +0.056 S 
ATOM     26  O   UNL     1       0.988  11.502  -0.500  0.00  0.00    -0.153 OA
ATOM     27  O   UNL     1      -1.015  10.021  -0.474  0.00  0.00    -0.153 OA
BRANCH  25  28
ATOM     28  N   UNL     1      -0.032  10.823   1.646  0.00  0.00    -0.204 NA
ATOM     29  H   UNL     1       0.370  10.291   2.351  0.00  0.00    +0.144 HD
ATOM     30  H   UNL     1      -0.591  11.583   1.871  0.00  0.00    +0.144 HD
ENDBRANCH  25  28
ENDBRANCH  22  25
ENDBRANCH  17  19
ENDBRANCH  10  17
TORSDOF 4
