REMARK  Name = CHEMBL87472
REMARK  9 active torsions:
REMARK  status: ('A' for Active; 'I' for Inactive)
REMARK    1  A    between atoms: C_1  and  C_2
REMARK    2  A    between atoms: C_2  and  C_3
REMARK    3  A    between atoms: C_2  and  C_4
REMARK    4  A    between atoms: C_4  and  C_5
REMARK    5  A    between atoms: C_11  and  N_16
REMARK    6  A    between atoms: C_12  and  O_15
REMARK    7  A    between atoms: N_17  and  C_18
REMARK    8  A    between atoms: C_21  and  S_24
REMARK    9  A    between atoms: S_24  and  N_27
REMARK                            x       y       z     vdW  Elec       q    Type
REMARK                         _______ _______ _______ _____ _____    ______ ____
ROOT
ATOM      1  C   UNL     1      -1.416  -2.035  -0.119  0.00  0.00    -0.036 A 
ATOM      2  C   UNL     1      -1.553  -2.623  -1.359  0.00  0.00    +0.004 A 
ATOM      3  C   UNL     1      -1.538  -4.003  -1.482  0.00  0.00    +0.002 A 
ATOM      4  C   UNL     1      -1.386  -4.807  -0.372  0.00  0.00    +0.026 A 
ATOM      5  C   UNL     1      -1.246  -4.233   0.886  0.00  0.00    +0.052 A 
ATOM      6  C   UNL     1      -1.255  -2.834   1.009  0.00  0.00    +0.034 A 
ATOM      7  C   UNL     1      -1.081  -2.548   2.446  0.00  0.00    +0.155 A 
ATOM      8  C   UNL     1      -0.973  -3.778   3.077  0.00  0.00    +0.219 A 
ATOM      9  N   UNL     1      -1.081  -4.769   2.151  0.00  0.00    -0.324 N 
ATOM     10  H   UNL     1      -1.037  -5.717   2.349  0.00  0.00    +0.169 HD
ENDROOT
BRANCH   8  11
ATOM     11  O   UNL     1      -0.801  -3.963   4.405  0.00  0.00    -0.492 OA
ATOM     12  H   UNL     1      -1.627  -4.037   4.902  0.00  0.00    +0.294 HD
ENDBRANCH   8  11
BRANCH   7  13
ATOM     13  N   UNL     1      -1.035  -1.333   3.029  0.00  0.00    -0.143 NA
ATOM     14  N   UNL     1      -0.876  -1.235   4.305  0.00  0.00    -0.149 NA
BRANCH  14  15
ATOM     15  C   UNL     1      -0.829  -0.003   4.896  0.00  0.00    +0.086 A 
ATOM     16  C   UNL     1      -0.959   1.153   4.122  0.00  0.00    +0.031 A 
ATOM     17  C   UNL     1      -0.911   2.392   4.725  0.00  0.00    +0.030 A 
ATOM     18  C   UNL     1      -0.736   2.493   6.094  0.00  0.00    +0.105 A 
ATOM     19  C   UNL     1      -0.606   1.353   6.867  0.00  0.00    +0.030 A 
ATOM     20  C   UNL     1      -0.657   0.107   6.279  0.00  0.00    +0.031 A 
BRANCH  18  21
ATOM     21  S   UNL     1      -0.675   4.081   6.855  0.00  0.00    +0.056 S 
ATOM     22  O   UNL     1       0.043   3.921   8.071  0.00  0.00    -0.153 OA
ATOM     23  O   UNL     1      -0.274   5.000   5.848  0.00  0.00    -0.153 OA
BRANCH  21  24
ATOM     24  N   UNL     1      -2.227   4.484   7.271  0.00  0.00    -0.204 NA
ATOM     25  H   UNL     1      -2.955   3.872   7.078  0.00  0.00    +0.144 HD
ATOM     26  H   UNL     1      -2.408   5.331   7.708  0.00  0.00    +0.144 HD
ENDBRANCH  21  24
ENDBRANCH  18  21
ENDBRANCH  14  15
ENDBRANCH   7  13
BRANCH   1  27
ATOM     27  C   UNL     1      -1.433  -0.534   0.013  0.00  0.00    +0.039 C 
BRANCH  27  29
ATOM     28  C   UNL     1      -0.019   1.526   0.010  0.00  0.00    +0.007 C 
ATOM     29  C   UNL     1       0.002  -0.004   0.002  0.00  0.00    -0.013 C 
ATOM     30  C   UNL     1       0.742  -0.511   1.242  0.00  0.00    +0.007 C 
ENDBRANCH  27  29
ENDBRANCH   1  27
TORSDOF 7
