REMARK  Name = CHEMBL361621
REMARK  7 active torsions:
REMARK  status: ('A' for Active; 'I' for Inactive)
REMARK    1  A    between atoms: C_1  and  C_2
REMARK    2  A    between atoms: C_2  and  C_3
REMARK    3  A    between atoms: C_2  and  C_4
REMARK    4  A    between atoms: C_5  and  O_27
REMARK    5  A    between atoms: N_14  and  C_15
REMARK    6  A    between atoms: C_18  and  N_21
REMARK    7  A    between atoms: O_27  and  C_28
REMARK                            x       y       z     vdW  Elec       q    Type
REMARK                         _______ _______ _______ _____ _____    ______ ____
ROOT
ATOM      1  C   UNL     1      -1.526  -0.312  -0.132  0.00  0.00    +0.023 A 
ATOM      2  C   UNL     1      -2.342  -0.062   0.950  0.00  0.00    +0.126 A 
ATOM      3  C   UNL     1      -3.534  -0.773   1.128  0.00  0.00    +0.046 A 
ATOM      4  C   UNL     1      -3.916  -1.729   0.238  0.00  0.00    +0.015 A 
ATOM      5  C   UNL     1      -3.108  -2.007  -0.874  0.00  0.00    +0.019 A 
ATOM      6  C   UNL     1      -1.900  -1.286  -1.066  0.00  0.00    +0.083 A 
ATOM      7  N   UNL     1      -1.146  -1.565  -2.138  0.00  0.00    -0.214 NA
ATOM      8  C   UNL     1      -1.530  -2.489  -2.996  0.00  0.00    +0.220 A 
ATOM      9  N   UNL     1      -2.659  -3.180  -2.850  0.00  0.00    -0.222 NA
ATOM     10  C   UNL     1      -3.459  -2.985  -1.822  0.00  0.00    +0.124 A 
ATOM     11  N   UNL     1      -0.728  -2.752  -4.093  0.00  0.00    -0.284 N 
ATOM     12  H   UNL     1       0.137  -2.319  -4.176  0.00  0.00    +0.155 HD
ENDROOT
BRANCH  11  13
ATOM     13  C   UNL     1      -1.163  -3.643  -5.082  0.00  0.00    +0.034 A 
ATOM     14  C   UNL     1      -2.496  -3.649  -5.472  0.00  0.00    +0.025 A 
ATOM     15  C   UNL     1      -2.926  -4.527  -6.447  0.00  0.00    +0.025 A 
ATOM     16  C   UNL     1      -2.025  -5.404  -7.038  0.00  0.00    +0.030 A 
ATOM     17  C   UNL     1      -0.692  -5.396  -6.649  0.00  0.00    +0.025 A 
ATOM     18  C   UNL     1      -0.261  -4.515  -5.678  0.00  0.00    +0.025 A 
BRANCH  16  19
ATOM     19  N   UNL     1      -2.461  -6.294  -8.026  0.00  0.00    -0.330 N 
ATOM     20  C   UNL     1      -1.550  -7.308  -8.575  0.00  0.00    +0.105 C 
ATOM     21  C   UNL     1      -2.209  -8.684  -8.448  0.00  0.00    +0.019 C 
ATOM     22  C   UNL     1      -3.586  -8.649  -9.116  0.00  0.00    +0.003 C 
ATOM     23  C   UNL     1      -4.472  -7.622  -8.408  0.00  0.00    +0.019 C 
ATOM     24  C   UNL     1      -3.840  -6.237  -8.530  0.00  0.00    +0.105 C 
ENDBRANCH  16  19
ENDBRANCH  11  13
BRANCH   1  26
ATOM     25  C   UNL     1      -0.562   1.954  -0.423  0.00  0.00    +0.012 C 
ATOM     26  C   UNL     1      -0.245   0.461  -0.312  0.00  0.00    +0.019 C 
ATOM     27  C   UNL     1       0.668   0.222   0.892  0.00  0.00    +0.012 C 
ENDBRANCH   1  26
BRANCH   2  28
ATOM     28  O   UNL     1      -1.986   0.886   1.855  0.00  0.00    -0.495 OA
ATOM     29  C   UNL     1      -2.872   1.099   2.955  0.00  0.00    +0.277 C 
ENDBRANCH   2  28
TORSDOF 4
