REMARK  Name = CHEMBL307808
REMARK  10 active torsions:
REMARK  status: ('A' for Active; 'I' for Inactive)
REMARK    1  A    between atoms: C_1  and  O_2
REMARK    2  A    between atoms: O_2  and  C_3
REMARK    3  A    between atoms: C_3  and  C_4
REMARK    4  A    between atoms: C_4  and  N_5
REMARK    5  A    between atoms: N_5  and  S_6
REMARK    6  A    between atoms: S_6  and  C_9
REMARK    7  A    between atoms: C_12  and  N_15
REMARK    8  A    between atoms: C_20  and  C_22
REMARK    9  A    between atoms: C_28  and  S_31
REMARK   10  A    between atoms: S_31  and  C_32
REMARK                            x       y       z     vdW  Elec       q    Type
REMARK                         _______ _______ _______ _____ _____    ______ ____
ROOT
ATOM      1  N   UNL     1      -3.603  -7.113  -0.753  0.00  0.00    -0.284 N 
ATOM      2  C   UNL     1      -4.127  -7.250  -2.028  0.00  0.00    +0.220 A 
ATOM      3  N   UNL     1      -3.483  -6.707  -3.052  0.00  0.00    -0.223 NA
ATOM      4  C   UNL     1      -3.950  -6.815  -4.288  0.00  0.00    +0.116 A 
ATOM      5  C   UNL     1      -5.125  -7.504  -4.510  0.00  0.00    +0.050 A 
ATOM      6  C   UNL     1      -5.786  -8.068  -3.409  0.00  0.00    +0.094 A 
ATOM      7  N   UNL     1      -5.254  -7.923  -2.193  0.00  0.00    -0.213 NA
ATOM      8  H   UNL     1      -4.021  -7.569  -0.006  0.00  0.00    +0.155 HD
ENDROOT
BRANCH   6   9
ATOM      9  C   UNL     1      -7.044  -8.812  -3.592  0.00  0.00    +0.092 A 
ATOM     10  C   UNL     1      -7.866  -9.299  -2.597  0.00  0.00    +0.141 A 
ATOM     11  N   UNL     1      -8.896  -9.909  -3.170  0.00  0.00    -0.235 NA
ATOM     12  C   UNL     1      -8.778  -9.838  -4.493  0.00  0.00    +0.138 A 
ATOM     13  N   UNL     1      -7.633  -9.153  -4.790  0.00  0.00    -0.297 N 
ATOM     14  C   UNL     1      -7.272  -8.931  -6.087  0.00  0.00    +0.108 A 
ATOM     15  C   UNL     1      -8.048  -9.384  -7.105  0.00  0.00    +0.029 A 
ATOM     16  C   UNL     1      -9.235 -10.089  -6.827  0.00  0.00    +0.020 A 
ATOM     17  C   UNL     1      -9.593 -10.320  -5.535  0.00  0.00    +0.048 A 
BRANCH  15  18
ATOM     18  S   UNL     1      -7.569  -9.089  -8.775  0.00  0.00    -0.088 S 
BRANCH  18  19
ATOM     19  C   UNL     1      -7.215 -10.696  -9.407  0.00  0.00    +0.013 A 
ATOM     20  C   UNL     1      -7.401 -11.816  -8.606  0.00  0.00    +0.015 A 
ATOM     21  C   UNL     1      -7.122 -13.073  -9.104  0.00  0.00    +0.001 A 
ATOM     22  C   UNL     1      -6.658 -13.218 -10.399  0.00  0.00    +0.000 A 
ATOM     23  C   UNL     1      -6.471 -12.106 -11.199  0.00  0.00    +0.001 A 
ATOM     24  C   UNL     1      -6.753 -10.846 -10.709  0.00  0.00    +0.015 A 
ENDBRANCH  18  19
ENDBRANCH  15  18
ENDBRANCH   6   9
BRANCH   1  28
ATOM     25  C   UNL     1      -0.238  -4.740  -0.127  0.00  0.00    +0.105 A 
ATOM     26  C   UNL     1      -1.161  -4.387  -1.095  0.00  0.00    +0.030 A 
ATOM     27  C   UNL     1      -2.277  -5.172  -1.305  0.00  0.00    +0.025 A 
ATOM     28  C   UNL     1      -2.474  -6.316  -0.543  0.00  0.00    +0.034 A 
ATOM     29  C   UNL     1      -1.545  -6.668   0.428  0.00  0.00    +0.025 A 
ATOM     30  C   UNL     1      -0.427  -5.882   0.629  0.00  0.00    +0.030 A 
BRANCH  25  31
ATOM     31  S   UNL     1       1.186  -3.737   0.137  0.00  0.00    +0.058 S 
ATOM     32  O   UNL     1       1.620  -3.989   1.466  0.00  0.00    -0.153 OA
ATOM     33  O   UNL     1       0.855  -2.433  -0.321  0.00  0.00    -0.153 OA
BRANCH  31  34
ATOM     34  N   UNL     1       2.377  -4.303  -0.865  0.00  0.00    -0.188 NA
ATOM     35  H   UNL     1       3.181  -4.695  -0.490  0.00  0.00    +0.148 HD
BRANCH  34  36
ATOM     36  C   UNL     1       2.216  -4.211  -2.318  0.00  0.00    +0.134 C 
BRANCH  36  37
ATOM     37  C   UNL     1       3.568  -4.443  -2.996  0.00  0.00    +0.176 C 
BRANCH  37  39
ATOM     38  C   UNL     1       5.262  -6.104  -3.341  0.00  0.00    +0.194 C 
ATOM     39  O   UNL     1       4.002  -5.782  -2.748  0.00  0.00    -0.382 OA
ENDBRANCH  37  39
ENDBRANCH  36  37
ENDBRANCH  34  36
ENDBRANCH  31  34
ENDBRANCH  25  31
ENDBRANCH   1  28
TORSDOF 9
