REMARK  Name = CHEMBL436078
REMARK  5 active torsions:
REMARK  status: ('A' for Active; 'I' for Inactive)
REMARK    1  A    between atoms: C_1  and  O_2
REMARK    2  A    between atoms: O_2  and  C_3
REMARK    3  A    between atoms: C_6  and  C_9
REMARK    4  A    between atoms: C_19  and  N_23
REMARK    5  A    between atoms: N_26  and  C_27
REMARK                            x       y       z     vdW  Elec       q    Type
REMARK                         _______ _______ _______ _____ _____    ______ ____
ROOT
ATOM      1  C   UNL     1       2.520  -2.332  -4.971  0.00  0.00    +0.077 A 
ATOM      2  C   UNL     1       1.975  -3.429  -5.623  0.00  0.00    +0.075 A 
ATOM      3  C   UNL     1       2.833  -3.698  -6.779  0.00  0.00    +0.105 A 
ATOM      4  N   UNL     1       3.792  -2.806  -6.769  0.00  0.00    -0.173 NA
ATOM      5  N   UNL     1       3.624  -1.952  -5.675  0.00  0.00    -0.276 N 
ATOM      6  H   UNL     1       4.203  -1.207  -5.450  0.00  0.00    +0.189 HD
ATOM      7  C   UNL     1       2.268  -4.871  -7.493  0.00  0.00    +0.015 A 
ATOM      8  C   UNL     1       2.679  -5.540  -8.638  0.00  0.00    +0.011 A 
ATOM      9  C   UNL     1       1.962  -6.629  -9.106  0.00  0.00    +0.002 A 
ATOM     10  C   UNL     1       0.832  -7.061  -8.443  0.00  0.00    +0.024 A 
ATOM     11  C   UNL     1       0.401  -6.406  -7.294  0.00  0.00    +0.046 A 
ATOM     12  C   UNL     1       1.118  -5.304  -6.810  0.00  0.00    +0.053 A 
ATOM     13  C   UNL     1       0.900  -4.432  -5.638  0.00  0.00    +0.200 C 
ATOM     14  O   UNL     1      -0.005  -4.526  -4.831  0.00  0.00    -0.286 OA
ENDROOT
BRANCH   1  18
ATOM     15  C   UNL     1       1.018  -0.490  -1.452  0.00  0.00    +0.120 A 
ATOM     16  C   UNL     1       1.418   0.294  -2.528  0.00  0.00    +0.046 A 
ATOM     17  C   UNL     1       1.906  -0.300  -3.671  0.00  0.00    +0.013 A 
ATOM     18  C   UNL     1       1.999  -1.692  -3.748  0.00  0.00    +0.001 A 
ATOM     19  C   UNL     1       1.596  -2.477  -2.664  0.00  0.00    +0.013 A 
ATOM     20  C   UNL     1       1.114  -1.875  -1.523  0.00  0.00    +0.046 A 
BRANCH  15  22
ATOM     21  C   UNL     1       0.467   1.526  -0.322  0.00  0.00    +0.277 C 
ATOM     22  O   UNL     1       0.538   0.099  -0.327  0.00  0.00    -0.495 OA
ENDBRANCH  15  22
ENDBRANCH   1  18
BRANCH  11  23
ATOM     23  N   UNL     1      -0.741  -6.844  -6.628  0.00  0.00    -0.269 N 
ATOM     24  C   UNL     1      -1.180  -8.106  -6.801  0.00  0.00    +0.308 C 
ATOM     25  O   UNL     1      -0.523  -8.894  -7.454  0.00  0.00    -0.252 OA
ATOM     26  N   UNL     1      -2.347  -8.495  -6.251  0.00  0.00    -0.269 N 
ATOM     27  H   UNL     1      -1.220  -6.240  -6.038  0.00  0.00    +0.156 HD
ATOM     28  H   UNL     1      -2.906  -7.848  -5.792  0.00  0.00    +0.156 HD
BRANCH  26  29
ATOM     29  C   UNL     1      -2.753  -9.831  -6.342  0.00  0.00    +0.035 A 
ATOM     30  C   UNL     1      -4.102 -10.143  -6.447  0.00  0.00    +0.023 A 
ATOM     31  C   UNL     1      -4.499 -11.463  -6.537  0.00  0.00    +0.002 A 
ATOM     32  C   UNL     1      -3.555 -12.473  -6.522  0.00  0.00    +0.000 A 
ATOM     33  C   UNL     1      -2.211 -12.165  -6.418  0.00  0.00    +0.002 A 
ATOM     34  C   UNL     1      -1.807 -10.848  -6.334  0.00  0.00    +0.023 A 
ENDBRANCH  26  29
ENDBRANCH  11  23
TORSDOF 4
