REMARK  Name = CHEMBL453217
REMARK  5 active torsions:
REMARK  status: ('A' for Active; 'I' for Inactive)
REMARK    1  A    between atoms: C_1  and  C_2
REMARK    2  A    between atoms: C_4  and  C_21
REMARK    3  A    between atoms: C_6  and  N_8
REMARK    4  A    between atoms: C_13  and  C_15
REMARK    5  A    between atoms: C_17  and  C_20
REMARK                            x       y       z     vdW  Elec       q    Type
REMARK                         _______ _______ _______ _____ _____    ______ ____
ROOT
ATOM      1  N   UNL     1       0.050  -2.797   2.392  0.00  0.00    -0.284 N 
ATOM      2  C   UNL     1       0.151  -2.116   3.594  0.00  0.00    +0.220 A 
ATOM      3  N   UNL     1       0.127  -0.790   3.589  0.00  0.00    -0.223 NA
ATOM      4  C   UNL     1       0.220  -0.102   4.715  0.00  0.00    +0.116 A 
ATOM      5  C   UNL     1       0.345  -0.780   5.915  0.00  0.00    +0.050 A 
ATOM      6  C   UNL     1       0.368  -2.179   5.890  0.00  0.00    +0.101 A 
ATOM      7  N   UNL     1       0.265  -2.805   4.718  0.00  0.00    -0.212 NA
ATOM      8  H   UNL     1      -0.018  -3.765   2.387  0.00  0.00    +0.155 HD
ENDROOT
BRANCH   1  14
ATOM      9  C   UNL     1       1.585   1.042  -0.267  0.00  0.00    +0.044 C 
ATOM     10  C   UNL     1       0.782  -0.226  -0.132  0.00  0.00    -0.048 A 
ATOM     11  C   UNL     1       0.038  -0.690  -1.201  0.00  0.00    +0.006 A 
ATOM     12  C   UNL     1      -0.700  -1.853  -1.081  0.00  0.00    -0.048 A 
ATOM     13  C   UNL     1      -0.699  -2.554   0.109  0.00  0.00    +0.026 A 
ATOM     14  C   UNL     1       0.046  -2.090   1.186  0.00  0.00    +0.034 A 
ATOM     15  C   UNL     1       0.792  -0.925   1.059  0.00  0.00    +0.026 A 
ATOM     16  C   UNL     1      -1.509  -2.355  -2.249  0.00  0.00    +0.044 C 
ENDBRANCH   1  14
BRANCH   6  17
ATOM     17  C   UNL     1       0.501  -2.950   7.144  0.00  0.00    +0.127 A 
ATOM     18  N   UNL     1       0.547  -4.263   7.323  0.00  0.00    -0.243 NA
ATOM     19  C   UNL     1       0.668  -4.784   8.519  0.00  0.00    +0.046 A 
ATOM     20  C   UNL     1       0.749  -3.970   9.608  0.00  0.00    +0.070 A 
ATOM     21  S   UNL     1       0.649  -2.364   8.826  0.00  0.00    -0.074 S 
ATOM     22  C   UNL     1       0.718  -6.280   8.689  0.00  0.00    +0.066 C 
ENDBRANCH   6  17
TORSDOF 2
