REMARK  Name = CHEMBL365872
REMARK  9 active torsions:
REMARK  status: ('A' for Active; 'I' for Inactive)
REMARK    1  A    between atoms: C_1  and  O_2
REMARK    2  A    between atoms: O_2  and  C_3
REMARK    3  A    between atoms: C_6  and  C_9
REMARK    4  A    between atoms: C_19  and  N_23
REMARK    5  A    between atoms: N_26  and  N_27
REMARK    6  A    between atoms: C_28  and  C_30
REMARK    7  A    between atoms: C_30  and  C_31
REMARK    8  A    between atoms: C_31  and  C_32
REMARK    9  A    between atoms: C_35  and  O_38
REMARK                            x       y       z     vdW  Elec       q    Type
REMARK                         _______ _______ _______ _____ _____    ______ ____
ROOT
ATOM      1  C   UNL     1       2.591  -2.533   4.310  0.00  0.00    +0.077 A 
ATOM      2  C   UNL     1       3.485  -3.591   4.218  0.00  0.00    +0.075 A 
ATOM      3  C   UNL     1       3.902  -3.906   5.587  0.00  0.00    +0.105 A 
ATOM      4  N   UNL     1       3.280  -3.074   6.385  0.00  0.00    -0.173 NA
ATOM      5  N   UNL     1       2.474  -2.216   5.630  0.00  0.00    -0.276 N 
ATOM      6  H   UNL     1       1.916  -1.509   5.990  0.00  0.00    +0.189 HD
ATOM      7  C   UNL     1       4.859  -5.037   5.513  0.00  0.00    +0.015 A 
ATOM      8  C   UNL     1       5.553  -5.725   6.502  0.00  0.00    +0.011 A 
ATOM      9  C   UNL     1       6.403  -6.765   6.163  0.00  0.00    +0.002 A 
ATOM     10  C   UNL     1       6.571  -7.130   4.843  0.00  0.00    +0.024 A 
ATOM     11  C   UNL     1       5.887  -6.457   3.837  0.00  0.00    +0.046 A 
ATOM     12  C   UNL     1       5.025  -5.403   4.166  0.00  0.00    +0.053 A 
ATOM     13  C   UNL     1       4.184  -4.526   3.326  0.00  0.00    +0.200 C 
ATOM     14  O   UNL     1       4.088  -4.570   2.114  0.00  0.00    -0.286 OA
ENDROOT
BRANCH   1  18
ATOM     15  C   UNL     1       0.610  -0.623   1.075  0.00  0.00    +0.120 A 
ATOM     16  C   UNL     1       1.196   0.141   2.077  0.00  0.00    +0.046 A 
ATOM     17  C   UNL     1       1.840  -0.474   3.128  0.00  0.00    +0.013 A 
ATOM     18  C   UNL     1       1.903  -1.869   3.186  0.00  0.00    +0.001 A 
ATOM     19  C   UNL     1       1.312  -2.634   2.176  0.00  0.00    +0.013 A 
ATOM     20  C   UNL     1       0.666  -2.010   1.132  0.00  0.00    +0.046 A 
BRANCH  15  22
ATOM     21  C   UNL     1      -0.043   1.417   0.045  0.00  0.00    +0.277 C 
ATOM     22  O   UNL     1      -0.023  -0.012   0.041  0.00  0.00    -0.495 OA
ENDBRANCH  15  22
ENDBRANCH   1  18
BRANCH  11  23
ATOM     23  N   UNL     1       6.060  -6.828   2.506  0.00  0.00    -0.268 N 
ATOM     24  C   UNL     1       6.450  -8.081   2.201  0.00  0.00    +0.320 C 
ATOM     25  O   UNL     1       6.551  -8.917   3.079  0.00  0.00    -0.251 OA
ATOM     26  N   UNL     1       6.727  -8.409   0.924  0.00  0.00    -0.218 N 
ATOM     27  H   UNL     1       5.900  -6.184   1.798  0.00  0.00    +0.156 HD
ATOM     28  H   UNL     1       7.007  -9.311   0.704  0.00  0.00    +0.174 HD
BRANCH  26  29
ATOM     29  N   UNL     1       6.610  -7.447  -0.087  0.00  0.00    -0.233 N 
ATOM     30  C   UNL     1       6.887  -7.774  -1.365  0.00  0.00    +0.229 C 
ATOM     31  O   UNL     1       7.237  -8.902  -1.639  0.00  0.00    -0.274 OA
ATOM     32  H   UNL     1       6.329  -6.544   0.132  0.00  0.00    +0.173 HD
BRANCH  30  33
ATOM     33  C   UNL     1       6.761  -6.739  -2.453  0.00  0.00    +0.102 C 
BRANCH  33  34
ATOM     34  C   UNL     1       7.130  -7.365  -3.799  0.00  0.00    +0.044 C 
BRANCH  34  35
ATOM     35  C   UNL     1       7.004  -6.330  -4.886  0.00  0.00    -0.047 A 
ATOM     36  C   UNL     1       5.801  -6.167  -5.548  0.00  0.00    +0.007 A 
ATOM     37  C   UNL     1       5.683  -5.219  -6.546  0.00  0.00    +0.045 A 
ATOM     38  C   UNL     1       6.773  -4.430  -6.883  0.00  0.00    +0.117 A 
ATOM     39  C   UNL     1       7.979  -4.595  -6.218  0.00  0.00    +0.045 A 
ATOM     40  C   UNL     1       8.090  -5.541  -5.217  0.00  0.00    +0.007 A 
BRANCH  38  41
ATOM     41  O   UNL     1       6.660  -3.497  -7.865  0.00  0.00    -0.507 OA
ATOM     42  H   UNL     1       6.378  -2.627  -7.550  0.00  0.00    +0.292 HD
ENDBRANCH  38  41
ENDBRANCH  34  35
ENDBRANCH  33  34
ENDBRANCH  30  33
ENDBRANCH  26  29
ENDBRANCH  11  23
TORSDOF 8
