REMARK  Name = CHEMBL365872
REMARK  9 active torsions:
REMARK  status: ('A' for Active; 'I' for Inactive)
REMARK    1  A    between atoms: C_1  and  O_2
REMARK    2  A    between atoms: O_2  and  C_3
REMARK    3  A    between atoms: C_6  and  C_9
REMARK    4  A    between atoms: C_19  and  N_23
REMARK    5  A    between atoms: N_26  and  N_27
REMARK    6  A    between atoms: C_28  and  C_30
REMARK    7  A    between atoms: C_30  and  C_31
REMARK    8  A    between atoms: C_31  and  C_32
REMARK    9  A    between atoms: C_35  and  O_38
REMARK                            x       y       z     vdW  Elec       q    Type
REMARK                         _______ _______ _______ _____ _____    ______ ____
ROOT
ATOM      1  C   UNL     1       2.486  -2.506  -4.391  0.00  0.00    +0.104 A 
ATOM      2  C   UNL     1       3.225  -3.713  -4.347  0.00  0.00    +0.075 A 
ATOM      3  C   UNL     1       3.656  -3.980  -5.639  0.00  0.00    +0.078 A 
ATOM      4  N   UNL     1       3.200  -2.983  -6.429  0.00  0.00    -0.276 N 
ATOM      5  N   UNL     1       2.474  -2.085  -5.639  0.00  0.00    -0.173 NA
ATOM      6  H   UNL     1       3.349  -2.905  -7.384  0.00  0.00    +0.189 HD
ATOM      7  C   UNL     1       4.437  -5.240  -5.634  0.00  0.00    +0.013 A 
ATOM      8  C   UNL     1       5.080  -5.939  -6.645  0.00  0.00    +0.011 A 
ATOM      9  C   UNL     1       5.754  -7.120  -6.358  0.00  0.00    +0.002 A 
ATOM     10  C   UNL     1       5.793  -7.609  -5.072  0.00  0.00    +0.024 A 
ATOM     11  C   UNL     1       5.153  -6.921  -4.039  0.00  0.00    +0.046 A 
ATOM     12  C   UNL     1       4.474  -5.735  -4.317  0.00  0.00    +0.053 A 
ATOM     13  C   UNL     1       3.713  -4.793  -3.466  0.00  0.00    +0.200 C 
ATOM     14  O   UNL     1       3.527  -4.888  -2.268  0.00  0.00    -0.286 OA
ENDROOT
BRANCH   1  18
ATOM     15  C   UNL     1       0.617  -0.592  -1.086  0.00  0.00    +0.120 A 
ATOM     16  C   UNL     1       1.179   0.171  -2.102  0.00  0.00    +0.046 A 
ATOM     17  C   UNL     1       1.785  -0.447  -3.175  0.00  0.00    +0.013 A 
ATOM     18  C   UNL     1       1.835  -1.839  -3.239  0.00  0.00    +0.003 A 
ATOM     19  C   UNL     1       1.271  -2.602  -2.217  0.00  0.00    +0.013 A 
ATOM     20  C   UNL     1       0.670  -1.978  -1.144  0.00  0.00    +0.046 A 
BRANCH  15  22
ATOM     21  C   UNL     1       0.001   1.449  -0.034  0.00  0.00    +0.277 C 
ATOM     22  O   UNL     1       0.020   0.020  -0.030  0.00  0.00    -0.495 OA
ENDBRANCH  15  22
ENDBRANCH   1  18
BRANCH  11  23
ATOM     23  N   UNL     1       5.193  -7.416  -2.740  0.00  0.00    -0.268 N 
ATOM     24  C   UNL     1       6.201  -8.224  -2.357  0.00  0.00    +0.320 C 
ATOM     25  O   UNL     1       7.129  -8.438  -3.113  0.00  0.00    -0.251 OA
ATOM     26  N   UNL     1       6.181  -8.795  -1.136  0.00  0.00    -0.218 N 
ATOM     27  H   UNL     1       4.495  -7.179  -2.109  0.00  0.00    +0.156 HD
ATOM     28  H   UNL     1       6.907  -9.377  -0.861  0.00  0.00    +0.174 HD
BRANCH  26  29
ATOM     29  N   UNL     1       5.112  -8.548  -0.265  0.00  0.00    -0.233 N 
ATOM     30  C   UNL     1       5.091  -9.119   0.956  0.00  0.00    +0.229 C 
ATOM     31  O   UNL     1       5.999  -9.846   1.300  0.00  0.00    -0.274 OA
ATOM     32  H   UNL     1       4.386  -7.966  -0.540  0.00  0.00    +0.173 HD
BRANCH  30  33
ATOM     33  C   UNL     1       3.941  -8.853   1.893  0.00  0.00    +0.102 C 
BRANCH  33  34
ATOM     34  C   UNL     1       4.163  -9.616   3.201  0.00  0.00    +0.044 C 
BRANCH  34  35
ATOM     35  C   UNL     1       3.013  -9.350   4.138  0.00  0.00    -0.047 A 
ATOM     36  C   UNL     1       3.069  -8.282   5.014  0.00  0.00    +0.007 A 
ATOM     37  C   UNL     1       2.016  -8.037   5.874  0.00  0.00    +0.045 A 
ATOM     38  C   UNL     1       0.902  -8.863   5.858  0.00  0.00    +0.117 A 
ATOM     39  C   UNL     1       0.848  -9.934   4.978  0.00  0.00    +0.045 A 
ATOM     40  C   UNL     1       1.901 -10.172   4.116  0.00  0.00    +0.007 A 
BRANCH  38  41
ATOM     41  O   UNL     1      -0.135  -8.624   6.704  0.00  0.00    -0.507 OA
ATOM     42  H   UNL     1      -0.811  -8.036   6.340  0.00  0.00    +0.292 HD
ENDBRANCH  38  41
ENDBRANCH  34  35
ENDBRANCH  33  34
ENDBRANCH  30  33
ENDBRANCH  26  29
ENDBRANCH  11  23
TORSDOF 8
