REMARK  Name = CHEMBL407709
REMARK  4 active torsions:
REMARK  status: ('A' for Active; 'I' for Inactive)
REMARK    1  A    between atoms: C_3  and  S_22
REMARK    2  A    between atoms: C_6  and  N_7
REMARK    3  A    between atoms: N_7  and  N_8
REMARK    4  A    between atoms: S_22  and  N_25
REMARK                            x       y       z     vdW  Elec       q    Type
REMARK                         _______ _______ _______ _____ _____    ______ ____
ROOT
ATOM      1  N   UNL     1      -1.176  -2.010   0.003  0.00  0.00    -0.177 NA
ATOM      2  C   UNL     1      -2.305  -2.684   0.010  0.00  0.00    +0.154 C 
ATOM      3  C   UNL     1      -2.474  -4.155   0.009  0.00  0.00    +0.044 A 
ATOM      4  C   UNL     1      -3.855  -4.391   0.019  0.00  0.00    +0.044 A 
ATOM      5  C   UNL     1      -4.311  -5.709   0.021  0.00  0.00    +0.026 A 
ATOM      6  C   UNL     1      -3.452  -6.763   0.013  0.00  0.00    +0.031 A 
ATOM      7  C   UNL     1      -2.053  -6.565   0.004  0.00  0.00    +0.079 A 
ATOM      8  C   UNL     1      -1.600  -5.228   0.002  0.00  0.00    +0.050 A 
ATOM      9  S   UNL     1       0.161  -5.435  -0.010  0.00  0.00    -0.075 S 
ATOM     10  C   UNL     1       0.200  -7.118  -0.013  0.00  0.00    +0.157 A 
ATOM     11  N   UNL     1      -1.052  -7.470  -0.004  0.00  0.00    -0.247 NA
ATOM     12  N   UNL     1      -4.529  -3.175   0.025  0.00  0.00    -0.280 N 
ATOM     13  C   UNL     1      -3.672  -2.139   0.026  0.00  0.00    +0.269 C 
ATOM     14  O   UNL     1      -3.974  -0.960   0.036  0.00  0.00    -0.268 OA
ATOM     15  H   UNL     1      -5.495  -3.085   0.031  0.00  0.00    +0.155 HD
ENDROOT
BRANCH   1  16
ATOM     16  N   UNL     1      -1.196  -0.720   0.010  0.00  0.00    -0.237 N 
ATOM     17  H   UNL     1      -2.043  -0.247   0.020  0.00  0.00    +0.174 HD
BRANCH  16  23
ATOM     18  C   UNL     1      -0.017   1.386   0.010  0.00  0.00    +0.026 A 
ATOM     19  C   UNL     1       1.171   2.091   0.002  0.00  0.00    +0.030 A 
ATOM     20  C   UNL     1       2.377   1.415  -0.013  0.00  0.00    +0.105 A 
ATOM     21  C   UNL     1       2.400   0.033  -0.021  0.00  0.00    +0.030 A 
ATOM     22  C   UNL     1       1.217  -0.679  -0.014  0.00  0.00    +0.026 A 
ATOM     23  C   UNL     1       0.002  -0.004   0.002  0.00  0.00    +0.048 A 
BRANCH  20  24
ATOM     24  S   UNL     1       3.890   2.319  -0.024  0.00  0.00    +0.056 S 
ATOM     25  O   UNL     1       4.872   1.461  -0.589  0.00  0.00    -0.153 OA
ATOM     26  O   UNL     1       3.594   3.599  -0.566  0.00  0.00    -0.153 OA
BRANCH  24  27
ATOM     27  N   UNL     1       4.326   2.562   1.555  0.00  0.00    -0.204 NA
ATOM     28  H   UNL     1       3.768   2.221   2.270  0.00  0.00    +0.144 HD
ATOM     29  H   UNL     1       5.140   3.047   1.764  0.00  0.00    +0.144 HD
ENDBRANCH  24  27
ENDBRANCH  20  24
ENDBRANCH  16  23
ENDBRANCH   1  16
TORSDOF 4
