REMARK  Name = CHEMBL192556
REMARK  7 active torsions:
REMARK  status: ('A' for Active; 'I' for Inactive)
REMARK    1  A    between atoms: C_1  and  C_2
REMARK    2  A    between atoms: C_2  and  C_3
REMARK    3  A    between atoms: C_2  and  C_18
REMARK    4  A    between atoms: C_6  and  N_9
REMARK    5  A    between atoms: C_12  and  C_15
REMARK    6  A    between atoms: N_20  and  C_21
REMARK    7  A    between atoms: C_23  and  C_27
REMARK                            x       y       z     vdW  Elec       q    Type
REMARK                         _______ _______ _______ _____ _____    ______ ____
ROOT
ATOM      1  C   UNL     1       0.731  -0.503   1.223  0.00  0.00    -0.036 A 
ATOM      2  C   UNL     1       2.046  -0.135   1.440  0.00  0.00    +0.006 A 
ATOM      3  C   UNL     1       2.717  -0.591   2.558  0.00  0.00    +0.024 A 
ATOM      4  C   UNL     1       2.069  -1.419   3.465  0.00  0.00    +0.036 A 
ATOM      5  C   UNL     1       0.748  -1.787   3.244  0.00  0.00    +0.024 A 
ATOM      6  C   UNL     1       0.082  -1.324   2.127  0.00  0.00    +0.006 A 
ENDROOT
BRANCH   4   7
ATOM      7  N   UNL     1       2.746  -1.883   4.598  0.00  0.00    -0.271 N 
ATOM      8  C   UNL     1       2.123  -2.667   5.672  0.00  0.00    +0.115 C 
ATOM      9  C   UNL     1       3.296  -3.307   6.448  0.00  0.00    +0.041 C 
ATOM     10  C   UNL     1       4.448  -2.320   6.150  0.00  0.00    +0.162 C 
ATOM     11  C   UNL     1       4.051  -1.674   4.841  0.00  0.00    +0.232 C 
ATOM     12  O   UNL     1       4.802  -1.055   4.116  0.00  0.00    -0.274 OA
BRANCH  10  13
ATOM     13  C   UNL     1       5.751  -3.061   5.995  0.00  0.00    +0.222 C 
ATOM     14  O   UNL     1       5.779  -4.268   6.108  0.00  0.00    -0.275 OA
ATOM     15  N   UNL     1       6.885  -2.382   5.731  0.00  0.00    -0.329 N 
ATOM     16  H   UNL     1       6.862  -1.417   5.640  0.00  0.00    +0.145 HD
ATOM     17  H   UNL     1       7.723  -2.859   5.631  0.00  0.00    +0.145 HD
ENDBRANCH  10  13
ENDBRANCH   4   7
BRANCH   1  19
ATOM     18  C   UNL     1      -0.034   1.525   0.019  0.00  0.00    +0.022 C 
ATOM     19  C   UNL     1       0.002  -0.004   0.002  0.00  0.00    +0.102 C 
BRANCH  19  20
ATOM     20  C   UNL     1       0.717  -0.475  -1.238  0.00  0.00    +0.225 C 
ATOM     21  O   UNL     1       1.720  -1.151  -1.140  0.00  0.00    -0.275 OA
ATOM     22  N   UNL     1       0.243  -0.147  -2.456  0.00  0.00    -0.270 N 
ATOM     23  H   UNL     1      -0.559   0.393  -2.534  0.00  0.00    +0.156 HD
BRANCH  22  24
ATOM     24  C   UNL     1       0.904  -0.584  -3.603  0.00  0.00    +0.121 A 
ATOM     25  C   UNL     1       2.034  -1.342  -3.641  0.00  0.00    +0.068 A 
ATOM     26  C   UNL     1       2.363  -1.554  -4.982  0.00  0.00    +0.068 A 
ATOM     27  N   UNL     1       1.471  -0.950  -5.725  0.00  0.00    -0.177 NA
ATOM     28  H   UNL     1      -0.234   0.181  -5.163  0.00  0.00    +0.190 HD
ATOM     29  N   UNL     1       0.538  -0.334  -4.881  0.00  0.00    -0.264 N 
BRANCH  26  30
ATOM     30  C   UNL     1       3.543  -2.344  -5.487  0.00  0.00    +0.040 C 
ATOM     31  C   UNL     1       4.668  -2.645  -4.495  0.00  0.00    +0.010 C 
ATOM     32  C   UNL     1       4.882  -1.614  -5.605  0.00  0.00    +0.010 C 
ENDBRANCH  26  30
ENDBRANCH  22  24
ENDBRANCH  19  20
ENDBRANCH   1  19
TORSDOF 6
