REMARK  Name = CHEMBL360695
REMARK  5 active torsions:
REMARK  status: ('A' for Active; 'I' for Inactive)
REMARK    1  A    between atoms: C_1  and  N_2
REMARK    2  A    between atoms: N_5  and  S_8
REMARK    3  A    between atoms: S_8  and  C_11
REMARK    4  A    between atoms: C_14  and  N_17
REMARK    5  A    between atoms: C_28  and  C_30
REMARK                            x       y       z     vdW  Elec       q    Type
REMARK                         _______ _______ _______ _____ _____    ______ ____
ROOT
ATOM      1  N   UNL     1       7.584  -1.063  -0.105  0.00  0.00    -0.231 N 
ATOM      2  C   UNL     1       8.580  -1.300   0.803  0.00  0.00    +0.086 A 
ATOM      3  C   UNL     1       9.651  -0.472   0.437  0.00  0.00    +0.033 A 
ATOM      4  C   UNL     1      10.838  -0.477   1.175  0.00  0.00    +0.014 A 
ATOM      5  C   UNL     1      10.969  -1.288   2.261  0.00  0.00    +0.028 A 
ATOM      6  C   UNL     1       9.920  -2.126   2.652  0.00  0.00    +0.068 A 
ATOM      7  C   UNL     1       8.716  -2.139   1.927  0.00  0.00    +0.045 A 
ATOM      8  C   UNL     1       7.863  -3.071   2.558  0.00  0.00    +0.144 A 
ATOM      9  N   UNL     1       8.488  -3.584   3.579  0.00  0.00    -0.181 NA
ATOM     10  N   UNL     1       9.769  -3.027   3.675  0.00  0.00    -0.277 N 
ATOM     11  H   UNL     1      10.434  -3.240   4.348  0.00  0.00    +0.189 HD
ATOM     12  C   UNL     1       9.167   0.246  -0.750  0.00  0.00    +0.155 A 
ATOM     13  N   UNL     1       7.944  -0.189  -0.974  0.00  0.00    -0.161 NA
ENDROOT
BRANCH   1  17
ATOM     14  C   UNL     1       3.868  -2.947  -0.065  0.00  0.00    +0.106 A 
ATOM     15  C   UNL     1       4.555  -2.802  -1.256  0.00  0.00    +0.030 A 
ATOM     16  C   UNL     1       5.787  -2.178  -1.273  0.00  0.00    +0.030 A 
ATOM     17  C   UNL     1       6.335  -1.695  -0.091  0.00  0.00    +0.066 A 
ATOM     18  C   UNL     1       5.642  -1.842   1.103  0.00  0.00    +0.030 A 
ATOM     19  C   UNL     1       4.408  -2.462   1.112  0.00  0.00    +0.030 A 
BRANCH  14  20
ATOM     20  S   UNL     1       2.296  -3.744  -0.048  0.00  0.00    +0.061 S 
ATOM     21  O   UNL     1       2.103  -4.233   1.272  0.00  0.00    -0.153 OA
ATOM     22  O   UNL     1       2.259  -4.592  -1.188  0.00  0.00    -0.153 OA
BRANCH  20  27
ATOM     23  C   UNL     1       0.006   1.398  -0.942  0.00  0.00    -0.096 C 
ATOM     24  N   UNL     1       0.020  -0.055  -0.730  0.00  0.00    +0.380 N 
ATOM     25  C   UNL     1       0.786  -0.698  -1.805  0.00  0.00    -0.062 C 
ATOM     26  C   UNL     1       0.706  -2.220  -1.648  0.00  0.00    +0.091 C 
ATOM     27  N   UNL     1       1.151  -2.573  -0.291  0.00  0.00    -0.180 NA
ATOM     28  C   UNL     1       0.549  -1.857   0.844  0.00  0.00    +0.091 C 
ATOM     29  C   UNL     1       0.636  -0.352   0.570  0.00  0.00    -0.062 C 
ATOM     30  H   UNL     1      -0.926  -0.405  -0.739  0.00  0.00    -0.082 HD
ENDBRANCH  20  27
ENDBRANCH  14  20
ENDBRANCH   1  17
BRANCH  12  31
ATOM     31  C   UNL     1       9.906   1.249  -1.538  0.00  0.00    +0.262 C 
ATOM     32  O   UNL     1      11.039   1.557  -1.221  0.00  0.00    -0.269 OA
ATOM     33  N   UNL     1       9.325   1.825  -2.610  0.00  0.00    -0.324 N 
ATOM     34  H   UNL     1       8.422   1.579  -2.862  0.00  0.00    +0.145 HD
ATOM     35  H   UNL     1       9.812   2.485  -3.128  0.00  0.00    +0.145 HD
ENDBRANCH  12  31
TORSDOF 4
