REMARK  Name = CHEMBL192556
REMARK  7 active torsions:
REMARK  status: ('A' for Active; 'I' for Inactive)
REMARK    1  A    between atoms: C_1  and  C_2
REMARK    2  A    between atoms: C_2  and  C_3
REMARK    3  A    between atoms: C_2  and  C_18
REMARK    4  A    between atoms: C_6  and  N_9
REMARK    5  A    between atoms: C_12  and  C_15
REMARK    6  A    between atoms: N_20  and  C_21
REMARK    7  A    between atoms: C_23  and  C_27
REMARK                            x       y       z     vdW  Elec       q    Type
REMARK                         _______ _______ _______ _____ _____    ______ ____
ROOT
ATOM      1  C   UNL     1       0.731  -0.503   1.223  0.00  0.00    -0.036 A 
ATOM      2  C   UNL     1       2.046  -0.134   1.441  0.00  0.00    +0.006 A 
ATOM      3  C   UNL     1       2.716  -0.590   2.559  0.00  0.00    +0.024 A 
ATOM      4  C   UNL     1       2.069  -1.419   3.465  0.00  0.00    +0.036 A 
ATOM      5  C   UNL     1       0.749  -1.788   3.243  0.00  0.00    +0.024 A 
ATOM      6  C   UNL     1       0.082  -1.325   2.126  0.00  0.00    +0.006 A 
ENDROOT
BRANCH   4   7
ATOM      7  N   UNL     1       2.746  -1.883   4.598  0.00  0.00    -0.271 N 
ATOM      8  C   UNL     1       2.123  -2.667   5.672  0.00  0.00    +0.115 C 
ATOM      9  C   UNL     1       3.095  -2.571   6.869  0.00  0.00    +0.041 C 
ATOM     10  C   UNL     1       4.443  -2.303   6.160  0.00  0.00    +0.162 C 
ATOM     11  C   UNL     1       4.051  -1.674   4.841  0.00  0.00    +0.232 C 
ATOM     12  O   UNL     1       4.805  -1.067   4.109  0.00  0.00    -0.274 OA
BRANCH  10  13
ATOM     13  C   UNL     1       5.286  -1.353   6.971  0.00  0.00    +0.222 C 
ATOM     14  O   UNL     1       4.868  -0.918   8.023  0.00  0.00    -0.275 OA
ATOM     15  N   UNL     1       6.505  -0.987   6.528  0.00  0.00    -0.329 N 
ATOM     16  H   UNL     1       6.840  -1.335   5.687  0.00  0.00    +0.145 HD
ATOM     17  H   UNL     1       7.048  -0.376   7.051  0.00  0.00    +0.145 HD
ENDBRANCH  10  13
ENDBRANCH   4   7
BRANCH   1  19
ATOM     18  C   UNL     1      -0.035   1.525   0.020  0.00  0.00    +0.022 C 
ATOM     19  C   UNL     1       0.002  -0.004   0.002  0.00  0.00    +0.102 C 
BRANCH  19  20
ATOM     20  C   UNL     1       0.718  -0.474  -1.238  0.00  0.00    +0.225 C 
ATOM     21  O   UNL     1       1.722  -1.148  -1.140  0.00  0.00    -0.275 OA
ATOM     22  N   UNL     1       0.244  -0.146  -2.456  0.00  0.00    -0.270 N 
ATOM     23  H   UNL     1      -0.559   0.394  -2.534  0.00  0.00    +0.156 HD
BRANCH  22  24
ATOM     24  C   UNL     1       0.906  -0.581  -3.603  0.00  0.00    +0.121 A 
ATOM     25  C   UNL     1       2.036  -1.339  -3.640  0.00  0.00    +0.068 A 
ATOM     26  C   UNL     1       2.366  -1.550  -4.982  0.00  0.00    +0.068 A 
ATOM     27  N   UNL     1       1.474  -0.945  -5.725  0.00  0.00    -0.177 NA
ATOM     28  H   UNL     1      -0.232   0.184  -5.163  0.00  0.00    +0.190 HD
ATOM     29  N   UNL     1       0.540  -0.331  -4.881  0.00  0.00    -0.264 N 
BRANCH  26  30
ATOM     30  C   UNL     1       3.547  -2.338  -5.487  0.00  0.00    +0.040 C 
ATOM     31  C   UNL     1       4.672  -2.639  -4.495  0.00  0.00    +0.010 C 
ATOM     32  C   UNL     1       4.886  -1.607  -5.604  0.00  0.00    +0.010 C 
ENDBRANCH  26  30
ENDBRANCH  22  24
ENDBRANCH  19  20
ENDBRANCH   1  19
TORSDOF 6
