REMARK  Name = CHEMBL359738
REMARK  3 active torsions:
REMARK  status: ('A' for Active; 'I' for Inactive)
REMARK    1  A    between atoms: C_3  and  N_23
REMARK    2  A    between atoms: C_6  and  N_7
REMARK    3  A    between atoms: C_10  and  C_12
REMARK                            x       y       z     vdW  Elec       q    Type
REMARK                         _______ _______ _______ _____ _____    ______ ____
ROOT
ATOM      1  N   UNL     1      -1.202  -0.721   0.010  0.00  0.00    -0.231 N 
ATOM      2  C   UNL     1      -2.276  -0.438  -0.745  0.00  0.00    +0.082 A 
ATOM      3  C   UNL     1      -3.237  -1.392  -0.469  0.00  0.00    +0.011 A 
ATOM      4  C   UNL     1      -2.667  -2.213   0.509  0.00  0.00    +0.151 A 
ATOM      5  N   UNL     1      -1.445  -1.758   0.741  0.00  0.00    -0.161 NA
ATOM      6  C   UNL     1      -4.565  -1.450  -1.163  0.00  0.00    +0.046 C 
ATOM      7  C   UNL     1      -5.041  -0.055  -1.575  0.00  0.00    +0.060 C 
ATOM      8  C   UNL     1      -3.910   0.767  -2.132  0.00  0.00    +0.046 A 
ATOM      9  C   UNL     1      -2.597   0.611  -1.730  0.00  0.00    +0.041 A 
ATOM     10  C   UNL     1      -1.823   1.549  -2.405  0.00  0.00    +0.144 A 
ATOM     11  N   UNL     1      -2.617   2.227  -3.199  0.00  0.00    -0.181 NA
ATOM     12  H   UNL     1      -4.707   2.061  -3.525  0.00  0.00    +0.189 HD
ATOM     13  N   UNL     1      -3.925   1.743  -3.047  0.00  0.00    -0.281 N 
ENDROOT
BRANCH   1  19
ATOM     14  C   UNL     1      -0.017   1.385  -0.011  0.00  0.00    +0.029 A 
ATOM     15  C   UNL     1       1.169   2.091  -0.018  0.00  0.00    +0.025 A 
ATOM     16  C   UNL     1       2.381   1.413  -0.013  0.00  0.00    +0.030 A 
ATOM     17  C   UNL     1       2.400   0.024  -0.000  0.00  0.00    +0.025 A 
ATOM     18  C   UNL     1       1.214  -0.682   0.007  0.00  0.00    +0.029 A 
ATOM     19  C   UNL     1       0.002  -0.004   0.002  0.00  0.00    +0.066 A 
BRANCH  16  20
ATOM     20  N   UNL     1       3.582   2.128  -0.021  0.00  0.00    -0.326 N 
ATOM     21  C   UNL     1       4.876   1.438   0.103  0.00  0.00    +0.133 C 
ATOM     22  C   UNL     1       5.792   1.921  -1.027  0.00  0.00    +0.178 C 
ATOM     23  O   UNL     1       5.832   3.350  -1.022  0.00  0.00    -0.377 OA
ATOM     24  C   UNL     1       4.569   3.972  -1.272  0.00  0.00    +0.178 C 
ATOM     25  C   UNL     1       3.590   3.593  -0.160  0.00  0.00    +0.133 C 
ENDBRANCH  16  20
ENDBRANCH   1  19
BRANCH   4  26
ATOM     26  C   UNL     1      -3.307  -3.376   1.157  0.00  0.00    +0.262 C 
ATOM     27  O   UNL     1      -4.439  -3.697   0.850  0.00  0.00    -0.269 OA
ATOM     28  N   UNL     1      -2.635  -4.081   2.089  0.00  0.00    -0.324 N 
ATOM     29  H   UNL     1      -1.732  -3.826   2.334  0.00  0.00    +0.145 HD
ATOM     30  H   UNL     1      -3.055  -4.845   2.515  0.00  0.00    +0.145 HD
ENDBRANCH   4  26
TORSDOF 3
