REMARK  Name = CHEMBL295136
REMARK  8 active torsions:
REMARK  status: ('A' for Active; 'I' for Inactive)
REMARK    1  A    between atoms: C_1  and  C_2
REMARK    2  A    between atoms: C_8  and  S_10
REMARK    3  A    between atoms: S_10  and  C_11
REMARK    4  A    between atoms: C_11  and  C_12
REMARK    5  A    between atoms: C_15  and  C_17
REMARK    6  A    between atoms: C_17  and  C_18
REMARK    7  A    between atoms: C_17  and  C_19
REMARK    8  A    between atoms: C_17  and  C_20
REMARK                            x       y       z     vdW  Elec       q    Type
REMARK                         _______ _______ _______ _____ _____    ______ ____
ROOT
ATOM      1  S   UNL     1      -2.054  -6.419  -0.019  0.00  0.00    -0.107 S 
ENDROOT
BRANCH   1   9
ATOM      2  C   UNL     1      -0.018   1.503   0.010  0.00  0.00    +0.109 C 
ATOM      3  C   UNL     1       0.002  -0.004   0.002  0.00  0.00    +0.216 C 
ATOM      4  O   UNL     1       1.061  -0.596  -0.011  0.00  0.00    -0.276 OA
ATOM      5  N   UNL     1      -1.156  -0.694   0.009  0.00  0.00    -0.265 N 
ATOM      6  C   UNL     1      -1.137  -2.086   0.002  0.00  0.00    +0.165 A 
ATOM      7  N   UNL     1      -0.104  -2.908  -0.007  0.00  0.00    -0.232 NA
ATOM      8  C   UNL     1      -0.270  -4.218  -0.013  0.00  0.00    +0.135 A 
ATOM      9  C   UNL     1      -1.530  -4.737  -0.011  0.00  0.00    +0.067 A 
ATOM     10  S   UNL     1      -2.504  -3.237   0.009  0.00  0.00    -0.046 S 
ATOM     11  H   UNL     1      -2.002  -0.220   0.020  0.00  0.00    +0.157 HD
ENDBRANCH   1   9
BRANCH   1  12
ATOM     12  C   UNL     1      -3.865  -6.314  -0.011  0.00  0.00    +0.170 C 
BRANCH  12  13
ATOM     13  C   UNL     1      -4.448  -7.704  -0.017  0.00  0.00    +0.206 A 
ATOM     14  N   UNL     1      -4.743  -8.408   1.039  0.00  0.00    -0.221 NA
ATOM     15  C   UNL     1      -5.241  -9.592   0.643  0.00  0.00    +0.156 A 
ATOM     16  C   UNL     1      -5.247  -9.603  -0.701  0.00  0.00    +0.131 A 
ATOM     17  O   UNL     1      -4.755  -8.417  -1.109  0.00  0.00    -0.443 OA
BRANCH  16  18
ATOM     18  C   UNL     1      -5.721 -10.728  -1.584  0.00  0.00    +0.022 C 
ATOM     19  C   UNL     1      -7.196 -11.015  -1.298  0.00  0.00    +0.019 C 
ATOM     20  C   UNL     1      -5.554 -10.328  -3.052  0.00  0.00    +0.019 C 
ATOM     21  C   UNL     1      -4.892 -11.983  -1.300  0.00  0.00    +0.019 C 
ENDBRANCH  16  18
ENDBRANCH  12  13
ENDBRANCH   1  12
TORSDOF 4
