REMARK  Name = CHEMBL129396
REMARK  7 active torsions:
REMARK  status: ('A' for Active; 'I' for Inactive)
REMARK    1  A    between atoms: C_1  and  C_2
REMARK    2  A    between atoms: C_2  and  C_3
REMARK    3  A    between atoms: C_6  and  C_8
REMARK    4  A    between atoms: C_8  and  S_9
REMARK    5  A    between atoms: S_9  and  C_10
REMARK    6  A    between atoms: C_16  and  C_18
REMARK    7  A    between atoms: C_18  and  C_19
REMARK                            x       y       z     vdW  Elec       q    Type
REMARK                         _______ _______ _______ _____ _____    ______ ____
ROOT
ATOM      1  C   UNL     1       5.524  -3.627   3.514  0.00  0.00    +0.067 A 
ATOM      2  C   UNL     1       6.246  -4.781   3.576  0.00  0.00    +0.135 A 
ATOM      3  N   UNL     1       7.439  -4.774   4.142  0.00  0.00    -0.232 NA
ATOM      4  C   UNL     1       7.951  -3.670   4.651  0.00  0.00    +0.165 A 
ATOM      5  S   UNL     1       6.650  -2.491   4.314  0.00  0.00    -0.046 S 
ATOM      6  N   UNL     1       9.177  -3.474   5.280  0.00  0.00    -0.264 N 
ATOM      7  C   UNL     1      10.029  -4.508   5.433  0.00  0.00    +0.223 C 
ATOM      8  O   UNL     1       9.726  -5.609   5.022  0.00  0.00    -0.275 OA
ATOM      9  H   UNL     1       9.419  -2.594   5.608  0.00  0.00    +0.157 HD
ENDROOT
BRANCH   1  10
ATOM     10  S   UNL     1       3.928  -3.333   2.829  0.00  0.00    -0.107 S 
BRANCH  10  11
ATOM     11  C   UNL     1       3.646  -1.564   3.114  0.00  0.00    +0.170 C 
BRANCH  11  15
ATOM     12  C   UNL     1       0.731  -0.503   1.223  0.00  0.00    +0.125 A 
ATOM     13  C   UNL     1       0.185  -0.788   2.417  0.00  0.00    +0.156 A 
ATOM     14  N   UNL     1       1.174  -1.202   3.229  0.00  0.00    -0.221 NA
ATOM     15  C   UNL     1       2.296  -1.176   2.568  0.00  0.00    +0.206 A 
ATOM     16  O   UNL     1       2.051  -0.753   1.320  0.00  0.00    -0.444 OA
BRANCH  12  18
ATOM     17  C   UNL     1      -0.019   1.526   0.010  0.00  0.00    +0.012 C 
ATOM     18  C   UNL     1       0.002  -0.004   0.002  0.00  0.00    +0.072 C 
ENDBRANCH  12  18
ENDBRANCH  11  15
ENDBRANCH  10  11
ENDBRANCH   1  10
BRANCH   7  19
ATOM     19  C   UNL     1      11.357  -4.296   6.113  0.00  0.00    +0.132 C 
BRANCH  19  20
ATOM     20  C   UNL     1      12.113  -5.599   6.155  0.00  0.00    -0.021 A 
ATOM     21  C   UNL     1      11.960  -6.465   7.228  0.00  0.00    +0.007 A 
ATOM     22  C   UNL     1      12.676  -7.652   7.224  0.00  0.00    +0.020 A 
ATOM     23  C   UNL     1      13.511  -7.932   6.159  0.00  0.00    +0.111 A 
ATOM     24  N   UNL     1      13.632  -7.085   5.156  0.00  0.00    -0.263 NA
ATOM     25  C   UNL     1      12.962  -5.949   5.123  0.00  0.00    +0.114 A 
ENDBRANCH  19  20
ENDBRANCH   7  19
TORSDOF 6
