REMARK  Name = CHEMBL457888
REMARK  11 active torsions:
REMARK  status: ('A' for Active; 'I' for Inactive)
REMARK    1  A    between atoms: C_1  and  C_2
REMARK    2  A    between atoms: C_5  and  C_10
REMARK    3  A    between atoms: N_6  and  C_7
REMARK    4  A    between atoms: C_7  and  C_8
REMARK    5  A    between atoms: C_7  and  C_9
REMARK    6  A    between atoms: N_16  and  C_17
REMARK    7  A    between atoms: C_20  and  S_23
REMARK    8  A    between atoms: S_23  and  C_26
REMARK    9  A    between atoms: C_26  and  C_27
REMARK   10  A    between atoms: C_27  and  C_28
REMARK   11  A    between atoms: C_28  and  N_29
REMARK                            x       y       z     vdW  Elec       q    Type
REMARK                         _______ _______ _______ _____ _____    ______ ____
ROOT
ATOM      1  C   UNL     1       0.901  -7.886   2.104  0.00  0.00    +0.034 A 
ATOM      2  C   UNL     1       0.780  -7.745   3.480  0.00  0.00    +0.025 A 
ATOM      3  C   UNL     1       0.897  -8.851   4.299  0.00  0.00    +0.029 A 
ATOM      4  C   UNL     1       1.134 -10.098   3.750  0.00  0.00    +0.088 A 
ATOM      5  C   UNL     1       1.256 -10.242   2.381  0.00  0.00    +0.029 A 
ATOM      6  C   UNL     1       1.134  -9.141   1.555  0.00  0.00    +0.025 A 
ENDROOT
BRANCH   1  13
ATOM      7  C   UNL     1       1.478  -3.271   1.323  0.00  0.00    +0.094 A 
ATOM      8  C   UNL     1       2.176  -3.158   2.533  0.00  0.00    +0.050 A 
ATOM      9  C   UNL     1       2.379  -4.299   3.284  0.00  0.00    +0.116 A 
ATOM     10  N   UNL     1       1.912  -5.458   2.844  0.00  0.00    -0.223 NA
ATOM     11  C   UNL     1       1.254  -5.537   1.696  0.00  0.00    +0.220 A 
ATOM     12  N   UNL     1       1.032  -4.469   0.946  0.00  0.00    -0.213 NA
ATOM     13  N   UNL     1       0.783  -6.769   1.272  0.00  0.00    -0.284 N 
ATOM     14  H   UNL     1       0.372  -6.856   0.398  0.00  0.00    +0.155 HD
BRANCH   7  19
ATOM     15  C   UNL     1       1.550   1.430  -0.491  0.00  0.00    +0.084 C 
ATOM     16  C   UNL     1       1.261  -0.038  -0.312  0.00  0.00    +0.084 A 
ATOM     17  N   UNL     1       0.514  -0.765  -1.100  0.00  0.00    -0.349 N 
ATOM     18  C   UNL     1       0.474  -2.022  -0.645  0.00  0.00    +0.112 A 
ATOM     19  C   UNL     1       1.234  -2.081   0.484  0.00  0.00    +0.085 A 
ATOM     20  N   UNL     1       1.735  -0.813   0.684  0.00  0.00    -0.326 N 
ATOM     21  H   UNL     1       0.058  -0.443  -1.893  0.00  0.00    +0.166 HD
BRANCH  20  22
ATOM     22  C   UNL     1       2.614  -0.387   1.776  0.00  0.00    +0.083 C 
ATOM     23  C   UNL     1       3.992  -1.028   1.600  0.00  0.00    +0.030 C 
ATOM     24  C   UNL     1       2.754   1.137   1.753  0.00  0.00    +0.030 C 
ENDBRANCH  20  22
ENDBRANCH   7  19
ENDBRANCH   1  13
BRANCH   4  25
ATOM     25  S   UNL     1       1.282 -11.506   4.799  0.00  0.00    -0.003 S 
ATOM     26  O   UNL     1       2.091 -12.418   4.069  0.00  0.00    -0.169 OA
ATOM     27  O   UNL     1       1.722 -10.986   6.046  0.00  0.00    -0.169 OA
BRANCH  25  28
ATOM     28  C   UNL     1      -0.406 -12.153   4.952  0.00  0.00    +0.170 C 
BRANCH  28  29
ATOM     29  C   UNL     1      -0.398 -13.391   5.851  0.00  0.00    +0.004 C 
BRANCH  29  30
ATOM     30  C   UNL     1      -1.822 -13.936   5.981  0.00  0.00    -0.077 C 
BRANCH  30  31
ATOM     31  N   UNL     1      -1.814 -15.125   6.844  0.00  0.00    +0.383 N 
ATOM     32  C   UNL     1      -1.046 -16.197   6.195  0.00  0.00    -0.050 C 
ATOM     33  C   UNL     1      -1.039 -17.434   7.096  0.00  0.00    +0.141 C 
ATOM     34  O   UNL     1      -2.387 -17.836   7.355  0.00  0.00    -0.383 OA
ATOM     35  C   UNL     1      -3.184 -16.817   7.965  0.00  0.00    +0.141 C 
ATOM     36  C   UNL     1      -3.194 -15.578   7.065  0.00  0.00    -0.050 C 
ATOM     37  H   UNL     1      -1.389 -14.895   7.729  0.00  0.00    -0.082 HD
ENDBRANCH  30  31
ENDBRANCH  29  30
ENDBRANCH  28  29
ENDBRANCH  25  28
ENDBRANCH   4  25
TORSDOF 8
