REMARK  Name = CHEMBL321939
REMARK  8 active torsions:
REMARK  status: ('A' for Active; 'I' for Inactive)
REMARK    1  A    between atoms: C_3  and  C_22
REMARK    2  A    between atoms: C_5  and  N_7
REMARK    3  A    between atoms: N_10  and  C_11
REMARK    4  A    between atoms: C_13  and  C_18
REMARK    5  A    between atoms: C_24  and  N_28
REMARK    6  A    between atoms: N_28  and  C_29
REMARK    7  A    between atoms: C_32  and  S_35
REMARK    8  A    between atoms: S_35  and  N_38
REMARK                            x       y       z     vdW  Elec       q    Type
REMARK                         _______ _______ _______ _____ _____    ______ ____
ROOT
ATOM      1  C   UNL     1      -0.502   1.087  -0.148  0.00  0.00    +0.002 A 
ATOM      2  C   UNL     1       0.699   1.748  -0.313  0.00  0.00    +0.010 A 
ATOM      3  C   UNL     1       1.882   1.023  -0.438  0.00  0.00    +0.004 A 
ATOM      4  C   UNL     1       1.850  -0.368  -0.397  0.00  0.00    +0.033 A 
ATOM      5  C   UNL     1       0.640  -1.025  -0.230  0.00  0.00    +0.035 A 
ATOM      6  C   UNL     1      -0.535  -0.294  -0.106  0.00  0.00    +0.023 A 
ENDROOT
BRANCH   5   7
ATOM      7  N   UNL     1       0.603  -2.423  -0.188  0.00  0.00    -0.269 N 
ATOM      8  C   UNL     1       1.624  -3.108   0.364  0.00  0.00    +0.308 C 
ATOM      9  O   UNL     1       2.532  -2.511   0.909  0.00  0.00    -0.252 OA
ATOM     10  N   UNL     1       1.637  -4.455   0.313  0.00  0.00    -0.267 N 
ATOM     11  H   UNL     1      -0.158  -2.899  -0.556  0.00  0.00    +0.156 HD
ATOM     12  H   UNL     1       0.946  -4.929  -0.175  0.00  0.00    +0.156 HD
BRANCH  10  13
ATOM     13  C   UNL     1       2.650  -5.171   0.964  0.00  0.00    +0.071 A 
ATOM     14  C   UNL     1       3.922  -4.626   1.081  0.00  0.00    +0.038 A 
ATOM     15  C   UNL     1       4.919  -5.334   1.723  0.00  0.00    +0.057 A 
ATOM     16  C   UNL     1       4.652  -6.584   2.251  0.00  0.00    +0.015 A 
ATOM     17  C   UNL     1       3.387  -7.131   2.137  0.00  0.00    +0.041 A 
ATOM     18  C   UNL     1       2.383  -6.425   1.500  0.00  0.00    +0.145 A 
ATOM     19  F   UNL     1       1.145  -6.957   1.395  0.00  0.00    -0.204 F 
BRANCH  15  20
ATOM     20  C   UNL     1       6.299  -4.743   1.849  0.00  0.00    +0.417 C 
ATOM     21  F   UNL     1       6.384  -4.003   3.034  0.00  0.00    -0.166 F 
ATOM     22  F   UNL     1       7.247  -5.772   1.874  0.00  0.00    -0.166 F 
ATOM     23  F   UNL     1       6.549  -3.905   0.757  0.00  0.00    -0.166 F 
ENDBRANCH  15  20
ENDBRANCH  10  13
ENDBRANCH   5   7
BRANCH   3  24
ATOM     24  C   UNL     1       3.174   1.732  -0.617  0.00  0.00    +0.094 A 
ATOM     25  C   UNL     1       3.363   3.126  -0.578  0.00  0.00    +0.073 A 
ATOM     26  C   UNL     1       4.684   3.372  -0.783  0.00  0.00    +0.119 A 
ATOM     27  N   UNL     1       5.307   2.175  -0.946  0.00  0.00    -0.263 N 
ATOM     28  N   UNL     1       4.342   1.166  -0.832  0.00  0.00    -0.172 NA
ATOM     29  H   UNL     1       6.254   2.043  -1.109  0.00  0.00    +0.190 HD
BRANCH  26  30
ATOM     30  N   UNL     1       5.290   4.626  -0.821  0.00  0.00    -0.300 N 
ATOM     31  H   UNL     1       4.777   5.419  -0.601  0.00  0.00    +0.154 HD
BRANCH  30  32
ATOM     32  C   UNL     1       6.636   4.740  -1.176  0.00  0.00    +0.032 A 
ATOM     33  C   UNL     1       7.186   3.872  -2.112  0.00  0.00    +0.025 A 
ATOM     34  C   UNL     1       8.517   3.988  -2.460  0.00  0.00    +0.030 A 
ATOM     35  C   UNL     1       9.303   4.966  -1.879  0.00  0.00    +0.105 A 
ATOM     36  C   UNL     1       8.759   5.832  -0.947  0.00  0.00    +0.030 A 
ATOM     37  C   UNL     1       7.428   5.725  -0.598  0.00  0.00    +0.025 A 
BRANCH  35  38
ATOM     38  S   UNL     1      11.002   5.110  -2.325  0.00  0.00    +0.056 S 
ATOM     39  O   UNL     1      11.655   5.752  -1.239  0.00  0.00    -0.153 OA
ATOM     40  O   UNL     1      11.403   3.836  -2.811  0.00  0.00    -0.153 OA
BRANCH  38  41
ATOM     41  N   UNL     1      11.083   6.153  -3.609  0.00  0.00    -0.204 NA
ATOM     42  H   UNL     1      10.273   6.550  -3.964  0.00  0.00    +0.144 HD
ATOM     43  H   UNL     1      11.942   6.367  -4.007  0.00  0.00    +0.144 HD
ENDBRANCH  38  41
ENDBRANCH  35  38
ENDBRANCH  30  32
ENDBRANCH  26  30
ENDBRANCH   3  24
TORSDOF 8
