REMARK  Name = CHEMBL358390
REMARK  8 active torsions:
REMARK  status: ('A' for Active; 'I' for Inactive)
REMARK    1  A    between atoms: C_1  and  O_2
REMARK    2  A    between atoms: O_2  and  C_3
REMARK    3  A    between atoms: C_6  and  C_9
REMARK    4  A    between atoms: C_9  and  N_10
REMARK    5  A    between atoms: N_13  and  C_14
REMARK    6  A    between atoms: C_27  and  C_28
REMARK    7  A    between atoms: C_31  and  O_34
REMARK    8  A    between atoms: O_34  and  C_35
REMARK                            x       y       z     vdW  Elec       q    Type
REMARK                         _______ _______ _______ _____ _____    ______ ____
ROOT
ATOM      1  C   UNL     1       6.879  -4.173  -5.579  0.00  0.00    +0.046 A 
ATOM      2  C   UNL     1       6.417  -4.591  -6.830  0.00  0.00    +0.024 A 
ATOM      3  C   UNL     1       7.256  -5.263  -7.688  0.00  0.00    +0.002 A 
ATOM      4  C   UNL     1       8.570  -5.535  -7.324  0.00  0.00    +0.011 A 
ATOM      5  C   UNL     1       9.049  -5.129  -6.088  0.00  0.00    +0.013 A 
ATOM      6  C   UNL     1       8.196  -4.436  -5.207  0.00  0.00    +0.053 A 
ATOM      7  C   UNL     1       8.973  -4.129  -3.986  0.00  0.00    +0.200 C 
ATOM      8  O   UNL     1       8.570  -3.542  -3.001  0.00  0.00    -0.286 OA
ATOM      9  C   UNL     1      10.332  -4.671  -4.190  0.00  0.00    +0.075 A 
ATOM     10  C   UNL     1      10.374  -5.275  -5.440  0.00  0.00    +0.078 A 
ATOM     11  N   UNL     1      11.620  -5.768  -5.606  0.00  0.00    -0.276 N 
ATOM     12  H   UNL     1      11.944  -6.234  -6.392  0.00  0.00    +0.189 HD
ATOM     13  N   UNL     1      12.367  -5.491  -4.455  0.00  0.00    -0.173 NA
ATOM     14  C   UNL     1      11.613  -4.824  -3.607  0.00  0.00    +0.104 A 
ENDROOT
BRANCH   1  18
ATOM     15  N   UNL     1       3.914  -3.208  -3.769  0.00  0.00    -0.295 N 
ATOM     16  C   UNL     1       4.719  -3.802  -4.673  0.00  0.00    +0.304 C 
ATOM     17  O   UNL     1       4.262  -4.616  -5.451  0.00  0.00    -0.252 OA
ATOM     18  N   UNL     1       6.030  -3.494  -4.712  0.00  0.00    -0.269 N 
ATOM     19  H   UNL     1       4.278  -2.558  -3.148  0.00  0.00    +0.151 HD
ATOM     20  H   UNL     1       6.382  -2.797  -4.135  0.00  0.00    +0.156 HD
BRANCH  15  21
ATOM     21  C   UNL     1       2.488  -3.543  -3.727  0.00  0.00    +0.141 C 
BRANCH  21  25
ATOM     22  C   UNL     1       0.586  -1.286  -0.636  0.00  0.00    +0.120 A 
ATOM     23  C   UNL     1       0.665  -0.774  -1.923  0.00  0.00    +0.046 A 
ATOM     24  C   UNL     1       1.280  -1.505  -2.920  0.00  0.00    +0.009 A 
ATOM     25  C   UNL     1       1.817  -2.747  -2.637  0.00  0.00    -0.030 A 
ATOM     26  C   UNL     1       1.740  -3.261  -1.355  0.00  0.00    +0.009 A 
ATOM     27  C   UNL     1       1.131  -2.530  -0.353  0.00  0.00    +0.046 A 
BRANCH  22  29
ATOM     28  C   UNL     1      -0.557   0.704  -0.017  0.00  0.00    +0.277 C 
ATOM     29  O   UNL     1      -0.019  -0.569   0.346  0.00  0.00    -0.495 OA
ENDBRANCH  22  29
ENDBRANCH  21  25
ENDBRANCH  15  21
ENDBRANCH   1  18
BRANCH  14  30
ATOM     30  C   UNL     1      12.024  -4.341  -2.267  0.00  0.00    +0.003 A 
ATOM     31  C   UNL     1      11.505  -3.148  -1.764  0.00  0.00    +0.013 A 
ATOM     32  C   UNL     1      11.890  -2.703  -0.517  0.00  0.00    +0.046 A 
ATOM     33  C   UNL     1      12.793  -3.440   0.237  0.00  0.00    +0.120 A 
ATOM     34  C   UNL     1      13.311  -4.628  -0.261  0.00  0.00    +0.046 A 
ATOM     35  C   UNL     1      12.926  -5.082  -1.504  0.00  0.00    +0.013 A 
BRANCH  33  36
ATOM     36  O   UNL     1      13.171  -2.997   1.465  0.00  0.00    -0.495 OA
ATOM     37  C   UNL     1      14.102  -3.805   2.187  0.00  0.00    +0.277 C 
ENDBRANCH  33  36
ENDBRANCH  14  30
TORSDOF 6
