REMARK  Name = CHEMBL455195
REMARK  10 active torsions:
REMARK  status: ('A' for Active; 'I' for Inactive)
REMARK    1  A    between atoms: C_1  and  C_2
REMARK    2  A    between atoms: C_2  and  C_3
REMARK    3  A    between atoms: C_5  and  C_9
REMARK    4  A    between atoms: C_15  and  S_17
REMARK    5  A    between atoms: S_17  and  C_18
REMARK    6  A    between atoms: C_18  and  C_19
REMARK    7  A    between atoms: C_22  and  C_24
REMARK    8  A    between atoms: C_24  and  C_25
REMARK    9  A    between atoms: C_24  and  C_26
REMARK   10  A    between atoms: C_24  and  C_27
REMARK                            x       y       z     vdW  Elec       q    Type
REMARK                         _______ _______ _______ _____ _____    ______ ____
ROOT
ATOM      1  C   UNL     1       0.647  -1.967  -3.811  0.00  0.00    +0.222 C 
ATOM      2  O   UNL     1      -0.328  -1.257  -3.686  0.00  0.00    -0.275 OA
ATOM      3  N   UNL     1       1.108  -2.268  -5.042  0.00  0.00    -0.264 N 
ATOM      4  C   UNL     1       0.464  -1.765  -6.168  0.00  0.00    +0.165 A 
ATOM      5  N   UNL     1      -0.595  -0.980  -6.246  0.00  0.00    -0.232 NA
ATOM      6  C   UNL     1      -1.079  -0.594  -7.412  0.00  0.00    +0.135 A 
ATOM      7  C   UNL     1      -0.477  -1.010  -8.561  0.00  0.00    +0.067 A 
ATOM      8  S   UNL     1       0.855  -2.001  -7.897  0.00  0.00    -0.046 S 
ATOM      9  H   UNL     1       1.888  -2.836  -5.142  0.00  0.00    +0.157 HD
ENDROOT
BRANCH   1  12
ATOM     10  C   UNL     1       0.718  -0.497  -1.257  0.00  0.00    -0.071 C 
ATOM     11  C   UNL     1       0.627  -2.023  -1.330  0.00  0.00    -0.003 C 
ATOM     12  C   UNL     1       1.344  -2.512  -2.591  0.00  0.00    +0.072 C 
ATOM     13  C   UNL     1       2.794  -2.018  -2.566  0.00  0.00    -0.007 C 
ATOM     14  C   UNL     1       2.805  -0.493  -2.447  0.00  0.00    -0.081 C 
ATOM     15  N   UNL     1       2.127  -0.090  -1.209  0.00  0.00    +0.381 N 
ATOM     16  H   UNL     1       2.183   0.912  -1.107  0.00  0.00    -0.086 HD
ATOM     17  H   UNL     1       2.578  -0.532  -0.421  0.00  0.00    -0.086 HD
BRANCH  10  19
ATOM     18  C   UNL     1      -0.019   1.526   0.010  0.00  0.00    +0.002 C 
ATOM     19  C   UNL     1       0.002  -0.004   0.002  0.00  0.00    -0.019 C 
ENDBRANCH  10  19
ENDBRANCH   1  12
BRANCH   7  20
ATOM     20  S   UNL     1      -0.892  -0.662 -10.238  0.00  0.00    -0.107 S 
BRANCH  20  21
ATOM     21  C   UNL     1       0.358  -1.562 -11.196  0.00  0.00    +0.170 C 
BRANCH  21  22
ATOM     22  C   UNL     1       0.115  -1.347 -12.667  0.00  0.00    +0.206 A 
ATOM     23  N   UNL     1       0.626  -0.390 -13.388  0.00  0.00    -0.221 NA
ATOM     24  C   UNL     1       0.185  -0.520 -14.652  0.00  0.00    +0.156 A 
ATOM     25  C   UNL     1      -0.621  -1.594 -14.694  0.00  0.00    +0.131 A 
ATOM     26  O   UNL     1      -0.658  -2.111 -13.450  0.00  0.00    -0.443 OA
BRANCH  25  27
ATOM     27  C   UNL     1      -1.344  -2.124 -15.906  0.00  0.00    +0.022 C 
ATOM     28  C   UNL     1      -0.325  -2.499 -16.984  0.00  0.00    +0.019 C 
ATOM     29  C   UNL     1      -2.153  -3.362 -15.516  0.00  0.00    +0.019 C 
ATOM     30  C   UNL     1      -2.287  -1.048 -16.448  0.00  0.00    +0.019 C 
ENDBRANCH  25  27
ENDBRANCH  21  22
ENDBRANCH  20  21
ENDBRANCH   7  20
TORSDOF 6
