REMARK  Name = CHEMBL179511
REMARK  3 active torsions:
REMARK  status: ('A' for Active; 'I' for Inactive)
REMARK    1  A    between atoms: C_3  and  N_12
REMARK    2  A    between atoms: C_6  and  C_7
REMARK    3  A    between atoms: C_15  and  C_17
REMARK                            x       y       z     vdW  Elec       q    Type
REMARK                         _______ _______ _______ _____ _____    ______ ____
ROOT
ATOM      1  N   UNL     1       3.582   2.134  -0.021  0.00  0.00    -0.231 N 
ATOM      2  C   UNL     1       4.699   1.819   0.662  0.00  0.00    +0.082 A 
ATOM      3  C   UNL     1       5.667   2.755   0.361  0.00  0.00    +0.011 A 
ATOM      4  C   UNL     1       5.088   3.683  -0.510  0.00  0.00    +0.151 A 
ATOM      5  N   UNL     1       3.840   3.309  -0.747  0.00  0.00    -0.161 NA
ATOM      6  C   UNL     1       7.071   2.681   0.895  0.00  0.00    +0.046 C 
ATOM      7  C   UNL     1       7.107   2.033   2.281  0.00  0.00    +0.060 C 
ATOM      8  C   UNL     1       6.196   0.837   2.349  0.00  0.00    +0.046 A 
ATOM      9  C   UNL     1       5.038   0.733   1.602  0.00  0.00    +0.041 A 
ATOM     10  C   UNL     1       4.416  -0.466   1.930  0.00  0.00    +0.144 A 
ATOM     11  N   UNL     1       5.167  -1.078   2.815  0.00  0.00    -0.181 NA
ATOM     12  H   UNL     1       7.013  -0.499   3.689  0.00  0.00    +0.189 HD
ATOM     13  N   UNL     1       6.291  -0.279   3.080  0.00  0.00    -0.281 N 
ENDROOT
BRANCH   1  16
ATOM     14  C   UNL     1       0.689   0.224   1.196  0.00  0.00    +0.013 A 
ATOM     15  C   UNL     1       1.871   0.930   1.185  0.00  0.00    +0.028 A 
ATOM     16  C   UNL     1       2.381   1.417  -0.013  0.00  0.00    +0.066 A 
ATOM     17  C   UNL     1       1.700   1.192  -1.204  0.00  0.00    +0.028 A 
ATOM     18  C   UNL     1       0.516   0.486  -1.200  0.00  0.00    +0.013 A 
ATOM     19  C   UNL     1       0.002  -0.004   0.002  0.00  0.00    +0.016 A 
BRANCH  19  20
ATOM     20  C   UNL     1      -1.267  -0.763   0.010  0.00  0.00    +0.116 A 
ATOM     21  N   UNL     1      -1.861  -1.275   1.088  0.00  0.00    -0.346 N 
ATOM     22  C   UNL     1      -2.992  -1.892   0.691  0.00  0.00    +0.102 A 
ATOM     23  C   UNL     1      -3.084  -1.751  -0.648  0.00  0.00    +0.102 A 
ATOM     24  N   UNL     1      -2.012  -1.044  -1.058  0.00  0.00    -0.346 N 
ATOM     25  H   UNL     1      -1.816  -0.788  -1.973  0.00  0.00    +0.167 HD
ATOM     26  H   UNL     1      -1.536  -1.214   2.000  0.00  0.00    +0.167 HD
ENDBRANCH  19  20
ENDBRANCH   1  16
BRANCH   4  27
ATOM     27  C   UNL     1       5.755   4.875  -1.072  0.00  0.00    +0.262 C 
ATOM     28  O   UNL     1       6.911   5.117  -0.784  0.00  0.00    -0.269 OA
ATOM     29  N   UNL     1       5.082   5.695  -1.903  0.00  0.00    -0.324 N 
ATOM     30  H   UNL     1       4.160   5.502  -2.133  0.00  0.00    +0.145 HD
ATOM     31  H   UNL     1       5.521   6.478  -2.272  0.00  0.00    +0.145 HD
ENDBRANCH   4  27
TORSDOF 3
