REMARK  Name = CHEMBL181416
REMARK  6 active torsions:
REMARK  status: ('A' for Active; 'I' for Inactive)
REMARK    1  A    between atoms: C_1  and  O_2
REMARK    2  A    between atoms: O_2  and  C_3
REMARK    3  A    between atoms: C_12  and  C_13
REMARK    4  A    between atoms: N_18  and  C_19
REMARK    5  A    between atoms: C_22  and  N_25
REMARK    6  A    between atoms: C_28  and  N_30
REMARK                            x       y       z     vdW  Elec       q    Type
REMARK                         _______ _______ _______ _____ _____    ______ ____
ROOT
ATOM      1  C   UNL     1       1.085  -0.607  -0.834  0.00  0.00    +0.126 A 
ATOM      2  C   UNL     1       1.478   0.177  -1.925  0.00  0.00    +0.046 A 
ATOM      3  C   UNL     1       1.889  -0.399  -3.087  0.00  0.00    +0.015 A 
ATOM      4  C   UNL     1       1.922  -1.798  -3.196  0.00  0.00    +0.019 A 
ATOM      5  C   UNL     1       2.340  -2.441  -4.375  0.00  0.00    +0.124 A 
ATOM      6  N   UNL     1       2.345  -3.758  -4.405  0.00  0.00    -0.222 NA
ATOM      7  C   UNL     1       1.966  -4.481  -3.353  0.00  0.00    +0.220 A 
ATOM      8  N   UNL     1       1.565  -3.934  -2.221  0.00  0.00    -0.214 NA
ATOM      9  C   UNL     1       1.526  -2.601  -2.095  0.00  0.00    +0.083 A 
ATOM     10  C   UNL     1       1.111  -1.982  -0.908  0.00  0.00    +0.023 A 
ATOM     11  N   UNL     1       1.994  -5.861  -3.450  0.00  0.00    -0.284 N 
ATOM     12  H   UNL     1       1.647  -6.405  -2.726  0.00  0.00    +0.155 HD
ENDROOT
BRANCH  11  13
ATOM     13  C   UNL     1       2.525  -6.472  -4.593  0.00  0.00    +0.034 A 
ATOM     14  C   UNL     1       3.588  -5.884  -5.265  0.00  0.00    +0.025 A 
ATOM     15  C   UNL     1       4.111  -6.486  -6.392  0.00  0.00    +0.025 A 
ATOM     16  C   UNL     1       3.574  -7.680  -6.854  0.00  0.00    +0.030 A 
ATOM     17  C   UNL     1       2.510  -8.269  -6.182  0.00  0.00    +0.025 A 
ATOM     18  C   UNL     1       1.991  -7.669  -5.052  0.00  0.00    +0.025 A 
BRANCH  16  19
ATOM     19  N   UNL     1       4.103  -8.290  -7.996  0.00  0.00    -0.332 N 
ATOM     20  C   UNL     1       5.230  -7.780  -8.799  0.00  0.00    +0.103 C 
ATOM     21  C   UNL     1       5.813  -9.030  -9.504  0.00  0.00    +0.004 C 
ATOM     22  C   UNL     1       4.526  -9.840  -9.816  0.00  0.00    -0.056 C 
ATOM     23  C   UNL     1       3.633  -9.550  -8.592  0.00  0.00    +0.089 C 
BRANCH  22  24
ATOM     24  N   UNL     1       4.825 -11.276  -9.908  0.00  0.00    +0.381 N 
ATOM     25  H   UNL     1       5.231 -11.591  -9.039  0.00  0.00    -0.090 HD
ATOM     26  H   UNL     1       3.974 -11.786 -10.087  0.00  0.00    -0.090 HD
ATOM     27  H   UNL     1       5.478 -11.435 -10.661  0.00  0.00    -0.090 HD
ENDBRANCH  22  24
ENDBRANCH  16  19
ENDBRANCH  11  13
BRANCH  10  28
ATOM     28  C   UNL     1       0.692  -2.815   0.276  0.00  0.00    +0.025 C 
ATOM     29  C   UNL     1      -0.748  -2.452   0.694  0.00  0.00    +0.008 C 
ATOM     30  C   UNL     1      -0.727  -2.535   2.240  0.00  0.00    +0.001 C 
ATOM     31  C   UNL     1       0.668  -1.962   2.594  0.00  0.00    +0.001 C 
ATOM     32  C   UNL     1       1.592  -2.504   1.484  0.00  0.00    +0.008 C 
ENDBRANCH  10  28
BRANCH   1  34
ATOM     33  C   UNL     1       0.673   1.425   0.328  0.00  0.00    +0.277 C 
ATOM     34  O   UNL     1       0.678  -0.004   0.313  0.00  0.00    -0.495 OA
ENDBRANCH   1  34
TORSDOF 5
