REMARK  Name = CHEMBL358102
REMARK  7 active torsions:
REMARK  status: ('A' for Active; 'I' for Inactive)
REMARK    1  A    between atoms: C_1  and  N_2
REMARK    2  A    between atoms: N_2  and  C_3
REMARK    3  A    between atoms: N_2  and  N_4
REMARK    4  A    between atoms: N_7  and  C_8
REMARK    5  A    between atoms: C_21  and  C_22
REMARK    6  A    between atoms: C_25  and  O_28
REMARK    7  A    between atoms: O_28  and  C_29
REMARK                            x       y       z     vdW  Elec       q    Type
REMARK                         _______ _______ _______ _____ _____    ______ ____
ROOT
ATOM      1  C   UNL     1      -1.067  -2.258  -3.243  0.00  0.00    +0.046 A 
ATOM      2  C   UNL     1      -2.351  -2.791  -3.382  0.00  0.00    +0.024 A 
ATOM      3  C   UNL     1      -2.654  -3.591  -4.460  0.00  0.00    +0.002 A 
ATOM      4  C   UNL     1      -1.692  -3.879  -5.420  0.00  0.00    +0.011 A 
ATOM      5  C   UNL     1      -0.411  -3.361  -5.301  0.00  0.00    +0.013 A 
ATOM      6  C   UNL     1      -0.096  -2.537  -4.203  0.00  0.00    +0.053 A 
ATOM      7  C   UNL     1       1.321  -2.132  -4.344  0.00  0.00    +0.200 C 
ATOM      8  O   UNL     1       1.949  -1.422  -3.583  0.00  0.00    -0.286 OA
ATOM      9  C   UNL     1       1.827  -2.753  -5.585  0.00  0.00    +0.075 A 
ATOM     10  C   UNL     1       0.797  -3.493  -6.150  0.00  0.00    +0.078 A 
ATOM     11  N   UNL     1       1.280  -4.056  -7.279  0.00  0.00    -0.276 N 
ATOM     12  N   UNL     1       2.622  -3.688  -7.422  0.00  0.00    -0.173 NA
ATOM     13  H   UNL     1       0.779  -4.622  -7.888  0.00  0.00    +0.189 HD
ATOM     14  C   UNL     1       2.958  -2.898  -6.424  0.00  0.00    +0.104 A 
ENDROOT
BRANCH   1  18
ATOM     15  N   UNL     1      -0.959  -0.967   0.122  0.00  0.00    -0.232 N 
ATOM     16  C   UNL     1      -1.324  -1.692  -0.954  0.00  0.00    +0.318 C 
ATOM     17  O   UNL     1      -2.161  -2.566  -0.842  0.00  0.00    -0.251 OA
ATOM     18  N   UNL     1      -0.760  -1.449  -2.154  0.00  0.00    -0.268 N 
ATOM     19  H   UNL     1      -1.364  -1.141   0.985  0.00  0.00    +0.171 HD
ATOM     20  H   UNL     1      -0.140  -0.710  -2.257  0.00  0.00    +0.156 HD
BRANCH  15  22
ATOM     21  C   UNL     1      -0.593   1.336   0.283  0.00  0.00    +0.127 C 
ATOM     22  N   UNL     1      -0.017   0.015  -0.004  0.00  0.00    -0.232 NA
ATOM     23  C   UNL     1       1.142  -0.253   0.857  0.00  0.00    +0.127 C 
ENDBRANCH  15  22
ENDBRANCH   1  18
BRANCH  14  24
ATOM     24  C   UNL     1       4.291  -2.289  -6.204  0.00  0.00    +0.003 A 
ATOM     25  C   UNL     1       4.395  -1.026  -5.622  0.00  0.00    +0.013 A 
ATOM     26  C   UNL     1       5.637  -0.463  -5.418  0.00  0.00    +0.046 A 
ATOM     27  C   UNL     1       6.783  -1.151  -5.792  0.00  0.00    +0.120 A 
ATOM     28  C   UNL     1       6.683  -2.409  -6.372  0.00  0.00    +0.046 A 
ATOM     29  C   UNL     1       5.444  -2.981  -6.572  0.00  0.00    +0.013 A 
BRANCH  27  30
ATOM     30  O   UNL     1       8.005  -0.593  -5.591  0.00  0.00    -0.495 OA
ATOM     31  C   UNL     1       9.142  -1.357  -5.999  0.00  0.00    +0.277 C 
ENDBRANCH  27  30
ENDBRANCH  14  24
TORSDOF 4
