REMARK  Name = CHEMBL336906
REMARK  5 active torsions:
REMARK  status: ('A' for Active; 'I' for Inactive)
REMARK    1  A    between atoms: C_3  and  S_25
REMARK    2  A    between atoms: C_6  and  N_7
REMARK    3  A    between atoms: N_8  and  C_9
REMARK    4  A    between atoms: C_23  and  O_24
REMARK    5  A    between atoms: S_25  and  N_28
REMARK                            x       y       z     vdW  Elec       q    Type
REMARK                         _______ _______ _______ _____ _____    ______ ____
ROOT
ATOM      1  C   UNL     1       0.114  -2.535  -0.240  0.00  0.00    +0.155 A 
ATOM      2  C   UNL     1       0.305  -3.985  -0.365  0.00  0.00    +0.043 A 
ATOM      3  C   UNL     1       1.630  -4.243  -0.022  0.00  0.00    +0.052 A 
ATOM      4  C   UNL     1       2.125  -5.557  -0.043  0.00  0.00    +0.028 A 
ATOM      5  C   UNL     1       1.363  -6.617  -0.391  0.00  0.00    +0.032 A 
ATOM      6  C   UNL     1       0.007  -6.452  -0.756  0.00  0.00    +0.095 A 
ATOM      7  C   UNL     1      -0.564  -5.096  -0.749  0.00  0.00    +0.050 A 
ATOM      8  C   UNL     1      -1.880  -5.222  -1.137  0.00  0.00    +0.133 A 
ATOM      9  N   UNL     1      -2.120  -6.524  -1.366  0.00  0.00    -0.265 N 
ATOM     10  N   UNL     1      -0.959  -7.269  -1.132  0.00  0.00    -0.173 NA
ATOM     11  H   UNL     1      -2.971  -6.891  -1.652  0.00  0.00    +0.190 HD
ATOM     12 CL   UNL     1      -3.025  -3.928  -1.300  0.00  0.00    -0.062 Cl
ATOM     13  N   UNL     1       2.226  -3.034   0.297  0.00  0.00    -0.324 N 
ATOM     14  H   UNL     1       3.150  -2.928   0.573  0.00  0.00    +0.169 HD
ATOM     15  C   UNL     1       1.337  -2.016   0.165  0.00  0.00    +0.219 A 
ENDROOT
BRANCH   1  17
ATOM     16  N   UNL     1      -1.517  -1.083   0.442  0.00  0.00    -0.149 NA
ATOM     17  N   UNL     1      -1.022  -1.843  -0.476  0.00  0.00    -0.143 NA
BRANCH  16  23
ATOM     18  C   UNL     1      -0.418   0.337   2.028  0.00  0.00    +0.031 A 
ATOM     19  C   UNL     1       0.245   0.486   3.228  0.00  0.00    +0.030 A 
ATOM     20  C   UNL     1       0.475  -0.613   4.037  0.00  0.00    +0.105 A 
ATOM     21  C   UNL     1       0.042  -1.869   3.649  0.00  0.00    +0.030 A 
ATOM     22  C   UNL     1      -0.623  -2.033   2.452  0.00  0.00    +0.031 A 
ATOM     23  C   UNL     1      -0.859  -0.928   1.630  0.00  0.00    +0.086 A 
BRANCH  20  24
ATOM     24  S   UNL     1       1.324  -0.413   5.568  0.00  0.00    +0.056 S 
ATOM     25  O   UNL     1       1.895  -1.676   5.884  0.00  0.00    -0.153 OA
ATOM     26  O   UNL     1       2.106   0.767   5.447  0.00  0.00    -0.153 OA
BRANCH  24  27
ATOM     27  N   UNL     1       0.180  -0.107   6.726  0.00  0.00    -0.204 NA
ATOM     28  H   UNL     1      -0.758  -0.069   6.483  0.00  0.00    +0.144 HD
ATOM     29  H   UNL     1       0.449   0.034   7.647  0.00  0.00    +0.144 HD
ENDBRANCH  24  27
ENDBRANCH  20  24
ENDBRANCH  16  23
ENDBRANCH   1  17
BRANCH  15  30
ATOM     30  O   UNL     1       1.600  -0.709   0.394  0.00  0.00    -0.492 OA
ATOM     31  H   UNL     1       1.538  -0.452   1.325  0.00  0.00    +0.294 HD
ENDBRANCH  15  30
TORSDOF 5
