REMARK  Name = CHEMBL274456
REMARK  6 active torsions:
REMARK  status: ('A' for Active; 'I' for Inactive)
REMARK    1  A    between atoms: C_1  and  C_2
REMARK    2  A    between atoms: C_2  and  C_3
REMARK    3  A    between atoms: C_2  and  C_4
REMARK    4  A    between atoms: C_2  and  N_5
REMARK    5  A    between atoms: C_9  and  C_20
REMARK    6  A    between atoms: C_14  and  C_16
REMARK                            x       y       z     vdW  Elec       q    Type
REMARK                         _______ _______ _______ _____ _____    ______ ____
ROOT
ATOM      1  N   UNL     1       0.688  -0.476  -1.203  0.00  0.00    -0.324 N 
ATOM      2  C   UNL     1       2.001  -0.124  -1.432  0.00  0.00    +0.131 A 
ATOM      3  C   UNL     1       2.681  -0.566  -2.595  0.00  0.00    +0.041 A 
ATOM      4  C   UNL     1       2.061  -1.370  -3.555  0.00  0.00    +0.022 A 
ATOM      5  C   UNL     1       2.777  -1.769  -4.670  0.00  0.00    -0.017 A 
ATOM      6  C   UNL     1       4.113  -1.373  -4.838  0.00  0.00    +0.010 A 
ATOM      7  C   UNL     1       4.730  -0.591  -3.912  0.00  0.00    +0.029 A 
ATOM      8  C   UNL     1       4.030  -0.170  -2.772  0.00  0.00    +0.077 A 
ATOM      9  N   UNL     1       4.602   0.602  -1.836  0.00  0.00    -0.224 NA
ATOM     10  C   UNL     1       3.923   0.981  -0.779  0.00  0.00    +0.236 A 
ATOM     11  N   UNL     1       2.660   0.641  -0.573  0.00  0.00    -0.209 NA
ATOM     12  H   UNL     1       0.218  -1.037  -1.840  0.00  0.00    +0.148 HD
ENDROOT
BRANCH   5  13
ATOM     13  C   UNL     1       2.129  -2.623  -5.696  0.00  0.00    -0.011 A 
ATOM     14  C   UNL     1       2.831  -3.040  -6.822  0.00  0.00    +0.016 A 
ATOM     15  C   UNL     1       2.206  -3.818  -7.735  0.00  0.00    +0.046 A 
ATOM     16  S   UNL     1       0.576  -3.994  -7.029  0.00  0.00    -0.104 S 
ATOM     17  C   UNL     1       0.829  -3.022  -5.553  0.00  0.00    +0.053 A 
ENDBRANCH   5  13
BRANCH   1  19
ATOM     18  C   UNL     1      -0.019   1.526   0.010  0.00  0.00    +0.031 C 
ATOM     19  C   UNL     1       0.002  -0.004   0.002  0.00  0.00    +0.025 C 
ATOM     20  C   UNL     1       0.742  -0.511   1.242  0.00  0.00    +0.031 C 
ATOM     21  C   UNL     1      -1.433  -0.534   0.013  0.00  0.00    +0.031 C 
ENDBRANCH   1  19
BRANCH  10  22
ATOM     22  C   UNL     1       4.611   1.848   0.244  0.00  0.00    +0.452 C 
ATOM     23  F   UNL     1       5.785   2.375  -0.304  0.00  0.00    -0.163 F 
ATOM     24  F   UNL     1       3.760   2.894   0.616  0.00  0.00    -0.163 F 
ATOM     25  F   UNL     1       4.925   1.080   1.370  0.00  0.00    -0.163 F 
ENDBRANCH  10  22
TORSDOF 3
