REMARK  Name = CHEMBL178452
REMARK  4 active torsions:
REMARK  status: ('A' for Active; 'I' for Inactive)
REMARK    1  A    between atoms: C_1  and  C_2
REMARK    2  A    between atoms: C_2  and  C_3
REMARK    3  A    between atoms: C_2  and  C_4
REMARK    4  A    between atoms: C_4  and  C_5
REMARK                            x       y       z     vdW  Elec       q    Type
REMARK                         _______ _______ _______ _____ _____    ______ ____
ROOT
ATOM      1  C   UNL     1      -1.416  -2.058  -0.121  0.00  0.00    +0.045 C 
ATOM      2  C   UNL     1      -2.837  -2.593   0.060  0.00  0.00    +0.048 C 
ATOM      3  C   UNL     1      -2.971  -4.003  -0.444  0.00  0.00    -0.002 A 
ATOM      4  C   UNL     1      -3.786  -5.030   0.009  0.00  0.00    +0.138 A 
ATOM      5  N   UNL     1      -3.589  -6.086  -0.746  0.00  0.00    -0.181 NA
ATOM      6  H   UNL     1      -2.300  -6.358  -2.417  0.00  0.00    +0.189 HD
ATOM      7  N   UNL     1      -2.627  -5.768  -1.720  0.00  0.00    -0.277 N 
ATOM      8  C   UNL     1      -2.246  -4.499  -1.511  0.00  0.00    +0.072 A 
ATOM      9  C   UNL     1      -1.241  -3.626  -2.149  0.00  0.00    +0.041 A 
ATOM     10  C   UNL     1      -0.860  -2.427  -1.471  0.00  0.00    +0.075 A 
ATOM     11  N   UNL     1      -0.006  -1.811  -2.224  0.00  0.00    -0.178 NA
ATOM     12  N   UNL     1       0.222  -2.585  -3.373  0.00  0.00    -0.284 N 
ATOM     13  H   UNL     1       0.821  -2.357  -4.101  0.00  0.00    +0.188 HD
ATOM     14  C   UNL     1      -0.538  -3.702  -3.291  0.00  0.00    +0.115 A 
ENDROOT
BRANCH   1  15
ATOM     15  C   UNL     1      -1.433  -0.534   0.013  0.00  0.00    +0.013 C 
BRANCH  15  17
ATOM     16  C   UNL     1      -0.019   1.526   0.010  0.00  0.00    +0.007 C 
ATOM     17  C   UNL     1       0.002  -0.004   0.002  0.00  0.00    -0.017 C 
ATOM     18  C   UNL     1       0.742  -0.511   1.242  0.00  0.00    +0.007 C 
ENDBRANCH  15  17
ENDBRANCH   1  15
TORSDOF 2
