REMARK  Name = CHEMBL139527
REMARK  6 active torsions:
REMARK  status: ('A' for Active; 'I' for Inactive)
REMARK    1  A    between atoms: N_8  and  N_11
REMARK    2  A    between atoms: N_11  and  S_12
REMARK    3  A    between atoms: S_12  and  C_15
REMARK    4  A    between atoms: C_18  and  N_21
REMARK    5  A    between atoms: C_22  and  C_23
REMARK    6  A    between atoms: C_35  and  O_36
REMARK                            x       y       z     vdW  Elec       q    Type
REMARK                         _______ _______ _______ _____ _____    ______ ____
ROOT
ATOM      1  C   UNL     1       3.494  -2.423  -3.704  0.00  0.00    +0.107 A 
ATOM      2  C   UNL     1       3.353  -1.047  -3.659  0.00  0.00    +0.030 A 
ATOM      3  C   UNL     1       4.371  -0.230  -4.104  0.00  0.00    +0.029 A 
ATOM      4  C   UNL     1       5.548  -0.795  -4.601  0.00  0.00    +0.064 A 
ATOM      5  C   UNL     1       5.684  -2.185  -4.644  0.00  0.00    +0.029 A 
ATOM      6  C   UNL     1       4.659  -2.989  -4.191  0.00  0.00    +0.030 A 
ENDROOT
BRANCH   1   7
ATOM      7  S   UNL     1       2.188  -3.458  -3.133  0.00  0.00    +0.074 S 
ATOM      8  O   UNL     1       2.351  -4.712  -3.781  0.00  0.00    -0.152 OA
ATOM      9  O   UNL     1       0.992  -2.697  -3.235  0.00  0.00    -0.152 OA
BRANCH   7  10
ATOM     10  N   UNL     1       2.444  -3.723  -1.518  0.00  0.00    -0.108 NA
ATOM     11  H   UNL     1       2.569  -4.627  -1.189  0.00  0.00    +0.172 HD
BRANCH  10  19
ATOM     12  C   UNL     1      -0.017   1.380   0.010  0.00  0.00    +0.000 A 
ATOM     13  C   UNL     1       1.168   2.096   0.002  0.00  0.00    +0.001 A 
ATOM     14  C   UNL     1       2.379   1.435  -0.022  0.00  0.00    +0.008 A 
ATOM     15  C   UNL     1       2.404   0.041  -0.043  0.00  0.00    -0.019 A 
ATOM     16  C   UNL     1       1.204  -0.676  -0.015  0.00  0.00    -0.021 A 
ATOM     17  C   UNL     1       0.002  -0.004   0.002  0.00  0.00    +0.006 A 
ATOM     18  C   UNL     1       1.246  -2.183   0.021  0.00  0.00    +0.160 C 
ATOM     19  N   UNL     1       2.479  -2.643  -0.628  0.00  0.00    -0.251 N 
ATOM     20  C   UNL     1       3.678  -2.004  -0.357  0.00  0.00    +0.090 C 
ATOM     21  C   UNL     1       3.683  -0.693  -0.081  0.00  0.00    +0.024 C 
ENDBRANCH  10  19
ENDBRANCH   7  10
ENDBRANCH   1   7
BRANCH   4  22
ATOM     22  N   UNL     1       6.562   0.009  -5.044  0.00  0.00    -0.255 NA
ATOM     23  C   UNL     1       7.799  -0.247  -4.699  0.00  0.00    +0.125 C 
BRANCH  23  24
ATOM     24  C   UNL     1       8.849   0.586  -5.158  0.00  0.00    +0.063 A 
ATOM     25  C   UNL     1      10.289   0.435  -4.868  0.00  0.00    +0.028 A 
ATOM     26  C   UNL     1      10.930   1.489  -5.537  0.00  0.00    +0.051 A 
ATOM     27  C   UNL     1      12.317   1.605  -5.444  0.00  0.00    +0.028 A 
ATOM     28  C   UNL     1      13.057   0.724  -4.723  0.00  0.00    +0.031 A 
ATOM     29  C   UNL     1      12.449  -0.352  -4.034  0.00  0.00    +0.079 A 
ATOM     30  C   UNL     1      11.047  -0.462  -4.133  0.00  0.00    +0.049 A 
ATOM     31  S   UNL     1      10.718  -1.900  -3.150  0.00  0.00    -0.075 S 
ATOM     32  C   UNL     1      12.303  -2.246  -2.701  0.00  0.00    +0.157 A 
ATOM     33  N   UNL     1      13.010  -1.317  -3.276  0.00  0.00    -0.247 NA
ATOM     34  N   UNL     1       9.962   2.231  -6.188  0.00  0.00    -0.325 N 
ATOM     35  H   UNL     1      10.138   3.019  -6.727  0.00  0.00    +0.169 HD
ATOM     36  C   UNL     1       8.730   1.700  -5.973  0.00  0.00    +0.200 A 
BRANCH  36  37
ATOM     37  O   UNL     1       7.570   2.184  -6.473  0.00  0.00    -0.493 OA
ATOM     38  H   UNL     1       7.139   2.837  -5.905  0.00  0.00    +0.294 HD
ENDBRANCH  36  37
ENDBRANCH  23  24
ENDBRANCH   4  22
TORSDOF 6
