REMARK  Name = CHEMBL191865
REMARK  6 active torsions:
REMARK  status: ('A' for Active; 'I' for Inactive)
REMARK    1  A    between atoms: C_1  and  C_2
REMARK    2  A    between atoms: C_2  and  C_3
REMARK    3  A    between atoms: C_2  and  C_16
REMARK    4  A    between atoms: C_6  and  N_9
REMARK    5  A    between atoms: N_18  and  C_19
REMARK    6  A    between atoms: C_21  and  C_25
REMARK                            x       y       z     vdW  Elec       q    Type
REMARK                         _______ _______ _______ _____ _____    ______ ____
ROOT
ATOM      1  C   UNL     1       0.075   1.288   0.817  0.00  0.00    +0.022 C 
ATOM      2  C   UNL     1       0.002  -0.004   0.001  0.00  0.00    +0.102 C 
ENDROOT
BRANCH   2   3
ATOM      3  C   UNL     1      -1.412  -0.526   0.012  0.00  0.00    -0.036 A 
ATOM      4  C   UNL     1      -2.019  -0.847   1.212  0.00  0.00    +0.006 A 
ATOM      5  C   UNL     1      -3.315  -1.325   1.225  0.00  0.00    +0.024 A 
ATOM      6  C   UNL     1      -4.008  -1.483   0.032  0.00  0.00    +0.036 A 
ATOM      7  C   UNL     1      -3.395  -1.160  -1.171  0.00  0.00    +0.024 A 
ATOM      8  C   UNL     1      -2.100  -0.677  -1.178  0.00  0.00    +0.006 A 
BRANCH   6   9
ATOM      9  N   UNL     1      -5.320  -1.968   0.042  0.00  0.00    -0.271 N 
ATOM     10  C   UNL     1      -5.517  -3.408  -0.064  0.00  0.00    +0.113 C 
ATOM     11  C   UNL     1      -6.913  -3.795   0.427  0.00  0.00    +0.020 C 
ATOM     12  C   UNL     1      -7.945  -2.904  -0.275  0.00  0.00    +0.011 C 
ATOM     13  C   UNL     1      -7.762  -1.468   0.222  0.00  0.00    +0.096 C 
ATOM     14  C   UNL     1      -6.312  -1.083   0.154  0.00  0.00    +0.220 C 
ATOM     15  O   UNL     1      -6.028   0.095   0.200  0.00  0.00    -0.275 OA
ENDBRANCH   6   9
ENDBRANCH   2   3
BRANCH   2  16
ATOM     16  C   UNL     1       0.922  -1.033   0.607  0.00  0.00    +0.225 C 
ATOM     17  O   UNL     1       0.473  -2.086   1.008  0.00  0.00    -0.275 OA
ATOM     18  N   UNL     1       2.243  -0.783   0.703  0.00  0.00    -0.270 N 
ATOM     19  H   UNL     1       2.601   0.059   0.382  0.00  0.00    +0.156 HD
BRANCH  18  20
ATOM     20  C   UNL     1       3.094  -1.735   1.263  0.00  0.00    +0.121 A 
ATOM     21  C   UNL     1       2.729  -2.952   1.751  0.00  0.00    +0.068 A 
ATOM     22  C   UNL     1       3.882  -3.590   2.217  0.00  0.00    +0.068 A 
ATOM     23  N   UNL     1       4.901  -2.793   2.020  0.00  0.00    -0.177 NA
ATOM     24  H   UNL     1       4.973  -0.857   1.154  0.00  0.00    +0.190 HD
ATOM     25  N   UNL     1       4.433  -1.619   1.415  0.00  0.00    -0.264 N 
BRANCH  22  26
ATOM     26  C   UNL     1       3.942  -4.961   2.840  0.00  0.00    +0.040 C 
ATOM     27  C   UNL     1       2.627  -5.571   3.332  0.00  0.00    +0.010 C 
ATOM     28  C   UNL     1       3.661  -5.067   4.340  0.00  0.00    +0.010 C 
ENDBRANCH  22  26
ENDBRANCH  18  20
ENDBRANCH   2  16
TORSDOF 5
