REMARK  Name = CHEMBL1082152
REMARK  9 active torsions:
REMARK  status: ('A' for Active; 'I' for Inactive)
REMARK    1  A    between atoms: C_1  and  N_2
REMARK    2  A    between atoms: C_4  and  C_12
REMARK    3  A    between atoms: C_13  and  C_19
REMARK    4  A    between atoms: C_23  and  N_25
REMARK    5  A    between atoms: N_25  and  C_26
REMARK    6  A    between atoms: C_26  and  C_27
REMARK    7  A    between atoms: C_27  and  C_28
REMARK    8  A    between atoms: C_27  and  O_30
REMARK    9  A    between atoms: C_28  and  O_29
REMARK                            x       y       z     vdW  Elec       q    Type
REMARK                         _______ _______ _______ _____ _____    ______ ____
ROOT
ATOM      1  C   UNL     1       0.040  -3.256  -1.669  0.00  0.00    +0.059 C 
ATOM      2  C   UNL     1       1.115  -3.724  -2.412  0.00  0.00    +0.057 C 
ATOM      3  C   UNL     1       0.622  -4.896  -3.158  0.00  0.00    +0.252 C 
ATOM      4  O   UNL     1       1.278  -5.577  -3.921  0.00  0.00    -0.270 OA
ATOM      5  N   UNL     1      -0.673  -5.088  -2.855  0.00  0.00    -0.248 N 
ATOM      6  C   UNL     1      -1.094  -4.163  -1.975  0.00  0.00    +0.252 C 
ATOM      7  O   UNL     1      -2.213  -4.082  -1.512  0.00  0.00    -0.270 OA
ATOM      8  H   UNL     1      -1.226  -5.798  -3.218  0.00  0.00    +0.158 HD
ENDROOT
BRANCH   1  12
ATOM      9  C   UNL     1      -0.018   1.461   0.010  0.00  0.00    +0.149 C 
ATOM     10  N   UNL     1       0.002  -0.004   0.002  0.00  0.00    -0.349 N 
ATOM     11  C   UNL     1       0.008  -0.771  -1.117  0.00  0.00    +0.095 A 
ATOM     12  C   UNL     1       0.028  -2.102  -0.761  0.00  0.00    +0.013 A 
ATOM     13  C   UNL     1       0.035  -2.138   0.713  0.00  0.00    +0.010 A 
ATOM     14  C   UNL     1       0.024  -0.797   1.132  0.00  0.00    +0.050 A 
ATOM     15  C   UNL     1       0.032  -0.509   2.493  0.00  0.00    +0.029 A 
ATOM     16  C   UNL     1       0.055  -1.533   3.415  0.00  0.00    +0.040 A 
ATOM     17  C   UNL     1       0.070  -2.858   2.999  0.00  0.00    +0.124 A 
ATOM     18  C   UNL     1       0.053  -3.164   1.653  0.00  0.00    +0.049 A 
ATOM     19  F   UNL     1       0.092  -3.851   3.915  0.00  0.00    -0.205 F 
ENDBRANCH   1  12
BRANCH   2  20
ATOM     20  C   UNL     1       2.480  -3.160  -2.449  0.00  0.00    -0.010 A 
ATOM     21  C   UNL     1       2.696  -1.878  -2.961  0.00  0.00    +0.009 A 
ATOM     22  C   UNL     1       3.971  -1.354  -2.994  0.00  0.00    +0.002 A 
ATOM     23  C   UNL     1       5.040  -2.093  -2.522  0.00  0.00    +0.023 A 
ATOM     24  C   UNL     1       4.837  -3.371  -2.011  0.00  0.00    +0.028 A 
ATOM     25  C   UNL     1       3.559  -3.904  -1.968  0.00  0.00    +0.031 A 
BRANCH  24  26
ATOM     26  N   UNL     1       5.921  -4.114  -1.537  0.00  0.00    -0.341 N 
ATOM     27  H   UNL     1       5.779  -5.005  -1.180  0.00  0.00    +0.146 HD
BRANCH  26  28
ATOM     28  C   UNL     1       7.271  -3.547  -1.577  0.00  0.00    +0.135 C 
BRANCH  28  29
ATOM     29  C   UNL     1       8.266  -4.558  -1.002  0.00  0.00    +0.157 C 
BRANCH  29  30
ATOM     30  O   UNL     1       8.314  -5.711  -1.845  0.00  0.00    -0.388 OA
ATOM     31  H   UNL     1       8.590  -5.523  -2.753  0.00  0.00    +0.210 HD
ENDBRANCH  29  30
BRANCH  29  32
ATOM     32  C   UNL     1       9.655  -3.921  -0.929  0.00  0.00    +0.188 C 
BRANCH  32  33
ATOM     33  O   UNL     1      10.559  -4.823  -0.286  0.00  0.00    -0.392 OA
ATOM     34  H   UNL     1      11.460  -4.484  -0.204  0.00  0.00    +0.210 HD
ENDBRANCH  32  33
ENDBRANCH  29  32
ENDBRANCH  28  29
ENDBRANCH  26  28
ENDBRANCH  24  26
ENDBRANCH   2  20
TORSDOF 8
