REMARK  Name = CHEMBL215803
REMARK  2 active torsions:
REMARK  status: ('A' for Active; 'I' for Inactive)
REMARK    1  A    between atoms: C_1  and  C_2
REMARK    2  A    between atoms: C_12  and  O_32
REMARK                            x       y       z     vdW  Elec       q    Type
REMARK                         _______ _______ _______ _____ _____    ______ ____
ROOT
ATOM      1  C   UNL     1      -0.019   1.526   0.010  0.00  0.00    -0.013 C 
ATOM      2  C   UNL     1       0.002  -0.004   0.002  0.00  0.00    -0.068 C 
ATOM      3  C   UNL     1      -1.420  -0.541   0.173  0.00  0.00    +0.027 C 
ATOM      4  C   UNL     1      -1.488  -1.107   1.594  0.00  0.00    +0.156 C 
ATOM      5  C   UNL     1      -0.075  -1.005   2.172  0.00  0.00    -0.033 C 
ATOM      6  N   UNL     1       0.812  -0.495   1.123  0.00  0.00    +0.385 N 
ATOM      7  C   UNL     1       1.626   0.605   1.659  0.00  0.00    -0.055 C 
ATOM      8  C   UNL     1       2.860   0.035   2.360  0.00  0.00    +0.129 C 
ATOM      9  N   UNL     1       2.505  -0.371   3.722  0.00  0.00    -0.234 N 
ATOM     10  C   UNL     1       3.356  -0.427   4.758  0.00  0.00    +0.219 A 
ATOM     11  C   UNL     1       2.642  -0.869   5.869  0.00  0.00    +0.064 A 
ATOM     12  C   UNL     1       2.959  -1.137   7.212  0.00  0.00    +0.015 A 
ATOM     13  C   UNL     1       2.007  -1.587   8.071  0.00  0.00    +0.002 A 
ATOM     14  C   UNL     1       0.689  -1.795   7.684  0.00  0.00    +0.012 A 
ATOM     15  C   UNL     1       0.272  -1.547   6.387  0.00  0.00    +0.033 A 
ATOM     16  C   UNL     1       1.258  -1.071   5.412  0.00  0.00    +0.106 A 
ATOM     17  N   UNL     1       1.225  -0.761   4.134  0.00  0.00    -0.168 NA
ATOM     18  C   UNL     1      -1.131  -1.760   5.989  0.00  0.00    +0.138 A 
ATOM     19  C   UNL     1      -2.063  -2.443   6.904  0.00  0.00    +0.275 A 
ATOM     20  N   UNL     1      -3.340  -2.642   6.510  0.00  0.00    -0.319 N 
ATOM     21  C   UNL     1      -3.741  -2.182   5.269  0.00  0.00    +0.071 A 
ATOM     22  C   UNL     1      -5.049  -2.376   4.842  0.00  0.00    +0.028 A 
ATOM     23  C   UNL     1      -5.452  -1.907   3.610  0.00  0.00    +0.006 A 
ATOM     24  C   UNL     1      -4.565  -1.232   2.785  0.00  0.00    +0.048 A 
ATOM     25  C   UNL     1      -3.259  -1.026   3.184  0.00  0.00    +0.148 A 
ATOM     26  C   UNL     1      -2.825  -1.517   4.431  0.00  0.00    +0.130 A 
ATOM     27  N   UNL     1      -1.548  -1.348   4.812  0.00  0.00    -0.236 NA
ATOM     28  O   UNL     1      -2.400  -0.343   2.384  0.00  0.00    -0.489 OA
ATOM     29  O   UNL     1      -1.688  -2.821   7.998  0.00  0.00    -0.266 OA
ATOM     30  H   UNL     1      -3.967  -3.102   7.090  0.00  0.00    +0.169 HD
ATOM     31  H   UNL     1       1.419  -1.236   0.802  0.00  0.00    -0.081 HD
ENDROOT
BRANCH  10  32
ATOM     32  O   UNL     1       4.673  -0.109   4.729  0.00  0.00    -0.492 OA
ATOM     33  H   UNL     1       4.858   0.819   4.927  0.00  0.00    +0.294 HD
ENDBRANCH  10  32
TORSDOF 1
