REMARK  Name = CHEMBL372467
REMARK  5 active torsions:
REMARK  status: ('A' for Active; 'I' for Inactive)
REMARK    1  A    between atoms: C_1  and  C_2
REMARK    2  A    between atoms: C_2  and  C_3
REMARK    3  A    between atoms: C_2  and  C_16
REMARK    4  A    between atoms: C_6  and  N_9
REMARK    5  A    between atoms: C_21  and  C_25
REMARK                            x       y       z     vdW  Elec       q    Type
REMARK                         _______ _______ _______ _____ _____    ______ ____
ROOT
ATOM      1  C   UNL     1      -0.042   1.525   0.024  0.00  0.00    +0.022 C 
ATOM      2  C   UNL     1       0.002  -0.004   0.002  0.00  0.00    +0.102 C 
ENDROOT
BRANCH   2   3
ATOM      3  C   UNL     1       0.723  -0.468  -1.238  0.00  0.00    +0.225 C 
ATOM      4  O   UNL     1       1.729  -1.138  -1.140  0.00  0.00    -0.275 OA
ATOM      5  N   UNL     1       0.249  -0.138  -2.456  0.00  0.00    -0.268 N 
ATOM      6  C   UNL     1       0.918  -0.570  -3.609  0.00  0.00    +0.147 A 
ATOM      7  C   UNL     1       2.085  -1.351  -3.641  0.00  0.00    +0.068 A 
ATOM      8  C   UNL     1       2.414  -1.552  -4.938  0.00  0.00    +0.041 A 
ATOM      9  N   UNL     1       1.494  -0.923  -5.700  0.00  0.00    -0.280 N 
ATOM     10  H   UNL     1       1.479  -0.898  -6.670  0.00  0.00    +0.189 HD
ATOM     11  N   UNL     1       0.562  -0.319  -4.846  0.00  0.00    -0.158 NA
ATOM     12  H   UNL     1      -0.556   0.398  -2.534  0.00  0.00    +0.156 HD
BRANCH   8  13
ATOM     13  C   UNL     1       3.597  -2.337  -5.441  0.00  0.00    +0.037 C 
ATOM     14  C   UNL     1       4.264  -1.859  -6.733  0.00  0.00    +0.010 C 
ATOM     15  C   UNL     1       3.417  -3.134  -6.735  0.00  0.00    +0.010 C 
ENDBRANCH   8  13
ENDBRANCH   2   3
BRANCH   2  16
ATOM     16  C   UNL     1       0.731  -0.503   1.223  0.00  0.00    -0.036 A 
ATOM     17  C   UNL     1       2.044  -0.129   1.444  0.00  0.00    +0.006 A 
ATOM     18  C   UNL     1       2.714  -0.585   2.562  0.00  0.00    +0.024 A 
ATOM     19  C   UNL     1       2.069  -1.420   3.464  0.00  0.00    +0.045 A 
ATOM     20  C   UNL     1       0.751  -1.794   3.240  0.00  0.00    +0.024 A 
ATOM     21  C   UNL     1       0.084  -1.330   2.123  0.00  0.00    +0.006 A 
BRANCH  19  22
ATOM     22  N   UNL     1       2.748  -1.885   4.599  0.00  0.00    -0.193 N 
ATOM     23  C   UNL     1       2.172  -2.605   5.583  0.00  0.00    +0.245 C 
ATOM     24  O   UNL     1       1.015  -2.958   5.651  0.00  0.00    -0.273 OA
ATOM     25  C   UNL     1       3.274  -2.881   6.587  0.00  0.00    +0.202 C 
ATOM     26  N   UNL     1       4.453  -2.223   5.997  0.00  0.00    -0.290 N 
ATOM     27  C   UNL     1       4.047  -1.675   4.837  0.00  0.00    +0.313 C 
ATOM     28  O   UNL     1       4.779  -1.055   4.091  0.00  0.00    -0.252 OA
ATOM     29  H   UNL     1       5.348  -2.193   6.370  0.00  0.00    +0.151 HD
ENDBRANCH  19  22
ENDBRANCH   2  16
TORSDOF 4
