REMARK  Name = CHEMBL150859
REMARK  4 active torsions:
REMARK  status: ('A' for Active; 'I' for Inactive)
REMARK    1  A    between atoms: C_1  and  C_2
REMARK    2  A    between atoms: C_4  and  C_8
REMARK    3  A    between atoms: C_5  and  C_7
REMARK    4  A    between atoms: C_18  and  N_22
REMARK                            x       y       z     vdW  Elec       q    Type
REMARK                         _______ _______ _______ _____ _____    ______ ____
ROOT
ATOM      1  C   UNL     1      -1.773  -3.306  -0.011  0.00  0.00    +0.078 A 
ATOM      2  C   UNL     1      -2.016  -4.224   1.004  0.00  0.00    +0.075 A 
ATOM      3  C   UNL     1      -3.147  -5.045   0.564  0.00  0.00    +0.105 A 
ATOM      4  N   UNL     1      -3.508  -4.610  -0.618  0.00  0.00    -0.173 NA
ATOM      5  N   UNL     1      -2.688  -3.542  -0.994  0.00  0.00    -0.276 N 
ATOM      6  H   UNL     1      -2.757  -3.047  -1.826  0.00  0.00    +0.189 HD
ATOM      7  C   UNL     1      -3.424  -6.034   1.634  0.00  0.00    +0.015 A 
ATOM      8  C   UNL     1      -4.376  -7.042   1.736  0.00  0.00    +0.011 A 
ATOM      9  C   UNL     1      -4.424  -7.844   2.863  0.00  0.00    +0.002 A 
ATOM     10  C   UNL     1      -3.530  -7.655   3.897  0.00  0.00    +0.024 A 
ATOM     11  C   UNL     1      -2.569  -6.652   3.818  0.00  0.00    +0.046 A 
ATOM     12  C   UNL     1      -2.510  -5.834   2.683  0.00  0.00    +0.053 A 
ATOM     13  C   UNL     1      -1.615  -4.714   2.328  0.00  0.00    +0.200 C 
ATOM     14  O   UNL     1      -0.708  -4.276   3.011  0.00  0.00    -0.286 OA
ENDROOT
BRANCH   1  18
ATOM     15  C   UNL     1      -0.022   1.491  -0.010  0.00  0.00    +0.051 C 
ATOM     16  C   UNL     1      -0.009  -0.016  -0.018  0.00  0.00    -0.012 A 
ATOM     17  C   UNL     1      -1.058  -0.864  -0.008  0.00  0.00    +0.021 A 
ATOM     18  C   UNL     1      -0.728  -2.268  -0.020  0.00  0.00    +0.011 A 
ATOM     19  C   UNL     1       0.609  -2.594  -0.039  0.00  0.00    -0.004 A 
ATOM     20  S   UNL     1       1.394  -1.111  -0.049  0.00  0.00    -0.098 S 
ATOM     21  C   UNL     1       1.227  -3.968  -0.054  0.00  0.00    +0.052 C 
ENDBRANCH   1  18
BRANCH  11  22
ATOM     22  N   UNL     1      -1.669  -6.463   4.863  0.00  0.00    -0.269 N 
ATOM     23  C   UNL     1      -1.372  -7.485   5.690  0.00  0.00    +0.301 C 
ATOM     24  O   UNL     1      -1.808  -8.597   5.463  0.00  0.00    -0.253 OA
ATOM     25  N   UNL     1      -0.590  -7.275   6.768  0.00  0.00    -0.313 N 
ATOM     26  H   UNL     1      -1.257  -5.596   4.997  0.00  0.00    +0.156 HD
ATOM     27  H   UNL     1      -0.242  -6.388   6.949  0.00  0.00    +0.146 HD
ATOM     28  H   UNL     1      -0.376  -8.011   7.362  0.00  0.00    +0.146 HD
ENDBRANCH  11  22
TORSDOF 2
