REMARK  Name = CHEMBL134976
REMARK  6 active torsions:
REMARK  status: ('A' for Active; 'I' for Inactive)
REMARK    1  A    between atoms: C_1  and  N_2
REMARK    2  A    between atoms: N_2  and  S_9
REMARK    3  A    between atoms: S_9  and  C_12
REMARK    4  A    between atoms: C_15  and  N_18
REMARK    5  A    between atoms: C_19  and  C_20
REMARK    6  A    between atoms: C_32  and  O_33
REMARK                            x       y       z     vdW  Elec       q    Type
REMARK                         _______ _______ _______ _____ _____    ______ ____
ROOT
ATOM      1  C   UNL     1       1.682  -1.059  -1.905  0.00  0.00    +0.109 A 
ATOM      2  C   UNL     1       2.321  -0.106  -2.678  0.00  0.00    +0.031 A 
ATOM      3  C   UNL     1       3.638  -0.283  -3.048  0.00  0.00    +0.029 A 
ATOM      4  C   UNL     1       4.326  -1.429  -2.641  0.00  0.00    +0.064 A 
ATOM      5  C   UNL     1       3.675  -2.387  -1.861  0.00  0.00    +0.029 A 
ATOM      6  C   UNL     1       2.359  -2.194  -1.494  0.00  0.00    +0.031 A 
ENDROOT
BRANCH   1   7
ATOM      7  S   UNL     1      -0.000  -0.824  -1.437  0.00  0.00    +0.076 S 
ATOM      8  O   UNL     1      -0.531  -2.115  -1.167  0.00  0.00    -0.150 OA
ATOM      9  O   UNL     1      -0.572   0.049  -2.401  0.00  0.00    -0.150 OA
BRANCH   7  11
ATOM     10  C   UNL     1      -0.018   1.461   0.010  0.00  0.00    +0.159 C 
ATOM     11  N   UNL     1       0.002  -0.004   0.002  0.00  0.00    -0.189 N 
ATOM     12  C   UNL     1       0.023  -0.706   1.202  0.00  0.00    +0.140 A 
ATOM     13  C   UNL     1       0.019  -0.010   2.407  0.00  0.00    +0.045 A 
ATOM     14  C   UNL     1       0.040  -0.721   3.594  0.00  0.00    +0.005 A 
ATOM     15  C   UNL     1       0.064  -2.108   3.535  0.00  0.00    +0.020 A 
ATOM     16  C   UNL     1       0.067  -2.733   2.304  0.00  0.00    +0.113 A 
ATOM     17  N   UNL     1       0.041  -2.029   1.188  0.00  0.00    -0.239 NA
ENDBRANCH   7  11
ENDBRANCH   1   7
BRANCH   4  18
ATOM     18  N   UNL     1       5.633  -1.611  -3.005  0.00  0.00    -0.255 NA
ATOM     19  C   UNL     1       6.508  -2.017  -2.120  0.00  0.00    +0.125 C 
BRANCH  19  20
ATOM     20  C   UNL     1       7.861  -2.206  -2.496  0.00  0.00    +0.063 A 
ATOM     21  C   UNL     1       8.965  -2.662  -1.629  0.00  0.00    +0.028 A 
ATOM     22  C   UNL     1      10.107  -2.695  -2.444  0.00  0.00    +0.051 A 
ATOM     23  C   UNL     1      11.323  -3.094  -1.889  0.00  0.00    +0.028 A 
ATOM     24  C   UNL     1      11.425  -3.450  -0.582  0.00  0.00    +0.031 A 
ATOM     25  C   UNL     1      10.297  -3.431   0.272  0.00  0.00    +0.079 A 
ATOM     26  C   UNL     1       9.072  -3.026  -0.297  0.00  0.00    +0.049 A 
ATOM     27  S   UNL     1       7.965  -3.145   1.083  0.00  0.00    -0.075 S 
ATOM     28  C   UNL     1       9.077  -3.673   2.231  0.00  0.00    +0.157 A 
ATOM     29  N   UNL     1      10.201  -3.746   1.581  0.00  0.00    -0.247 NA
ATOM     30  N   UNL     1       9.736  -2.291  -3.714  0.00  0.00    -0.325 N 
ATOM     31  H   UNL     1      10.339  -2.224  -4.471  0.00  0.00    +0.169 HD
ATOM     32  C   UNL     1       8.408  -2.006  -3.754  0.00  0.00    +0.200 A 
BRANCH  32  33
ATOM     33  O   UNL     1       7.729  -1.589  -4.847  0.00  0.00    -0.493 OA
ATOM     34  H   UNL     1       7.708  -0.628  -4.954  0.00  0.00    +0.294 HD
ENDBRANCH  32  33
ENDBRANCH  19  20
ENDBRANCH   4  18
TORSDOF 5
