REMARK  Name = CHEMBL358057
REMARK  4 active torsions:
REMARK  status: ('A' for Active; 'I' for Inactive)
REMARK    1  A    between atoms: C_1  and  N_2
REMARK    2  A    between atoms: N_5  and  C_8
REMARK    3  A    between atoms: C_11  and  N_14
REMARK    4  A    between atoms: N_23  and  C_26
REMARK                            x       y       z     vdW  Elec       q    Type
REMARK                         _______ _______ _______ _____ _____    ______ ____
ROOT
ATOM      1  N   UNL     1      -2.318  -6.883   3.885  0.00  0.00    -0.284 N 
ATOM      2  C   UNL     1      -1.532  -7.396   4.899  0.00  0.00    +0.221 A 
ATOM      3  N   UNL     1      -0.384  -6.791   5.186  0.00  0.00    -0.222 NA
ATOM      4  C   UNL     1       0.405  -7.240   6.145  0.00  0.00    +0.126 A 
ATOM      5  C   UNL     1       0.005  -8.376   6.859  0.00  0.00    +0.036 A 
ATOM      6  C   UNL     1       0.816  -8.938   7.935  0.00  0.00    +0.018 A 
ATOM      7  C   UNL     1       0.356 -10.042   8.579  0.00  0.00    +0.071 A 
ATOM      8  C   UNL     1      -0.875 -10.618   8.206  0.00  0.00    +0.253 A 
ATOM      9  O   UNL     1      -1.270 -11.609   8.796  0.00  0.00    -0.268 OA
ATOM     10  N   UNL     1      -1.627 -10.105   7.216  0.00  0.00    -0.290 N 
ATOM     11  C   UNL     1      -1.221  -8.992   6.526  0.00  0.00    +0.149 A 
ATOM     12  N   UNL     1      -1.953  -8.469   5.551  0.00  0.00    -0.196 NA
ATOM     13  H   UNL     1      -3.197  -7.256   3.718  0.00  0.00    +0.155 HD
ENDROOT
BRANCH   1  17
ATOM     14  C   UNL     1      -0.911  -3.730   1.547  0.00  0.00    +0.030 A 
ATOM     15  C   UNL     1      -0.029  -4.695   2.014  0.00  0.00    +0.025 A 
ATOM     16  C   UNL     1      -0.495  -5.739   2.789  0.00  0.00    +0.025 A 
ATOM     17  C   UNL     1      -1.845  -5.824   3.100  0.00  0.00    +0.034 A 
ATOM     18  C   UNL     1      -2.728  -4.859   2.633  0.00  0.00    +0.025 A 
ATOM     19  C   UNL     1      -2.261  -3.811   1.864  0.00  0.00    +0.025 A 
BRANCH  14  24
ATOM     20  C   UNL     1       0.674  -0.986  -2.917  0.00  0.00    +0.105 C 
ATOM     21  N   UNL     1       0.368  -1.273  -1.509  0.00  0.00    -0.302 NA
ATOM     22  C   UNL     1       1.221  -2.353  -0.995  0.00  0.00    +0.103 C 
ATOM     23  C   UNL     1       1.000  -2.499   0.515  0.00  0.00    +0.120 C 
ATOM     24  N   UNL     1      -0.439  -2.672   0.762  0.00  0.00    -0.327 N 
ATOM     25  C   UNL     1      -1.369  -1.703   0.163  0.00  0.00    +0.120 C 
ATOM     26  C   UNL     1      -1.056  -1.589  -1.333  0.00  0.00    +0.103 C 
ENDBRANCH  14  24
ENDBRANCH   1  17
BRANCH  10  27
ATOM     27  C   UNL     1      -2.899 -10.744   6.869  0.00  0.00    +0.092 C 
ATOM     28  C   UNL     1      -3.815 -10.805   8.109  0.00  0.00    +0.025 C 
ATOM     29  C   UNL     1      -4.541 -12.167   7.979  0.00  0.00    +0.002 C 
ATOM     30  C   UNL     1      -3.432 -13.093   7.420  0.00  0.00    +0.002 C 
ATOM     31  C   UNL     1      -2.656 -12.199   6.431  0.00  0.00    +0.025 C 
ENDBRANCH  10  27
TORSDOF 3
