REMARK  Name = CHEMBL455467
REMARK  8 active torsions:
REMARK  status: ('A' for Active; 'I' for Inactive)
REMARK    1  A    between atoms: C_1  and  C_2
REMARK    2  A    between atoms: C_5  and  C_10
REMARK    3  A    between atoms: N_6  and  C_7
REMARK    4  A    between atoms: C_7  and  C_8
REMARK    5  A    between atoms: C_7  and  C_9
REMARK    6  A    between atoms: N_16  and  C_17
REMARK    7  A    between atoms: C_20  and  C_23
REMARK    8  A    between atoms: N_28  and  C_31
REMARK                            x       y       z     vdW  Elec       q    Type
REMARK                         _______ _______ _______ _____ _____    ______ ____
ROOT
ATOM      1  C   UNL     1       0.593  -2.920   1.445  0.00  0.00    +0.094 A 
ATOM      2  C   UNL     1       0.796  -2.775   2.824  0.00  0.00    +0.050 A 
ATOM      3  C   UNL     1       0.917  -3.915   3.595  0.00  0.00    +0.116 A 
ATOM      4  N   UNL     1       0.838  -5.102   3.014  0.00  0.00    -0.223 NA
ATOM      5  C   UNL     1       0.646  -5.212   1.707  0.00  0.00    +0.220 A 
ATOM      6  N   UNL     1       0.519  -4.148   0.931  0.00  0.00    -0.213 NA
ATOM      7  N   UNL     1       0.569  -6.474   1.140  0.00  0.00    -0.284 N 
ATOM      8  H   UNL     1       0.509  -6.571   0.177  0.00  0.00    +0.155 HD
ENDROOT
BRANCH   1  13
ATOM      9  C   UNL     1       0.481   1.838  -0.210  0.00  0.00    +0.084 C 
ATOM     10  C   UNL     1       0.406   0.334  -0.150  0.00  0.00    +0.084 A 
ATOM     11  N   UNL     1       0.121  -0.452  -1.154  0.00  0.00    -0.349 N 
ATOM     12  C   UNL     1       0.142  -1.724  -0.748  0.00  0.00    +0.112 A 
ATOM     13  C   UNL     1       0.457  -1.734   0.578  0.00  0.00    +0.085 A 
ATOM     14  N   UNL     1       0.628  -0.417   0.947  0.00  0.00    -0.326 N 
ATOM     15  H   UNL     1      -0.077  -0.156  -2.057  0.00  0.00    +0.166 HD
BRANCH  14  16
ATOM     16  C   UNL     1       0.981   0.073   2.282  0.00  0.00    +0.083 C 
ATOM     17  C   UNL     1       2.421  -0.330   2.609  0.00  0.00    +0.030 C 
ATOM     18  C   UNL     1       0.859   1.598   2.313  0.00  0.00    +0.030 C 
ENDBRANCH  14  16
ENDBRANCH   1  13
BRANCH   7  19
ATOM     19  C   UNL     1       0.579  -7.605   1.953  0.00  0.00    +0.034 A 
ATOM     20  C   UNL     1       1.208  -8.768   1.518  0.00  0.00    +0.024 A 
ATOM     21  C   UNL     1       1.219  -9.887   2.319  0.00  0.00    +0.015 A 
ATOM     22  C   UNL     1       0.599  -9.854   3.571  0.00  0.00    +0.037 A 
ATOM     23  C   UNL     1      -0.032  -8.685   4.005  0.00  0.00    +0.015 A 
ATOM     24  C   UNL     1      -0.035  -7.567   3.202  0.00  0.00    +0.024 A 
BRANCH  22  25
ATOM     25  C   UNL     1       0.609 -11.053   4.432  0.00  0.00    +0.247 C 
ATOM     26  O   UNL     1       1.583 -11.780   4.452  0.00  0.00    -0.270 OA
ATOM     27  N   UNL     1      -0.463 -11.341   5.197  0.00  0.00    -0.295 N 
ATOM     28  C   UNL     1      -1.702 -10.556   5.089  0.00  0.00    +0.123 C 
ATOM     29  C   UNL     1      -2.875 -11.523   4.898  0.00  0.00    +0.103 C 
ATOM     30  N   UNL     1      -2.864 -12.520   5.977  0.00  0.00    -0.302 NA
ATOM     31  C   UNL     1      -1.648 -13.342   5.931  0.00  0.00    +0.103 C 
ATOM     32  C   UNL     1      -0.426 -12.453   6.159  0.00  0.00    +0.123 C 
ATOM     33  C   UNL     1      -4.069 -13.360   5.929  0.00  0.00    +0.105 C 
ENDBRANCH  22  25
ENDBRANCH   7  19
TORSDOF 4
