REMARK  Name = CHEMBL372467
REMARK  6 active torsions:
REMARK  status: ('A' for Active; 'I' for Inactive)
REMARK    1  A    between atoms: C_1  and  C_2
REMARK    2  A    between atoms: C_2  and  C_3
REMARK    3  A    between atoms: C_2  and  C_16
REMARK    4  A    between atoms: C_6  and  N_9
REMARK    5  A    between atoms: N_18  and  C_19
REMARK    6  A    between atoms: C_21  and  C_25
REMARK                            x       y       z     vdW  Elec       q    Type
REMARK                         _______ _______ _______ _____ _____    ______ ____
ROOT
ATOM      1  C   UNL     1       0.005   1.526   0.024  0.00  0.00    +0.022 C 
ATOM      2  C   UNL     1       0.002  -0.004   0.002  0.00  0.00    +0.102 C 
ENDROOT
BRANCH   2   3
ATOM      3  C   UNL     1       0.708  -0.490  -1.238  0.00  0.00    -0.036 A 
ATOM      4  C   UNL     1       2.033  -0.159  -1.452  0.00  0.00    +0.006 A 
ATOM      5  C   UNL     1       2.682  -0.603  -2.588  0.00  0.00    +0.024 A 
ATOM      6  C   UNL     1       2.002  -1.382  -3.514  0.00  0.00    +0.045 A 
ATOM      7  C   UNL     1       0.672  -1.713  -3.296  0.00  0.00    +0.024 A 
ATOM      8  C   UNL     1       0.030  -1.271  -2.156  0.00  0.00    +0.006 A 
BRANCH   6   9
ATOM      9  N   UNL     1       2.658  -1.833  -4.668  0.00  0.00    -0.193 N 
ATOM     10  C   UNL     1       2.117  -2.682  -5.564  0.00  0.00    +0.245 C 
ATOM     11  O   UNL     1       1.012  -3.181  -5.525  0.00  0.00    -0.273 OA
ATOM     12  C   UNL     1       3.175  -2.884  -6.630  0.00  0.00    +0.202 C 
ATOM     13  N   UNL     1       4.295  -2.046  -6.168  0.00  0.00    -0.290 N 
ATOM     14  C   UNL     1       3.897  -1.470  -5.019  0.00  0.00    +0.313 C 
ATOM     15  O   UNL     1       4.587  -0.707  -4.371  0.00  0.00    -0.252 OA
ATOM     16  H   UNL     1       5.152  -1.930  -6.608  0.00  0.00    +0.151 HD
ENDBRANCH   6   9
ENDBRANCH   2   3
BRANCH   2  17
ATOM     17  C   UNL     1       0.716  -0.525   1.223  0.00  0.00    +0.225 C 
ATOM     18  O   UNL     1       1.700  -1.223   1.098  0.00  0.00    -0.275 OA
ATOM     19  N   UNL     1       0.260  -0.216   2.453  0.00  0.00    -0.270 N 
ATOM     20  H   UNL     1      -0.527   0.342   2.553  0.00  0.00    +0.156 HD
BRANCH  19  21
ATOM     21  C   UNL     1       0.920  -0.699   3.583  0.00  0.00    +0.121 A 
ATOM     22  C   UNL     1       2.030  -1.487   3.591  0.00  0.00    +0.068 A 
ATOM     23  C   UNL     1       2.366  -1.740   4.923  0.00  0.00    +0.068 A 
ATOM     24  N   UNL     1       1.497  -1.131   5.689  0.00  0.00    -0.177 NA
ATOM     25  H   UNL     1      -0.173   0.071   5.172  0.00  0.00    +0.190 HD
ATOM     26  N   UNL     1       0.578  -0.463   4.870  0.00  0.00    -0.264 N 
BRANCH  23  27
ATOM     27  C   UNL     1       3.530  -2.572   5.397  0.00  0.00    +0.040 C 
ATOM     28  C   UNL     1       4.194  -3.502   4.380  0.00  0.00    +0.010 C 
ATOM     29  C   UNL     1       3.323  -4.085   5.495  0.00  0.00    +0.010 C 
ENDBRANCH  23  27
ENDBRANCH  19  21
ENDBRANCH   2  17
TORSDOF 5
