REMARK  Name = CHEMBL345525
REMARK  6 active torsions:
REMARK  status: ('A' for Active; 'I' for Inactive)
REMARK    1  A    between atoms: C_1  and  N_2
REMARK    2  A    between atoms: N_5  and  N_8
REMARK    3  A    between atoms: N_11  and  C_12
REMARK    4  A    between atoms: C_25  and  C_26
REMARK    5  A    between atoms: C_29  and  O_32
REMARK    6  A    between atoms: O_32  and  C_33
REMARK                            x       y       z     vdW  Elec       q    Type
REMARK                         _______ _______ _______ _____ _____    ______ ____
ROOT
ATOM      1  C   UNL     1      -2.366  -4.744   4.014  0.00  0.00    +0.046 A 
ATOM      2  C   UNL     1      -2.313  -6.134   3.973  0.00  0.00    +0.024 A 
ATOM      3  C   UNL     1      -2.955  -6.882   4.938  0.00  0.00    +0.002 A 
ATOM      4  C   UNL     1      -3.658  -6.261   5.957  0.00  0.00    +0.011 A 
ATOM      5  C   UNL     1      -3.725  -4.876   6.019  0.00  0.00    +0.015 A 
ATOM      6  C   UNL     1      -3.069  -4.104   5.043  0.00  0.00    +0.053 A 
ATOM      7  C   UNL     1      -3.287  -2.674   5.338  0.00  0.00    +0.200 C 
ATOM      8  O   UNL     1      -2.864  -1.735   4.691  0.00  0.00    -0.286 OA
ATOM      9  C   UNL     1      -4.109  -2.590   6.553  0.00  0.00    +0.075 A 
ATOM     10  C   UNL     1      -4.393  -3.963   6.979  0.00  0.00    +0.105 A 
ATOM     11  N   UNL     1      -5.129  -3.891   8.060  0.00  0.00    -0.173 NA
ATOM     12  N   UNL     1      -5.367  -2.550   8.376  0.00  0.00    -0.276 N 
ATOM     13  H   UNL     1      -5.886  -2.235   9.132  0.00  0.00    +0.189 HD
ATOM     14  C   UNL     1      -4.737  -1.754   7.467  0.00  0.00    +0.077 A 
ENDROOT
BRANCH   1  18
ATOM     15  N   UNL     1      -0.108  -3.829   1.355  0.00  0.00    -0.232 N 
ATOM     16  C   UNL     1      -0.665  -4.511   2.376  0.00  0.00    +0.318 C 
ATOM     17  O   UNL     1      -0.217  -5.594   2.699  0.00  0.00    -0.251 OA
ATOM     18  N   UNL     1      -1.717  -3.992   3.039  0.00  0.00    -0.268 N 
ATOM     19  H   UNL     1       0.649  -4.203   0.879  0.00  0.00    +0.171 HD
ATOM     20  H   UNL     1      -2.023  -3.094   2.836  0.00  0.00    +0.156 HD
BRANCH  15  25
ATOM     21  C   UNL     1      -1.248   1.098  -0.924  0.00  0.00    +0.105 C 
ATOM     22  N   UNL     1      -0.708  -0.211  -0.534  0.00  0.00    -0.303 NA
ATOM     23  C   UNL     1      -1.700  -1.274  -0.745  0.00  0.00    +0.101 C 
ATOM     24  C   UNL     1      -1.073  -2.628  -0.402  0.00  0.00    +0.121 C 
ATOM     25  N   UNL     1      -0.611  -2.612   0.993  0.00  0.00    -0.223 NA
ATOM     26  C   UNL     1       0.381  -1.548   1.203  0.00  0.00    +0.121 C 
ATOM     27  C   UNL     1      -0.245  -0.195   0.861  0.00  0.00    +0.101 C 
ENDBRANCH  15  25
ENDBRANCH   1  18
BRANCH  14  28
ATOM     28  C   UNL     1      -4.741  -0.279   7.444  0.00  0.00    +0.001 A 
ATOM     29  C   UNL     1      -3.556   0.421   7.198  0.00  0.00    +0.013 A 
ATOM     30  C   UNL     1      -3.564   1.799   7.178  0.00  0.00    +0.046 A 
ATOM     31  C   UNL     1      -4.747   2.492   7.402  0.00  0.00    +0.120 A 
ATOM     32  C   UNL     1      -5.927   1.800   7.648  0.00  0.00    +0.046 A 
ATOM     33  C   UNL     1      -5.929   0.422   7.663  0.00  0.00    +0.013 A 
BRANCH  31  34
ATOM     34  O   UNL     1      -4.751   3.850   7.382  0.00  0.00    -0.495 OA
ATOM     35  C   UNL     1      -6.001   4.499   7.621  0.00  0.00    +0.277 C 
ENDBRANCH  31  34
ENDBRANCH  14  28
TORSDOF 4
