REMARK  Name = CHEMBL14593
REMARK  5 active torsions:
REMARK  status: ('A' for Active; 'I' for Inactive)
REMARK    1  A    between atoms: C_4  and  C_7
REMARK    2  A    between atoms: C_7  and  O_8
REMARK    3  A    between atoms: O_8  and  C_9
REMARK    4  A    between atoms: C_10  and  C_18
REMARK    5  A    between atoms: C_18  and  C_20
REMARK                            x       y       z     vdW  Elec       q    Type
REMARK                         _______ _______ _______ _____ _____    ______ ____
ROOT
ATOM      1  C   UNL     1       4.974  -1.452   1.331  0.00  0.00    +0.145 A 
ATOM      2  C   UNL     1       5.226  -2.827   1.473  0.00  0.00    +0.083 A 
ATOM      3  C   UNL     1       6.550  -3.263   1.629  0.00  0.00    +0.128 A 
ATOM      4  N   UNL     1       7.551  -2.417   1.644  0.00  0.00    -0.235 NA
ATOM      5  C   UNL     1       7.370  -1.104   1.514  0.00  0.00    +0.159 A 
ATOM      6  N   UNL     1       8.225  -0.040   1.498  0.00  0.00    -0.260 N 
ATOM      7  N   UNL     1       7.493   1.139   1.330  0.00  0.00    -0.180 NA
ATOM      8  C   UNL     1       6.222   0.867   1.240  0.00  0.00    +0.148 A 
ATOM      9  C   UNL     1       6.074  -0.580   1.347  0.00  0.00    +0.081 A 
ATOM     10  H   UNL     1       9.189  -0.094   1.588  0.00  0.00    +0.191 HD
ENDROOT
BRANCH   2  11
ATOM     11  C   UNL     1       4.117  -3.796   1.460  0.00  0.00    +0.198 C 
ATOM     12  O   UNL     1       3.920  -4.480   0.474  0.00  0.00    -0.286 OA
BRANCH  11  13
ATOM     13  C   UNL     1       3.244  -3.936   2.644  0.00  0.00    +0.022 A 
ATOM     14  C   UNL     1       2.128  -4.774   2.597  0.00  0.00    +0.012 A 
ATOM     15  C   UNL     1       1.318  -4.900   3.706  0.00  0.00    +0.001 A 
ATOM     16  C   UNL     1       1.609  -4.199   4.863  0.00  0.00    +0.000 A 
ATOM     17  C   UNL     1       2.713  -3.367   4.917  0.00  0.00    +0.001 A 
ATOM     18  C   UNL     1       3.536  -3.236   3.817  0.00  0.00    +0.012 A 
ENDBRANCH  11  13
ENDBRANCH   2  11
BRANCH   1  19
ATOM     19  O   UNL     1       3.713  -0.985   1.178  0.00  0.00    -0.486 OA
BRANCH  19  20
ATOM     20  C   UNL     1       3.219  -0.877  -0.158  0.00  0.00    +0.264 C 
BRANCH  20  24
ATOM     21  C   UNL     1      -0.775   0.636  -0.084  0.00  0.00    +0.000 A 
ATOM     22  C   UNL     1       0.293   1.510  -0.161  0.00  0.00    +0.000 A 
ATOM     23  C   UNL     1       1.586   1.020  -0.184  0.00  0.00    +0.007 A 
ATOM     24  C   UNL     1       1.810  -0.343  -0.131  0.00  0.00    -0.010 A 
ATOM     25  C   UNL     1       0.741  -1.216  -0.054  0.00  0.00    +0.007 A 
ATOM     26  C   UNL     1      -0.551  -0.727  -0.031  0.00  0.00    +0.000 A 
ENDBRANCH  20  24
ENDBRANCH  19  20
ENDBRANCH   1  19
TORSDOF 5
