REMARK  Name = CHEMBL135029
REMARK  4 active torsions:
REMARK  status: ('A' for Active; 'I' for Inactive)
REMARK    1  A    between atoms: C_6  and  C_7
REMARK    2  A    between atoms: C_12  and  C_17
REMARK    3  A    between atoms: C_13  and  O_16
REMARK    4  A    between atoms: N_18  and  C_19
REMARK                            x       y       z     vdW  Elec       q    Type
REMARK                         _______ _______ _______ _____ _____    ______ ____
ROOT
ATOM      1  C   UNL     1      -0.017   1.395   0.010  0.00  0.00    +0.013 A 
ATOM      2  C   UNL     1       1.159   2.109   0.002  0.00  0.00    +0.027 A 
ATOM      3  C   UNL     1       2.381   1.444  -0.013  0.00  0.00    +0.050 A 
ATOM      4  C   UNL     1       2.406   0.039  -0.021  0.00  0.00    +0.013 A 
ATOM      5  C   UNL     1       1.218  -0.682  -0.013  0.00  0.00    +0.022 A 
ATOM      6  C   UNL     1       0.002  -0.004   0.002  0.00  0.00    +0.020 A 
ATOM      7  C   UNL     1       3.831  -0.346  -0.037  0.00  0.00    +0.062 A 
ATOM      8  C   UNL     1       4.552   0.838  -0.037  0.00  0.00    +0.200 A 
ATOM      9  N   UNL     1       3.691   1.889  -0.023  0.00  0.00    -0.325 N 
ATOM     10  H   UNL     1       3.958   2.822  -0.021  0.00  0.00    +0.169 HD
ENDROOT
BRANCH   6  11
ATOM     11  C   UNL     1      -1.268  -0.761   0.011  0.00  0.00    +0.155 A 
ATOM     12  C   UNL     1      -2.521  -0.239   0.020  0.00  0.00    +0.160 A 
ATOM     13  N   UNL     1      -3.386  -1.265   0.025  0.00  0.00    -0.224 NA
ATOM     14  C   UNL     1      -2.715  -2.383   0.019  0.00  0.00    +0.308 A 
ATOM     15  O   UNL     1      -1.404  -2.106   0.004  0.00  0.00    -0.442 OA
ENDBRANCH   6  11
BRANCH   8  16
ATOM     16  O   UNL     1       5.901   0.932  -0.050  0.00  0.00    -0.493 OA
ATOM     17  H   UNL     1       6.285   0.964  -0.937  0.00  0.00    +0.294 HD
ENDBRANCH   8  16
BRANCH   7  18
ATOM     18  C   UNL     1       4.356  -1.661  -0.049  0.00  0.00    +0.125 C 
ATOM     19  N   UNL     1       5.652  -1.849  -0.062  0.00  0.00    -0.255 NA
BRANCH  19  20
ATOM     20  C   UNL     1       6.159  -3.119  -0.074  0.00  0.00    +0.064 A 
ATOM     21  C   UNL     1       5.635  -4.098   0.774  0.00  0.00    +0.028 A 
ATOM     22  C   UNL     1       6.160  -5.365   0.745  0.00  0.00    +0.007 A 
ATOM     23  C   UNL     1       7.212  -5.702  -0.116  0.00  0.00    -0.022 A 
ATOM     24  C   UNL     1       7.733  -4.743  -0.954  0.00  0.00    -0.020 A 
ATOM     25  C   UNL     1       7.199  -3.454  -0.933  0.00  0.00    +0.033 A 
ATOM     26  C   UNL     1       8.879  -5.177  -1.869  0.00  0.00    +0.201 C 
ATOM     27  S   UNL     1       9.405  -6.760  -1.094  0.00  0.00    -0.023 S 
ATOM     28  O   UNL     1       9.589  -7.742  -2.104  0.00  0.00    -0.174 OA
ATOM     29  O   UNL     1      10.443  -6.505  -0.158  0.00  0.00    -0.174 OA
ATOM     30  C   UNL     1       7.837  -7.096  -0.193  0.00  0.00    +0.201 C 
ENDBRANCH  19  20
ENDBRANCH   7  18
TORSDOF 4
