REMARK  Name = CHEMBL378584
REMARK  2 active torsions:
REMARK  status: ('A' for Active; 'I' for Inactive)
REMARK    1  A    between atoms: C_4  and  C_7
REMARK    2  A    between atoms: C_7  and  C_8
REMARK                            x       y       z     vdW  Elec       q    Type
REMARK                         _______ _______ _______ _____ _____    ______ ____
ROOT
ATOM      1  C   UNL     1       4.164  -0.959   1.377  0.00  0.00    +0.223 C 
ATOM      2  O   UNL     1       3.486  -0.579   2.308  0.00  0.00    -0.275 OA
ATOM      3  N   UNL     1       5.323  -1.607   1.608  0.00  0.00    -0.268 N 
ATOM      4  C   UNL     1       5.745  -1.842   2.924  0.00  0.00    +0.152 A 
ATOM      5  C   UNL     1       6.929  -2.498   3.308  0.00  0.00    +0.034 A 
ATOM      6  C   UNL     1       6.971  -2.521   4.657  0.00  0.00    +0.060 A 
ATOM      7  N   UNL     1       5.858  -1.906   5.117  0.00  0.00    -0.278 N 
ATOM      8  N   UNL     1       5.107  -1.484   4.013  0.00  0.00    -0.158 NA
ATOM      9  H   UNL     1       5.623  -1.776   6.049  0.00  0.00    +0.189 HD
ATOM     10  C   UNL     1       8.230  -3.218   5.106  0.00  0.00    +0.164 C 
ATOM     11  N   UNL     1       8.963  -3.623   3.901  0.00  0.00    -0.276 N 
ATOM     12  C   UNL     1       8.158  -3.177   2.759  0.00  0.00    +0.150 C 
ATOM     13  C   UNL     1      10.142  -4.275   3.853  0.00  0.00    +0.300 C 
ATOM     14  O   UNL     1      10.642  -4.550   2.780  0.00  0.00    -0.253 OA
ATOM     15  N   UNL     1      10.767  -4.621   4.996  0.00  0.00    -0.313 N 
ATOM     16  H   UNL     1       5.866  -1.911   0.864  0.00  0.00    +0.156 HD
ATOM     17  H   UNL     1      10.369  -4.401   5.853  0.00  0.00    +0.146 HD
ATOM     18  H   UNL     1      11.616  -5.090   4.962  0.00  0.00    +0.146 HD
ENDROOT
BRANCH   1  19
ATOM     19  C   UNL     1       3.711  -0.707  -0.038  0.00  0.00    +0.131 C 
BRANCH  19  23
ATOM     20  C   UNL     1      -0.017   1.378   0.010  0.00  0.00    +0.000 A 
ATOM     21  C   UNL     1       1.171   2.086   0.002  0.00  0.00    +0.000 A 
ATOM     22  C   UNL     1       2.377   1.411  -0.013  0.00  0.00    +0.004 A 
ATOM     23  C   UNL     1       2.396   0.029  -0.020  0.00  0.00    -0.039 A 
ATOM     24  C   UNL     1       1.208  -0.679  -0.012  0.00  0.00    +0.004 A 
ATOM     25  C   UNL     1       0.002  -0.004   0.002  0.00  0.00    +0.000 A 
ENDBRANCH  19  23
ENDBRANCH   1  19
TORSDOF 2
