REMARK  Name = CHEMBL186661
REMARK  8 active torsions:
REMARK  status: ('A' for Active; 'I' for Inactive)
REMARK    1  A    between atoms: C_1  and  O_2
REMARK    2  A    between atoms: O_2  and  C_3
REMARK    3  A    between atoms: C_6  and  C_9
REMARK    4  A    between atoms: C_19  and  N_23
REMARK    5  A    between atoms: N_26  and  N_27
REMARK    6  A    between atoms: C_28  and  C_30
REMARK    7  A    between atoms: C_33  and  O_36
REMARK    8  A    between atoms: O_36  and  C_37
REMARK                            x       y       z     vdW  Elec       q    Type
REMARK                         _______ _______ _______ _____ _____    ______ ____
ROOT
ATOM      1  C   UNL     1       2.487  -2.506  -4.391  0.00  0.00    +0.104 A 
ATOM      2  C   UNL     1       3.221  -3.716  -4.347  0.00  0.00    +0.075 A 
ATOM      3  C   UNL     1       3.655  -3.982  -5.639  0.00  0.00    +0.078 A 
ATOM      4  N   UNL     1       3.205  -2.982  -6.427  0.00  0.00    -0.276 N 
ATOM      5  H   UNL     1       3.356  -2.902  -7.382  0.00  0.00    +0.189 HD
ATOM      6  N   UNL     1       2.480  -2.082  -5.638  0.00  0.00    -0.173 NA
ATOM      7  C   UNL     1       4.431  -5.245  -5.634  0.00  0.00    +0.013 A 
ATOM      8  C   UNL     1       5.073  -5.944  -6.645  0.00  0.00    +0.011 A 
ATOM      9  C   UNL     1       5.742  -7.128  -6.360  0.00  0.00    +0.002 A 
ATOM     10  C   UNL     1       5.777  -7.620  -5.074  0.00  0.00    +0.024 A 
ATOM     11  C   UNL     1       5.136  -6.932  -4.041  0.00  0.00    +0.046 A 
ATOM     12  C   UNL     1       4.462  -5.743  -4.318  0.00  0.00    +0.053 A 
ATOM     13  C   UNL     1       3.703  -4.799  -3.467  0.00  0.00    +0.200 C 
ATOM     14  O   UNL     1       3.514  -4.897  -2.271  0.00  0.00    -0.286 OA
ENDROOT
BRANCH   1  18
ATOM     15  C   UNL     1       0.617  -0.592  -1.086  0.00  0.00    +0.120 A 
ATOM     16  C   UNL     1       1.179   0.171  -2.102  0.00  0.00    +0.046 A 
ATOM     17  C   UNL     1       1.786  -0.447  -3.175  0.00  0.00    +0.013 A 
ATOM     18  C   UNL     1       1.835  -1.839  -3.239  0.00  0.00    +0.003 A 
ATOM     19  C   UNL     1       1.271  -2.602  -2.217  0.00  0.00    +0.013 A 
ATOM     20  C   UNL     1       0.670  -1.978  -1.144  0.00  0.00    +0.046 A 
BRANCH  15  22
ATOM     21  C   UNL     1       0.001   1.449  -0.034  0.00  0.00    +0.277 C 
ATOM     22  O   UNL     1       0.020   0.020  -0.030  0.00  0.00    -0.495 OA
ENDBRANCH  15  22
ENDBRANCH   1  18
BRANCH  11  23
ATOM     23  N   UNL     1       5.171  -7.429  -2.743  0.00  0.00    -0.268 N 
ATOM     24  C   UNL     1       6.176  -8.242  -2.359  0.00  0.00    +0.320 C 
ATOM     25  O   UNL     1       7.105  -8.458  -3.114  0.00  0.00    -0.251 OA
ATOM     26  N   UNL     1       6.151  -8.815  -1.140  0.00  0.00    -0.218 N 
ATOM     27  H   UNL     1       4.473  -7.192  -2.114  0.00  0.00    +0.156 HD
ATOM     28  H   UNL     1       6.874  -9.399  -0.864  0.00  0.00    +0.174 HD
BRANCH  26  29
ATOM     29  N   UNL     1       5.080  -8.566  -0.271  0.00  0.00    -0.229 N 
ATOM     30  C   UNL     1       5.055  -9.139   0.949  0.00  0.00    +0.260 C 
ATOM     31  O   UNL     1       5.962  -9.872   1.295  0.00  0.00    -0.269 OA
ATOM     32  H   UNL     1       4.357  -7.981  -0.547  0.00  0.00    +0.173 HD
BRANCH  30  33
ATOM     33  C   UNL     1       3.928  -8.877   1.865  0.00  0.00    +0.038 A 
ATOM     34  C   UNL     1       2.882  -8.040   1.466  0.00  0.00    +0.016 A 
ATOM     35  C   UNL     1       1.832  -7.798   2.324  0.00  0.00    +0.046 A 
ATOM     36  C   UNL     1       1.811  -8.385   3.583  0.00  0.00    +0.120 A 
ATOM     37  C   UNL     1       2.849  -9.218   3.983  0.00  0.00    +0.046 A 
ATOM     38  C   UNL     1       3.900  -9.470   3.129  0.00  0.00    +0.016 A 
BRANCH  36  39
ATOM     39  O   UNL     1       0.774  -8.144   4.425  0.00  0.00    -0.495 OA
ATOM     40  C   UNL     1       0.816  -8.780   5.704  0.00  0.00    +0.277 C 
ENDBRANCH  36  39
ENDBRANCH  30  33
ENDBRANCH  26  29
ENDBRANCH  11  23
TORSDOF 6
