REMARK  Name = CHEMBL424696
REMARK  3 active torsions:
REMARK  status: ('A' for Active; 'I' for Inactive)
REMARK    1  A    between atoms: C_11  and  C_13
REMARK    2  A    between atoms: C_17  and  O_19
REMARK    3  A    between atoms: O_19  and  C_20
REMARK                            x       y       z     vdW  Elec       q    Type
REMARK                         _______ _______ _______ _____ _____    ______ ____
ROOT
ATOM      1  C   UNL     1       2.369   1.437  -0.015  0.00  0.00    +0.005 A 
ATOM      2  C   UNL     1       1.126   2.057  -0.006  0.00  0.00    +0.020 A 
ATOM      3  C   UNL     1      -0.016   1.281  -0.003  0.00  0.00    +0.113 A 
ATOM      4  N   UNL     1       0.061  -0.036  -0.008  0.00  0.00    -0.240 NA
ATOM      5  C   UNL     1       1.226  -0.664  -0.017  0.00  0.00    +0.124 A 
ATOM      6  C   UNL     1       2.417   0.055  -0.020  0.00  0.00    +0.044 A 
ATOM      7  N   UNL     1       1.260  -2.055  -0.021  0.00  0.00    -0.279 N 
ATOM      8  C   UNL     1       0.085  -2.776   0.090  0.00  0.00    +0.164 A 
ATOM      9  N   UNL     1      -1.154  -2.323   0.116  0.00  0.00    -0.232 NA
ATOM     10  C   UNL     1      -2.177  -3.139   0.227  0.00  0.00    +0.130 A 
ATOM     11  C   UNL     1      -1.892  -4.478   0.314  0.00  0.00    +0.059 A 
ATOM     12  S   UNL     1      -0.109  -4.443   0.219  0.00  0.00    -0.051 S 
ATOM     13  H   UNL     1       2.108  -2.519  -0.103  0.00  0.00    +0.155 HD
ENDROOT
BRANCH  11  14
ATOM     14  C   UNL     1      -2.804  -5.628   0.445  0.00  0.00    +0.086 A 
ATOM     15  C   UNL     1      -2.299  -6.933   0.525  0.00  0.00    +0.049 A 
ATOM     16  C   UNL     1      -3.194  -7.977   0.647  0.00  0.00    +0.118 A 
ATOM     17  N   UNL     1      -4.493  -7.717   0.684  0.00  0.00    -0.203 NA
ATOM     18  C   UNL     1      -4.944  -6.475   0.607  0.00  0.00    +0.319 A 
ATOM     19  N   UNL     1      -4.125  -5.444   0.495  0.00  0.00    -0.194 NA
BRANCH  18  20
ATOM     20  O   UNL     1      -6.280  -6.255   0.649  0.00  0.00    -0.459 OA
BRANCH  20  21
ATOM     21  C   UNL     1      -7.123  -7.401   0.777  0.00  0.00    +0.177 C 
ATOM     22  C   UNL     1      -7.487  -7.923  -0.615  0.00  0.00    +0.044 C 
ATOM     23  C   UNL     1      -8.390  -9.151  -0.478  0.00  0.00    +0.004 C 
ATOM     24  C   UNL     1      -9.666  -8.765   0.272  0.00  0.00    +0.000 C 
ATOM     25  C   UNL     1      -9.302  -8.243   1.664  0.00  0.00    +0.004 C 
ATOM     26  C   UNL     1      -8.399  -7.016   1.527  0.00  0.00    +0.044 C 
ENDBRANCH  20  21
ENDBRANCH  18  20
ENDBRANCH  11  14
TORSDOF 3
