REMARK  Name = CHEMBL261720
REMARK  6 active torsions:
REMARK  status: ('A' for Active; 'I' for Inactive)
REMARK    1  A    between atoms: C_4  and  N_8
REMARK    2  A    between atoms: N_8  and  C_9
REMARK    3  A    between atoms: C_9  and  N_11
REMARK    4  A    between atoms: N_16  and  C_17
REMARK    5  A    between atoms: C_20  and  S_23
REMARK    6  A    between atoms: S_23  and  N_26
REMARK                            x       y       z     vdW  Elec       q    Type
REMARK                         _______ _______ _______ _____ _____    ______ ____
ROOT
ATOM      1  N   UNL     1       4.910  -2.664   0.289  0.00  0.00    -0.177 N 
ATOM      2  C   UNL     1       5.157  -3.978   0.555  0.00  0.00    +0.219 A 
ATOM      3  N   UNL     1       6.461  -4.141   0.594  0.00  0.00    -0.180 NA
ATOM      4  C   UNL     1       7.070  -2.973   0.360  0.00  0.00    +0.241 A 
ATOM      5  N   UNL     1       6.164  -2.046   0.162  0.00  0.00    -0.126 NA
ATOM      6  N   UNL     1       8.449  -2.774   0.325  0.00  0.00    -0.282 N 
ATOM      7  N   UNL     1       4.207  -4.960   0.751  0.00  0.00    -0.327 N 
ATOM      8  H   UNL     1       8.808  -1.877   0.229  0.00  0.00    +0.155 HD
ATOM      9  H   UNL     1       3.267  -4.726   0.783  0.00  0.00    +0.145 HD
ATOM     10  H   UNL     1       4.481  -5.885   0.857  0.00  0.00    +0.145 HD
ENDROOT
BRANCH   6  11
ATOM     11  C   UNL     1       9.316  -3.865   0.428  0.00  0.00    +0.034 A 
ATOM     12  C   UNL     1       8.943  -5.101  -0.088  0.00  0.00    +0.025 A 
ATOM     13  C   UNL     1       9.802  -6.177   0.016  0.00  0.00    +0.030 A 
ATOM     14  C   UNL     1      11.031  -6.027   0.631  0.00  0.00    +0.105 A 
ATOM     15  C   UNL     1      11.404  -4.799   1.146  0.00  0.00    +0.030 A 
ATOM     16  C   UNL     1      10.553  -3.717   1.040  0.00  0.00    +0.025 A 
BRANCH  14  17
ATOM     17  S   UNL     1      12.123  -7.404   0.761  0.00  0.00    +0.056 S 
ATOM     18  O   UNL     1      12.981  -7.139   1.862  0.00  0.00    -0.153 OA
ATOM     19  O   UNL     1      11.316  -8.571   0.688  0.00  0.00    -0.153 OA
BRANCH  17  20
ATOM     20  N   UNL     1      13.076  -7.402  -0.593  0.00  0.00    -0.204 NA
ATOM     21  H   UNL     1      13.978  -7.755  -0.552  0.00  0.00    +0.144 HD
ATOM     22  H   UNL     1      12.731  -7.048  -1.428  0.00  0.00    +0.144 HD
ENDBRANCH  17  20
ENDBRANCH  14  17
ENDBRANCH   6  11
BRANCH   1  23
ATOM     23  C   UNL     1       3.703  -2.077   0.165  0.00  0.00    +0.174 C 
ATOM     24  S   UNL     1       2.278  -2.976   0.473  0.00  0.00    -0.014 S 
BRANCH  23  25
ATOM     25  N   UNL     1       3.617  -0.783  -0.201  0.00  0.00    -0.289 N 
ATOM     26  H   UNL     1       4.421  -0.289  -0.426  0.00  0.00    +0.154 HD
BRANCH  25  30
ATOM     27  C   UNL     1      -0.103   1.096  -0.367  0.00  0.00    +0.006 A 
ATOM     28  C   UNL     1       0.194   0.245   0.682  0.00  0.00    +0.040 A 
ATOM     29  C   UNL     1       1.426  -0.380   0.740  0.00  0.00    +0.147 A 
ATOM     30  C   UNL     1       2.367  -0.152  -0.257  0.00  0.00    +0.104 A 
ATOM     31  C   UNL     1       2.065   0.704  -1.310  0.00  0.00    +0.147 A 
ATOM     32  C   UNL     1       0.831   1.325  -1.361  0.00  0.00    +0.040 A 
ATOM     33  F   UNL     1       2.977   0.929  -2.282  0.00  0.00    -0.203 F 
ATOM     34  F   UNL     1       1.716  -1.211   1.766  0.00  0.00    -0.203 F 
ENDBRANCH  25  30
ENDBRANCH  23  25
ENDBRANCH   1  23
TORSDOF 6
