REMARK  Name = CHEMBL430703
REMARK  5 active torsions:
REMARK  status: ('A' for Active; 'I' for Inactive)
REMARK    1  A    between atoms: C_1  and  C_2
REMARK    2  A    between atoms: C_2  and  C_3
REMARK    3  A    between atoms: C_2  and  C_4
REMARK    4  A    between atoms: C_6  and  N_10
REMARK    5  A    between atoms: C_11  and  C_13
REMARK                            x       y       z     vdW  Elec       q    Type
REMARK                         _______ _______ _______ _____ _____    ______ ____
ROOT
ATOM      1  N   UNL     1      -4.488  -1.524   1.561  0.00  0.00    -0.267 N 
ATOM      2  C   UNL     1      -4.390  -1.368   2.896  0.00  0.00    +0.249 C 
ATOM      3  O   UNL     1      -3.360  -0.944   3.384  0.00  0.00    -0.270 OA
ATOM      4  H   UNL     1      -5.309  -1.863   1.171  0.00  0.00    +0.157 HD
ENDROOT
BRANCH   2   5
ATOM      5  C   UNL     1      -5.533  -1.713   3.766  0.00  0.00    +0.037 A 
ATOM      6  C   UNL     1      -6.715  -2.206   3.209  0.00  0.00    +0.014 A 
ATOM      7  C   UNL     1      -7.778  -2.525   4.026  0.00  0.00    +0.016 A 
ATOM      8  C   UNL     1      -7.676  -2.359   5.397  0.00  0.00    +0.018 A 
ATOM      9  C   UNL     1      -6.507  -1.870   5.956  0.00  0.00    +0.016 A 
ATOM     10  C   UNL     1      -5.434  -1.552   5.149  0.00  0.00    +0.014 A 
ATOM     11 BR   UNL     1      -9.140  -2.800   6.511  0.00  0.00    -0.050 Br
ENDBRANCH   2   5
BRANCH   1  14
ATOM     12  C   UNL     1      -1.412  -0.526   0.013  0.00  0.00    +0.067 A 
ATOM     13  C   UNL     1      -2.204  -0.717   1.148  0.00  0.00    +0.068 A 
ATOM     14  C   UNL     1      -3.409  -1.199   0.740  0.00  0.00    +0.121 A 
ATOM     15  N   UNL     1      -3.369  -1.305  -0.613  0.00  0.00    -0.264 N 
ATOM     16  N   UNL     1      -2.108  -0.871  -1.040  0.00  0.00    -0.177 NA
ATOM     17  H   UNL     1      -4.087  -1.622  -1.183  0.00  0.00    +0.190 HD
BRANCH  12  19
ATOM     18  C   UNL     1      -0.019   1.526   0.010  0.00  0.00    +0.014 C 
ATOM     19  C   UNL     1       0.002  -0.004   0.002  0.00  0.00    +0.033 C 
ATOM     20  C   UNL     1       0.742  -0.511   1.242  0.00  0.00    +0.014 C 
ENDBRANCH  12  19
ENDBRANCH   1  14
TORSDOF 3
