REMARK  Name = CHEMBL356728
REMARK  3 active torsions:
REMARK  status: ('A' for Active; 'I' for Inactive)
REMARK    1  A    between atoms: C_1  and  N_2
REMARK    2  A    between atoms: C_5  and  C_7
REMARK    3  A    between atoms: C_17  and  N_21
REMARK                            x       y       z     vdW  Elec       q    Type
REMARK                         _______ _______ _______ _____ _____    ______ ____
ROOT
ATOM      1  C   UNL     1       0.070  -3.304   1.588  0.00  0.00    +0.079 A 
ATOM      2  C   UNL     1      -0.705  -4.447   1.431  0.00  0.00    +0.075 A 
ATOM      3  C   UNL     1      -0.333  -5.356   2.518  0.00  0.00    +0.105 A 
ATOM      4  N   UNL     1       0.587  -4.756   3.231  0.00  0.00    -0.173 NA
ATOM      5  N   UNL     1       0.859  -3.499   2.682  0.00  0.00    -0.276 N 
ATOM      6  H   UNL     1       1.506  -2.864   3.027  0.00  0.00    +0.189 HD
ATOM      7  C   UNL     1      -1.149  -6.586   2.371  0.00  0.00    +0.015 A 
ATOM      8  C   UNL     1      -1.201  -7.755   3.119  0.00  0.00    +0.011 A 
ATOM      9  C   UNL     1      -2.068  -8.775   2.763  0.00  0.00    +0.002 A 
ATOM     10  C   UNL     1      -2.890  -8.643   1.662  0.00  0.00    +0.024 A 
ATOM     11  C   UNL     1      -2.855  -7.482   0.897  0.00  0.00    +0.046 A 
ATOM     12  C   UNL     1      -1.983  -6.443   1.248  0.00  0.00    +0.053 A 
ATOM     13  C   UNL     1      -1.736  -5.122   0.635  0.00  0.00    +0.200 C 
ATOM     14  O   UNL     1      -2.288  -4.675  -0.353  0.00  0.00    -0.286 OA
ENDROOT
BRANCH  11  15
ATOM     15  N   UNL     1      -3.685  -7.352  -0.213  0.00  0.00    -0.269 N 
ATOM     16  C   UNL     1      -4.832  -8.057  -0.283  0.00  0.00    +0.301 C 
ATOM     17  O   UNL     1      -5.192  -8.727   0.665  0.00  0.00    -0.253 OA
ATOM     18  N   UNL     1      -5.578  -8.019  -1.405  0.00  0.00    -0.313 N 
ATOM     19  H   UNL     1      -3.438  -6.754  -0.936  0.00  0.00    +0.156 HD
ATOM     20  H   UNL     1      -5.290  -7.485  -2.161  0.00  0.00    +0.146 HD
ATOM     21  H   UNL     1      -6.404  -8.527  -1.455  0.00  0.00    +0.146 HD
ENDBRANCH  11  15
BRANCH   1  26
ATOM     22  C   UNL     1      -0.004   1.454   0.057  0.00  0.00    +0.148 C 
ATOM     23  N   UNL     1       0.014  -0.011   0.037  0.00  0.00    -0.356 N 
ATOM     24  C   UNL     1       0.012  -0.777  -1.091  0.00  0.00    +0.086 A 
ATOM     25  C   UNL     1       0.031  -2.075  -0.737  0.00  0.00    +0.029 A 
ATOM     26  C   UNL     1       0.046  -2.107   0.729  0.00  0.00    +0.018 A 
ATOM     27  C   UNL     1       0.040  -0.802   1.138  0.00  0.00    +0.095 A 
ENDBRANCH   1  26
TORSDOF 2
