REMARK  Name = CHEMBL306856
REMARK  8 active torsions:
REMARK  status: ('A' for Active; 'I' for Inactive)
REMARK    1  A    between atoms: C_1  and  N_2
REMARK    2  A    between atoms: C_16  and  O_30
REMARK    3  A    between atoms: N_19  and  C_20
REMARK    4  A    between atoms: C_20  and  C_21
REMARK    5  A    between atoms: C_21  and  C_22
REMARK    6  A    between atoms: C_22  and  N_23
REMARK    7  A    between atoms: C_26  and  O_29
REMARK    8  A    between atoms: O_30  and  C_31
REMARK                            x       y       z     vdW  Elec       q    Type
REMARK                         _______ _______ _______ _____ _____    ______ ____
ROOT
ATOM      1  C   UNL     1      -0.018   1.461   0.010  0.00  0.00    +0.149 C 
ATOM      2  N   UNL     1       0.002  -0.004   0.002  0.00  0.00    -0.349 N 
ATOM      3  C   UNL     1      -0.022  -0.748  -1.147  0.00  0.00    +0.086 A 
ATOM      4  C   UNL     1      -0.116  -2.049  -0.838  0.00  0.00    +0.027 A 
ATOM      5  C   UNL     1      -0.150  -2.133   0.621  0.00  0.00    +0.000 A 
ATOM      6  C   UNL     1       0.024  -0.823   1.099  0.00  0.00    +0.057 A 
ATOM      7  C   UNL     1       0.202  -0.646   2.484  0.00  0.00    +0.021 A 
ATOM      8  C   UNL     1      -0.266  -1.670   3.359  0.00  0.00    +0.009 A 
ATOM      9  C   UNL     1      -0.434  -2.969   2.852  0.00  0.00    +0.011 A 
ATOM     10  C   UNL     1      -0.346  -3.199   1.516  0.00  0.00    +0.011 A 
ATOM     11  C   UNL     1      -0.544  -1.362   4.708  0.00  0.00    +0.059 A 
ATOM     12  C   UNL     1      -0.030  -0.163   5.234  0.00  0.00    +0.021 A 
ATOM     13  C   UNL     1      -0.410  -0.123   6.657  0.00  0.00    +0.009 A 
ATOM     14  C   UNL     1      -0.175   0.793   7.681  0.00  0.00    +0.014 A 
ATOM     15  C   UNL     1      -0.663   0.539   8.943  0.00  0.00    +0.046 A 
ATOM     16  C   UNL     1      -1.386  -0.625   9.195  0.00  0.00    +0.122 A 
ATOM     17  C   UNL     1      -1.632  -1.533   8.179  0.00  0.00    +0.072 A 
ATOM     18  C   UNL     1      -1.149  -1.287   6.899  0.00  0.00    +0.054 A 
ATOM     19  N   UNL     1      -1.250  -1.988   5.707  0.00  0.00    -0.339 N 
ATOM     20  C   UNL     1       0.691   0.727   4.424  0.00  0.00    +0.060 A 
ATOM     21  C   UNL     1       0.861   0.458   3.056  0.00  0.00    +0.060 A 
ATOM     22  C   UNL     1       1.840   1.453   2.592  0.00  0.00    +0.252 C 
ATOM     23  O   UNL     1       2.429   1.437   1.529  0.00  0.00    -0.270 OA
ATOM     24  N   UNL     1       2.016   2.376   3.560  0.00  0.00    -0.248 N 
ATOM     25  C   UNL     1       1.356   2.022   4.676  0.00  0.00    +0.252 C 
ATOM     26  O   UNL     1       1.310   2.651   5.714  0.00  0.00    -0.270 OA
ATOM     27  H   UNL     1       2.546   3.182   3.466  0.00  0.00    +0.158 HD
ENDROOT
BRANCH  16  28
ATOM     28  O   UNL     1      -1.841  -0.869  10.451  0.00  0.00    -0.495 OA
ATOM     29  C   UNL     1      -1.541   0.106  11.451  0.00  0.00    +0.277 C 
ENDBRANCH  16  28
BRANCH  19  30
ATOM     30  C   UNL     1      -2.040  -3.216   5.571  0.00  0.00    +0.120 C 
BRANCH  30  31
ATOM     31  C   UNL     1      -1.151  -4.428   5.854  0.00  0.00    +0.003 C 
BRANCH  31  32
ATOM     32  C   UNL     1      -1.975  -5.709   5.712  0.00  0.00    -0.077 C 
BRANCH  32  33
ATOM     33  N   UNL     1      -1.122  -6.874   5.983  0.00  0.00    +0.380 N 
ATOM     34  C   UNL     1      -0.075  -6.960   4.958  0.00  0.00    -0.076 C 
ATOM     35  C   UNL     1       0.866  -8.123   5.281  0.00  0.00    +0.013 C 
ATOM     36  C   UNL     1       0.065  -9.428   5.306  0.00  0.00    +0.111 C 
ATOM     37  C   UNL     1      -1.071  -9.299   6.326  0.00  0.00    +0.013 C 
ATOM     38  C   UNL     1      -1.939  -8.093   5.965  0.00  0.00    -0.076 C 
ATOM     39  H   UNL     1      -0.693  -6.771   6.891  0.00  0.00    -0.082 HD
BRANCH  36  40
ATOM     40  O   UNL     1       0.922 -10.508   5.680  0.00  0.00    -0.392 OA
ATOM     41  H   UNL     1       0.480 -11.368   5.717  0.00  0.00    +0.210 HD
ENDBRANCH  36  40
ENDBRANCH  32  33
ENDBRANCH  31  32
ENDBRANCH  30  31
ENDBRANCH  19  30
TORSDOF 6
