REMARK  Name = CHEMBL504155
REMARK  3 active torsions:
REMARK  status: ('A' for Active; 'I' for Inactive)
REMARK    1  A    between atoms: C_1  and  C_2
REMARK    2  A    between atoms: N_4  and  C_5
REMARK    3  A    between atoms: C_10  and  C_11
REMARK                            x       y       z     vdW  Elec       q    Type
REMARK                         _______ _______ _______ _____ _____    ______ ____
ROOT
ATOM      1  C   UNL     1      -1.137  -2.098   0.002  0.00  0.00    +0.082 A 
ATOM      2  C   UNL     1      -0.031  -2.882  -0.007  0.00  0.00    +0.129 A 
ATOM      3  N   UNL     1      -0.440  -4.178  -0.013  0.00  0.00    -0.282 N 
ATOM      4  H   UNL     1       0.138  -4.957  -0.019  0.00  0.00    +0.188 HD
ATOM      5  N   UNL     1      -1.840  -4.195  -0.007  0.00  0.00    -0.169 NA
ATOM      6  C   UNL     1      -2.268  -2.947   0.008  0.00  0.00    +0.149 A 
ENDROOT
BRANCH   6   7
ATOM      7  C   UNL     1      -3.680  -2.513   0.024  0.00  0.00    +0.161 A 
ATOM      8  N   UNL     1      -4.761  -3.352   0.035  0.00  0.00    -0.337 N 
ATOM      9  H   UNL     1      -4.738  -4.322   0.034  0.00  0.00    +0.167 HD
ATOM     10  C   UNL     1      -5.893  -2.559   0.049  0.00  0.00    +0.067 A 
ATOM     11  C   UNL     1      -7.255  -2.825   0.064  0.00  0.00    +0.028 A 
ATOM     12  C   UNL     1      -8.156  -1.781   0.075  0.00  0.00    +0.002 A 
ATOM     13  C   UNL     1      -7.709  -0.467   0.071  0.00  0.00    +0.002 A 
ATOM     14  C   UNL     1      -6.372  -0.185   0.056  0.00  0.00    +0.030 A 
ATOM     15  C   UNL     1      -5.440  -1.228   0.045  0.00  0.00    +0.090 A 
ATOM     16  N   UNL     1      -4.085  -1.266   0.036  0.00  0.00    -0.226 NA
ENDBRANCH   6   7
BRANCH   1  20
ATOM     17  C   UNL     1      -0.018   1.503   0.010  0.00  0.00    +0.109 C 
ATOM     18  C   UNL     1       0.002  -0.004   0.002  0.00  0.00    +0.214 C 
ATOM     19  O   UNL     1       1.061  -0.596  -0.011  0.00  0.00    -0.276 OA
ATOM     20  N   UNL     1      -1.156  -0.694   0.009  0.00  0.00    -0.283 N 
ATOM     21  H   UNL     1      -2.002  -0.220   0.020  0.00  0.00    +0.155 HD
ENDBRANCH   1  20
TORSDOF 2
