REMARK  Name = CHEMBL326501
REMARK  3 active torsions:
REMARK  status: ('A' for Active; 'I' for Inactive)
REMARK    1  A    between atoms: C_10  and  C_11
REMARK    2  A    between atoms: C_11  and  C_12
REMARK    3  A    between atoms: C_17  and  C_21
REMARK                            x       y       z     vdW  Elec       q    Type
REMARK                         _______ _______ _______ _____ _____    ______ ____
ROOT
ATOM      1  C   UNL     1       5.341   0.519   1.367  0.00  0.00    +0.223 C 
ATOM      2  O   UNL     1       4.633   0.178   2.291  0.00  0.00    -0.275 OA
ATOM      3  N   UNL     1       6.469   1.218   1.605  0.00  0.00    -0.269 N 
ATOM      4  C   UNL     1       6.824   1.550   2.919  0.00  0.00    +0.147 A 
ATOM      5  C   UNL     1       6.103   1.217   4.078  0.00  0.00    +0.068 A 
ATOM      6  C   UNL     1       6.772   1.718   5.141  0.00  0.00    +0.041 A 
ATOM      7  N   UNL     1       7.874   2.345   4.679  0.00  0.00    -0.280 N 
ATOM      8  H   UNL     1       8.540   2.798   5.219  0.00  0.00    +0.189 HD
ATOM      9  N   UNL     1       7.890   2.223   3.283  0.00  0.00    -0.158 NA
ATOM     10  H   UNL     1       7.035   1.490   0.866  0.00  0.00    +0.156 HD
ENDROOT
BRANCH   6  11
ATOM     11  C   UNL     1       6.359   1.598   6.585  0.00  0.00    +0.037 C 
ATOM     12  C   UNL     1       6.694   2.766   7.515  0.00  0.00    +0.010 C 
ATOM     13  C   UNL     1       7.470   1.452   7.627  0.00  0.00    +0.010 C 
ENDBRANCH   6  11
BRANCH   1  14
ATOM     14  C   UNL     1       4.960   0.161  -0.046  0.00  0.00    +0.131 C 
BRANCH  14  24
ATOM     15  C   UNL     1      -0.016   1.357   0.009  0.00  0.00    +0.001 A 
ATOM     16  C   UNL     1       1.169   2.091   0.002  0.00  0.00    +0.001 A 
ATOM     17  C   UNL     1       2.378   1.468  -0.013  0.00  0.00    +0.009 A 
ATOM     18  C   UNL     1       2.438   0.064  -0.021  0.00  0.00    -0.014 A 
ATOM     19  C   UNL     1       1.233  -0.683  -0.013  0.00  0.00    -0.018 A 
ATOM     20  C   UNL     1       0.002  -0.004   0.002  0.00  0.00    +0.008 A 
ATOM     21  C   UNL     1       1.292  -2.087  -0.021  0.00  0.00    +0.008 A 
ATOM     22  C   UNL     1       2.502  -2.709  -0.036  0.00  0.00    +0.001 A 
ATOM     23  C   UNL     1       3.687  -1.976  -0.043  0.00  0.00    +0.005 A 
ATOM     24  C   UNL     1       3.668  -0.615  -0.037  0.00  0.00    -0.031 A 
ENDBRANCH  14  24
ENDBRANCH   1  14
TORSDOF 3
