REMARK  Name = CHEMBL468963
REMARK  5 active torsions:
REMARK  status: ('A' for Active; 'I' for Inactive)
REMARK    1  A    between atoms: C_1  and  N_2
REMARK    2  A    between atoms: N_5  and  C_8
REMARK    3  A    between atoms: C_11  and  N_18
REMARK    4  A    between atoms: C_13  and  C_14
REMARK    5  A    between atoms: C_23  and  C_25
REMARK                            x       y       z     vdW  Elec       q    Type
REMARK                         _______ _______ _______ _____ _____    ______ ____
ROOT
ATOM      1  C   UNL     1      -0.994  -3.622   1.754  0.00  0.00    +0.041 A 
ATOM      2  C   UNL     1      -0.936  -4.943   1.327  0.00  0.00    +0.025 A 
ATOM      3  C   UNL     1      -1.385  -5.955   2.151  0.00  0.00    +0.025 A 
ATOM      4  C   UNL     1      -1.892  -5.654   3.408  0.00  0.00    +0.034 A 
ATOM      5  C   UNL     1      -1.950  -4.334   3.836  0.00  0.00    +0.037 A 
ATOM      6  C   UNL     1      -1.496  -3.321   3.013  0.00  0.00    +0.077 A 
ENDROOT
BRANCH   1  11
ATOM      7  C   UNL     1       0.209   1.436   0.087  0.00  0.00    -0.096 C 
ATOM      8  N   UNL     1       0.094  -0.027   0.018  0.00  0.00    +0.380 N 
ATOM      9  C   UNL     1      -1.315  -0.412   0.163  0.00  0.00    -0.060 C 
ATOM     10  C   UNL     1      -1.451  -1.927  -0.022  0.00  0.00    +0.086 C 
ATOM     11  N   UNL     1      -0.539  -2.596   0.918  0.00  0.00    -0.333 N 
ATOM     12  C   UNL     1       0.864  -2.155   0.955  0.00  0.00    +0.086 C 
ATOM     13  C   UNL     1       0.890  -0.630   1.095  0.00  0.00    -0.060 C 
ATOM     14  H   UNL     1       0.438  -0.349  -0.874  0.00  0.00    -0.082 HD
ENDBRANCH   1  11
BRANCH   4  15
ATOM     15  N   UNL     1      -2.347  -6.681   4.245  0.00  0.00    -0.284 N 
ATOM     16  C   UNL     1      -1.729  -7.920   4.218  0.00  0.00    +0.220 A 
ATOM     17  N   UNL     1      -0.639  -8.082   3.482  0.00  0.00    -0.223 NA
ATOM     18  C   UNL     1      -0.018  -9.251   3.430  0.00  0.00    +0.116 A 
ATOM     19  C   UNL     1      -0.517 -10.316   4.155  0.00  0.00    +0.048 A 
ATOM     20  C   UNL     1      -1.670 -10.116   4.924  0.00  0.00    +0.080 A 
ATOM     21  N   UNL     1      -2.240  -8.911   4.933  0.00  0.00    -0.214 NA
ATOM     22  H   UNL     1      -3.095  -6.524   4.843  0.00  0.00    +0.155 HD
BRANCH  20  23
ATOM     23  C   UNL     1      -2.244 -11.223   5.718  0.00  0.00    +0.047 A 
ATOM     24  C   UNL     1      -1.746 -12.526   5.808  0.00  0.00    +0.147 A 
ATOM     25  N   UNL     1      -2.521 -13.223   6.606  0.00  0.00    -0.156 NA
ATOM     26  N   UNL     1      -3.559 -12.409   7.072  0.00  0.00    -0.150 N 
ATOM     27  C   UNL     1      -3.389 -11.162   6.528  0.00  0.00    +0.097 A 
ATOM     28  C   UNL     1      -4.296 -10.141   6.838  0.00  0.00    +0.032 A 
ATOM     29  C   UNL     1      -5.334 -10.410   7.683  0.00  0.00    +0.024 A 
ATOM     30  C   UNL     1      -5.480 -11.690   8.225  0.00  0.00    +0.135 A 
ATOM     31  N   UNL     1      -4.639 -12.648   7.930  0.00  0.00    -0.157 NA
ENDBRANCH  20  23
ENDBRANCH   4  15
BRANCH   6  32
ATOM     32  C   UNL     1      -1.551  -1.889   3.480  0.00  0.00    +0.419 C 
ATOM     33  F   UNL     1      -2.091  -1.840   4.769  0.00  0.00    -0.166 F 
ATOM     34  F   UNL     1      -0.259  -1.353   3.494  0.00  0.00    -0.166 F 
ATOM     35  F   UNL     1      -2.355  -1.146   2.609  0.00  0.00    -0.166 F 
ENDBRANCH   6  32
TORSDOF 4
