REMARK  Name = CHEMBL139653
REMARK  7 active torsions:
REMARK  status: ('A' for Active; 'I' for Inactive)
REMARK    1  A    between atoms: C_3  and  N_26
REMARK    2  A    between atoms: C_6  and  N_7
REMARK    3  A    between atoms: N_16  and  C_19
REMARK    4  A    between atoms: C_29  and  C_32
REMARK    5  A    between atoms: C_32  and  C_33
REMARK    6  A    between atoms: C_33  and  C_34
REMARK    7  A    between atoms: C_34  and  O_35
REMARK                            x       y       z     vdW  Elec       q    Type
REMARK                         _______ _______ _______ _____ _____    ______ ____
ROOT
ATOM      1  N   UNL     1      -1.204  -1.390  -1.379  0.00  0.00    -0.284 N 
ATOM      2  C   UNL     1      -2.357  -0.641  -1.517  0.00  0.00    +0.221 A 
ATOM      3  N   UNL     1      -2.278   0.551  -2.098  0.00  0.00    -0.222 NA
ATOM      4  C   UNL     1      -3.349   1.308  -2.255  0.00  0.00    +0.126 A 
ATOM      5  C   UNL     1      -4.579   0.826  -1.793  0.00  0.00    +0.036 A 
ATOM      6  C   UNL     1      -5.812   1.596  -1.927  0.00  0.00    +0.018 A 
ATOM      7  C   UNL     1      -6.964   1.055  -1.452  0.00  0.00    +0.071 A 
ATOM      8  C   UNL     1      -6.953  -0.219  -0.848  0.00  0.00    +0.253 A 
ATOM      9  O   UNL     1      -7.998  -0.685  -0.429  0.00  0.00    -0.268 OA
ATOM     10  N   UNL     1      -5.821  -0.934  -0.722  0.00  0.00    -0.289 N 
ATOM     11  C   UNL     1      -4.624  -0.446  -1.180  0.00  0.00    +0.149 A 
ATOM     12  N   UNL     1      -3.499  -1.140  -1.069  0.00  0.00    -0.196 NA
ATOM     13  H   UNL     1      -1.254  -2.300  -1.046  0.00  0.00    +0.155 HD
ENDROOT
BRANCH  10  14
ATOM     14  C   UNL     1      -5.867  -2.253  -0.087  0.00  0.00    +0.096 C 
ATOM     15  C   UNL     1      -4.481  -2.620   0.492  0.00  0.00    +0.029 C 
ATOM     16  C   UNL     1      -4.065  -3.913  -0.274  0.00  0.00    -0.009 C 
ATOM     17  C   UNL     1      -3.769  -3.428  -1.726  0.00  0.00    +0.004 C 
ATOM     18  C   UNL     1      -5.154  -3.060  -2.305  0.00  0.00    +0.006 C 
ATOM     19  C   UNL     1      -6.157  -3.358  -1.148  0.00  0.00    +0.012 C 
ATOM     20  C   UNL     1      -5.464  -4.595  -0.475  0.00  0.00    +0.009 C 
ENDBRANCH  10  14
BRANCH   1  26
ATOM     21  C   UNL     1       0.224   0.537  -1.656  0.00  0.00    +0.025 A 
ATOM     22  C   UNL     1       1.448   1.079  -1.992  0.00  0.00    +0.023 A 
ATOM     23  C   UNL     1       2.485   0.256  -2.392  0.00  0.00    +0.014 A 
ATOM     24  C   UNL     1       2.299  -1.113  -2.457  0.00  0.00    +0.023 A 
ATOM     25  C   UNL     1       1.077  -1.662  -2.121  0.00  0.00    +0.025 A 
ATOM     26  C   UNL     1       0.034  -0.838  -1.719  0.00  0.00    +0.034 A 
BRANCH  23  27
ATOM     27  N   UNL     1       3.723   0.809  -2.733  0.00  0.00    -0.393 NA
ATOM     28  C   UNL     1       4.038   0.477  -4.128  0.00  0.00    +0.085 C 
ATOM     29  C   UNL     1       5.353   1.147  -4.531  0.00  0.00    +0.021 C 
ATOM     30  C   UNL     1       6.476   0.644  -3.620  0.00  0.00    -0.008 C 
ATOM     31  C   UNL     1       6.103   0.929  -2.162  0.00  0.00    +0.021 C 
ATOM     32  C   UNL     1       4.760   0.267  -1.847  0.00  0.00    +0.085 C 
ATOM     33  H   UNL     1       3.683   1.811  -2.628  0.00  0.00    +0.126 HD
BRANCH  30  34
ATOM     34  C   UNL     1       7.778   1.369  -3.965  0.00  0.00    +0.006 C 
BRANCH  34  35
ATOM     35  C   UNL     1       8.925   0.779  -3.141  0.00  0.00    +0.028 C 
BRANCH  35  36
ATOM     36  C   UNL     1      10.227   1.504  -3.486  0.00  0.00    +0.156 C 
BRANCH  36  37
ATOM     37  O   UNL     1      11.297   0.952  -2.717  0.00  0.00    -0.395 OA
ATOM     38  H   UNL     1      12.156   1.365  -2.885  0.00  0.00    +0.209 HD
ENDBRANCH  36  37
ENDBRANCH  35  36
ENDBRANCH  34  35
ENDBRANCH  30  34
ENDBRANCH  23  27
ENDBRANCH   1  26
TORSDOF 7
