REMARK  Name = CHEMBL446409
REMARK  6 active torsions:
REMARK  status: ('A' for Active; 'I' for Inactive)
REMARK    1  A    between atoms: C_3  and  C_24
REMARK    2  A    between atoms: C_9  and  O_23
REMARK    3  A    between atoms: C_10  and  N_11
REMARK    4  A    between atoms: N_12  and  C_13
REMARK    5  A    between atoms: C_16  and  S_19
REMARK    6  A    between atoms: S_19  and  N_22
REMARK                            x       y       z     vdW  Elec       q    Type
REMARK                         _______ _______ _______ _____ _____    ______ ____
ROOT
ATOM      1  C   UNL     1      -0.017   1.376   0.010  0.00  0.00    +0.003 A 
ATOM      2  C   UNL     1       1.162   2.100   0.002  0.00  0.00    +0.011 A 
ATOM      3  C   UNL     1       2.388   1.440  -0.013  0.00  0.00    +0.011 A 
ATOM      4  C   UNL     1       2.413   0.035  -0.021  0.00  0.00    +0.040 A 
ATOM      5  C   UNL     1       1.213  -0.689  -0.013  0.00  0.00    +0.052 A 
ATOM      6  C   UNL     1       0.002  -0.004   0.002  0.00  0.00    +0.026 A 
ATOM      7  N   UNL     1       1.530  -2.036  -0.024  0.00  0.00    -0.324 N 
ATOM      8  H   UNL     1       0.881  -2.757  -0.022  0.00  0.00    +0.169 HD
ATOM      9  C   UNL     1       2.879  -2.206  -0.038  0.00  0.00    +0.219 A 
ATOM     10  C   UNL     1       3.496  -0.963  -0.037  0.00  0.00    +0.155 A 
ENDROOT
BRANCH   3  11
ATOM     11  C   UNL     1       3.649   2.209  -0.021  0.00  0.00    +0.066 A 
ATOM     12  C   UNL     1       3.899   3.363  -0.730  0.00  0.00    +0.049 A 
ATOM     13  C   UNL     1       5.208   3.756  -0.452  0.00  0.00    +0.135 A 
ATOM     14  N   UNL     1       5.736   2.894   0.380  0.00  0.00    -0.182 NA
ATOM     15  H   UNL     1       4.907   1.155   1.270  0.00  0.00    +0.189 HD
ATOM     16  N   UNL     1       4.783   1.912   0.676  0.00  0.00    -0.277 N 
ENDBRANCH   3  11
BRANCH  10  17
ATOM     17  N   UNL     1       4.823  -0.718  -0.049  0.00  0.00    -0.143 NA
ATOM     18  N   UNL     1       5.660  -1.700  -0.063  0.00  0.00    -0.149 NA
BRANCH  18  19
ATOM     19  C   UNL     1       7.005  -1.452  -0.075  0.00  0.00    +0.086 A 
ATOM     20  C   UNL     1       7.476  -0.136  -0.067  0.00  0.00    +0.031 A 
ATOM     21  C   UNL     1       8.834   0.106  -0.079  0.00  0.00    +0.030 A 
ATOM     22  C   UNL     1       9.728  -0.949  -0.100  0.00  0.00    +0.105 A 
ATOM     23  C   UNL     1       9.269  -2.254  -0.108  0.00  0.00    +0.030 A 
ATOM     24  C   UNL     1       7.914  -2.512  -0.089  0.00  0.00    +0.031 A 
BRANCH  22  25
ATOM     25  S   UNL     1      11.461  -0.629  -0.116  0.00  0.00    +0.056 S 
ATOM     26  O   UNL     1      12.080  -1.774  -0.685  0.00  0.00    -0.153 OA
ATOM     27  O   UNL     1      11.628   0.675  -0.655  0.00  0.00    -0.153 OA
BRANCH  25  28
ATOM     28  N   UNL     1      11.960  -0.556   1.461  0.00  0.00    -0.204 NA
ATOM     29  H   UNL     1      11.320  -0.683   2.179  0.00  0.00    +0.144 HD
ATOM     30  H   UNL     1      12.893  -0.387   1.668  0.00  0.00    +0.144 HD
ENDBRANCH  25  28
ENDBRANCH  22  25
ENDBRANCH  18  19
ENDBRANCH  10  17
BRANCH   9  31
ATOM     31  O   UNL     1       3.518  -3.398  -0.051  0.00  0.00    -0.492 OA
ATOM     32  H   UNL     1       3.696  -3.739  -0.938  0.00  0.00    +0.294 HD
ENDBRANCH   9  31
TORSDOF 6
