REMARK  Name = CHEMBL180341
REMARK  4 active torsions:
REMARK  status: ('A' for Active; 'I' for Inactive)
REMARK    1  A    between atoms: C_3  and  N_24
REMARK    2  A    between atoms: C_6  and  N_7
REMARK    3  A    between atoms: C_14  and  O_23
REMARK    4  A    between atoms: C_15  and  C_18
REMARK                            x       y       z     vdW  Elec       q    Type
REMARK                         _______ _______ _______ _____ _____    ______ ____
ROOT
ATOM      1  N   UNL     1      -1.201  -0.721   0.010  0.00  0.00    -0.284 N 
ATOM      2  C   UNL     1      -1.032  -2.091   0.110  0.00  0.00    +0.220 A 
ATOM      3  N   UNL     1       0.198  -2.572   0.282  0.00  0.00    -0.222 NA
ATOM      4  C   UNL     1       0.425  -3.865   0.385  0.00  0.00    +0.124 A 
ATOM      5  C   UNL     1      -0.668  -4.747   0.308  0.00  0.00    +0.019 A 
ATOM      6  C   UNL     1      -0.508  -6.137   0.410  0.00  0.00    +0.015 A 
ATOM      7  C   UNL     1      -1.597  -6.949   0.330  0.00  0.00    +0.046 A 
ATOM      8  C   UNL     1      -2.878  -6.417   0.148  0.00  0.00    +0.122 A 
ATOM      9  C   UNL     1      -3.069  -5.056   0.045  0.00  0.00    +0.023 A 
ATOM     10  C   UNL     1      -1.965  -4.198   0.124  0.00  0.00    +0.083 A 
ATOM     11  N   UNL     1      -2.095  -2.868   0.036  0.00  0.00    -0.214 NA
ATOM     12  H   UNL     1      -2.094  -0.344  -0.029  0.00  0.00    +0.155 HD
ENDROOT
BRANCH   1  18
ATOM     13  C   UNL     1       1.076  -0.296  -0.676  0.00  0.00    +0.025 A 
ATOM     14  C   UNL     1       2.178   0.535  -0.720  0.00  0.00    +0.025 A 
ATOM     15  C   UNL     1       2.127   1.788  -0.124  0.00  0.00    +0.030 A 
ATOM     16  C   UNL     1       0.968   2.206   0.517  0.00  0.00    +0.025 A 
ATOM     17  C   UNL     1      -0.134   1.375   0.561  0.00  0.00    +0.025 A 
ATOM     18  C   UNL     1      -0.083   0.122  -0.035  0.00  0.00    +0.034 A 
BRANCH  15  19
ATOM     19  N   UNL     1       3.244   2.630  -0.168  0.00  0.00    -0.326 N 
ATOM     20  C   UNL     1       3.179   4.003   0.356  0.00  0.00    +0.133 C 
ATOM     21  C   UNL     1       4.362   4.215   1.308  0.00  0.00    +0.178 C 
ATOM     22  O   UNL     1       5.573   3.846   0.642  0.00  0.00    -0.377 OA
ATOM     23  C   UNL     1       5.637   2.468   0.265  0.00  0.00    +0.178 C 
ATOM     24  C   UNL     1       4.520   2.166  -0.735  0.00  0.00    +0.133 C 
ENDBRANCH  15  19
ENDBRANCH   1  18
BRANCH   9  25
ATOM     25  C   UNL     1      -4.454  -4.496  -0.150  0.00  0.00    +0.025 C 
ATOM     26  C   UNL     1      -5.377  -4.955   0.997  0.00  0.00    +0.008 C 
ATOM     27  C   UNL     1      -6.744  -5.199   0.311  0.00  0.00    +0.001 C 
ATOM     28  C   UNL     1      -6.338  -5.817  -1.050  0.00  0.00    +0.001 C 
ATOM     29  C   UNL     1      -5.065  -5.043  -1.452  0.00  0.00    +0.008 C 
ENDBRANCH   9  25
BRANCH   8  30
ATOM     30  O   UNL     1      -3.946  -7.252   0.073  0.00  0.00    -0.506 OA
ATOM     31  H   UNL     1      -4.359  -7.441   0.927  0.00  0.00    +0.292 HD
ENDBRANCH   8  30
TORSDOF 4
