REMARK  Name = CHEMBL503917
REMARK  1 active torsions:
REMARK  status: ('A' for Active; 'I' for Inactive)
REMARK    1  A    between atoms: C_5  and  C_10
REMARK                            x       y       z     vdW  Elec       q    Type
REMARK                         _______ _______ _______ _____ _____    ______ ____
ROOT
ATOM      1  C   UNL     1      -0.016   1.353   0.009  0.00  0.00    +0.039 A 
ATOM      2  C   UNL     1       1.194   2.056   0.002  0.00  0.00    +0.114 A 
ATOM      3  N   UNL     1       2.336   1.405  -0.013  0.00  0.00    -0.235 NA
ATOM      4  C   UNL     1       2.362   0.071  -0.020  0.00  0.00    +0.173 A 
ATOM      5  C   UNL     1       3.419  -0.859  -0.036  0.00  0.00    +0.115 A 
ATOM      6  C   UNL     1       2.838  -2.139  -0.037  0.00  0.00    +0.156 A 
ATOM      7  N   UNL     1       1.536  -2.010  -0.024  0.00  0.00    -0.172 NA
ATOM      8  N   UNL     1       1.202  -0.652  -0.013  0.00  0.00    -0.220 N 
ATOM      9  C   UNL     1       0.002  -0.004   0.002  0.00  0.00    +0.116 A 
ENDROOT
BRANCH   5  10
ATOM     10  C   UNL     1       4.819  -0.559  -0.048  0.00  0.00    +0.104 C 
ATOM     11  N   UNL     1       5.929  -0.320  -0.058  0.00  0.00    -0.191 NA
ENDBRANCH   5  10
TORSDOF 1
