REMARK  Name = CHEMBL477063
REMARK  5 active torsions:
REMARK  status: ('A' for Active; 'I' for Inactive)
REMARK    1  A    between atoms: C_1  and  O_2
REMARK    2  A    between atoms: O_2  and  C_3
REMARK    3  A    between atoms: C_6  and  C_10
REMARK    4  A    between atoms: C_10  and  N_11
REMARK    5  A    between atoms: N_11  and  C_12
REMARK                            x       y       z     vdW  Elec       q    Type
REMARK                         _______ _______ _______ _____ _____    ______ ____
ROOT
ATOM      1  C   UNL     1      -7.297  -2.152  -1.971  0.00  0.00    +0.081 C 
ATOM      2  C   UNL     1      -7.334  -3.505  -2.228  0.00  0.00    +0.058 C 
ATOM      3  C   UNL     1      -6.322  -4.416  -1.654  0.00  0.00    +0.001 A 
ATOM      4  C   UNL     1      -5.299  -3.951  -0.837  0.00  0.00    +0.023 A 
ATOM      5  C   UNL     1      -4.378  -4.843  -0.324  0.00  0.00    +0.014 A 
ATOM      6  C   UNL     1      -4.467  -6.196  -0.619  0.00  0.00    +0.015 A 
ATOM      7  C   UNL     1      -5.474  -6.675  -1.428  0.00  0.00    +0.014 A 
ATOM      8  C   UNL     1      -6.415  -5.790  -1.956  0.00  0.00    +0.045 A 
ATOM      9  C   UNL     1      -7.505  -6.260  -2.821  0.00  0.00    +0.251 C 
ATOM     10  O   UNL     1      -7.591  -7.444  -3.085  0.00  0.00    -0.270 OA
ATOM     11  N   UNL     1      -8.408  -5.404  -3.326  0.00  0.00    -0.248 N 
ATOM     12  C   UNL     1      -8.382  -4.085  -3.076  0.00  0.00    +0.252 C 
ATOM     13  O   UNL     1      -9.234  -3.362  -3.560  0.00  0.00    -0.270 OA
ATOM     14  I   UNL     1      -2.834  -4.147   0.909  0.00  0.00    -0.044 I 
ATOM     15  H   UNL     1      -9.113  -5.754  -3.894  0.00  0.00    +0.158 HD
ENDROOT
BRANCH   1  16
ATOM     16  N   UNL     1      -6.115  -1.546  -1.688  0.00  0.00    -0.343 N 
ATOM     17  H   UNL     1      -5.285  -2.042  -1.767  0.00  0.00    +0.146 HD
BRANCH  16  18
ATOM     18  C   UNL     1      -6.093  -0.144  -1.264  0.00  0.00    +0.154 C 
BRANCH  18  22
ATOM     19  C   UNL     1      -2.063   1.012  -0.499  0.00  0.00    +0.182 A 
ATOM     20  C   UNL     1      -2.680   0.068   0.249  0.00  0.00    +0.133 A 
ATOM     21  N   UNL     1      -3.966  -0.288  -0.009  0.00  0.00    -0.360 N 
ATOM     22  C   UNL     1      -4.670   0.284  -1.015  0.00  0.00    +0.037 A 
ATOM     23  C   UNL     1      -4.111   1.233  -1.798  0.00  0.00    +0.077 A 
ATOM     24  C   UNL     1      -2.777   1.633  -1.555  0.00  0.00    +0.223 A 
ATOM     25  O   UNL     1      -2.249   2.494  -2.245  0.00  0.00    -0.284 OA
ATOM     26  H   UNL     1      -4.389  -0.968   0.540  0.00  0.00    +0.165 HD
BRANCH  19  28
ATOM     27  C   UNL     1      -0.125   0.694   0.843  0.00  0.00    +0.277 C 
ATOM     28  O   UNL     1      -0.775   1.366  -0.237  0.00  0.00    -0.490 OA
ENDBRANCH  19  28
ENDBRANCH  18  22
ENDBRANCH  16  18
ENDBRANCH   1  16
TORSDOF 4
