REMARK  Name = CHEMBL140808
REMARK  4 active torsions:
REMARK  status: ('A' for Active; 'I' for Inactive)
REMARK    1  A    between atoms: C_1  and  N_2
REMARK    2  A    between atoms: N_5  and  C_8
REMARK    3  A    between atoms: C_11  and  N_14
REMARK    4  A    between atoms: N_23  and  C_26
REMARK                            x       y       z     vdW  Elec       q    Type
REMARK                         _______ _______ _______ _____ _____    ______ ____
ROOT
ATOM      1  N   UNL     1      -2.349  -6.678   4.248  0.00  0.00    -0.284 N 
ATOM      2  C   UNL     1      -1.539  -7.170   5.253  0.00  0.00    +0.221 A 
ATOM      3  N   UNL     1      -0.370  -6.580   5.480  0.00  0.00    -0.222 NA
ATOM      4  C   UNL     1       0.441  -7.012   6.428  0.00  0.00    +0.126 A 
ATOM      5  C   UNL     1       0.042  -8.112   7.197  0.00  0.00    +0.036 A 
ATOM      6  C   UNL     1       0.877  -8.653   8.265  0.00  0.00    +0.018 A 
ATOM      7  C   UNL     1       0.416  -9.723   8.963  0.00  0.00    +0.071 A 
ATOM      8  C   UNL     1      -0.839 -10.285   8.652  0.00  0.00    +0.253 A 
ATOM      9  O   UNL     1      -1.233 -11.245   9.292  0.00  0.00    -0.268 OA
ATOM     10  N   UNL     1      -1.613  -9.792   7.670  0.00  0.00    -0.290 N 
ATOM     11  C   UNL     1      -1.207  -8.713   6.927  0.00  0.00    +0.149 A 
ATOM     12  N   UNL     1      -1.960  -8.210   5.957  0.00  0.00    -0.196 NA
ATOM     13  H   UNL     1      -3.240  -7.038   4.123  0.00  0.00    +0.155 HD
ENDROOT
BRANCH   1  17
ATOM     14  C   UNL     1      -0.957  -3.641   1.751  0.00  0.00    +0.030 A 
ATOM     15  C   UNL     1      -0.079  -4.608   2.224  0.00  0.00    +0.025 A 
ATOM     16  C   UNL     1      -0.540  -5.613   3.051  0.00  0.00    +0.025 A 
ATOM     17  C   UNL     1      -1.881  -5.658   3.409  0.00  0.00    +0.034 A 
ATOM     18  C   UNL     1      -2.759  -4.691   2.936  0.00  0.00    +0.025 A 
ATOM     19  C   UNL     1      -2.297  -3.682   2.114  0.00  0.00    +0.025 A 
BRANCH  14  24
ATOM     20  C   UNL     1       0.525  -1.112  -2.855  0.00  0.00    -0.096 C 
ATOM     21  N   UNL     1       0.281  -1.284  -1.417  0.00  0.00    +0.380 N 
ATOM     22  C   UNL     1       1.112  -2.383  -0.909  0.00  0.00    -0.060 C 
ATOM     23  C   UNL     1       0.944  -2.489   0.610  0.00  0.00    +0.086 C 
ATOM     24  N   UNL     1      -0.490  -2.623   0.912  0.00  0.00    -0.333 N 
ATOM     25  C   UNL     1      -1.419  -1.655   0.308  0.00  0.00    +0.086 C 
ATOM     26  C   UNL     1      -1.139  -1.588  -1.197  0.00  0.00    -0.060 C 
ATOM     27  H   UNL     1       0.520  -0.433  -0.931  0.00  0.00    -0.082 HD
ENDBRANCH  14  24
ENDBRANCH   1  17
BRANCH  10  28
ATOM     28  C   UNL     1      -2.908 -10.415   7.389  0.00  0.00    +0.092 C 
ATOM     29  C   UNL     1      -3.791 -10.341   8.636  0.00  0.00    +0.025 C 
ATOM     30  C   UNL     1      -5.144 -10.992   8.343  0.00  0.00    +0.002 C 
ATOM     31  C   UNL     1      -4.932 -12.457   7.955  0.00  0.00    +0.000 C 
ATOM     32  C   UNL     1      -4.049 -12.531   6.707  0.00  0.00    +0.002 C 
ATOM     33  C   UNL     1      -2.696 -11.880   7.001  0.00  0.00    +0.025 C 
ENDBRANCH  10  28
TORSDOF 3
