REMARK  Name = CHEMBL114917
REMARK  6 active torsions:
REMARK  status: ('A' for Active; 'I' for Inactive)
REMARK    1  A    between atoms: C_1  and  O_2
REMARK    2  A    between atoms: O_2  and  C_3
REMARK    3  A    between atoms: C_7  and  C_9
REMARK    4  A    between atoms: C_9  and  C_10
REMARK    5  A    between atoms: N_12  and  C_13
REMARK    6  A    between atoms: C_15  and  C_19
REMARK                            x       y       z     vdW  Elec       q    Type
REMARK                         _______ _______ _______ _____ _____    ______ ____
ROOT
ATOM      1  C   UNL     1       0.185  -4.658   2.949  0.00  0.00    +0.223 C 
ATOM      2  O   UNL     1      -0.645  -3.888   3.385  0.00  0.00    -0.275 OA
ATOM      3  N   UNL     1       0.032  -5.985   3.125  0.00  0.00    -0.270 N 
ATOM      4  H   UNL     1       0.696  -6.601   2.777  0.00  0.00    +0.156 HD
ENDROOT
BRANCH   3   5
ATOM      5  C   UNL     1      -1.081  -6.474   3.809  0.00  0.00    +0.120 A 
ATOM      6  C   UNL     1      -2.085  -5.729   4.348  0.00  0.00    +0.068 A 
ATOM      7  C   UNL     1      -2.999  -6.606   4.938  0.00  0.00    +0.068 A 
ATOM      8  N   UNL     1      -2.567  -7.829   4.764  0.00  0.00    -0.177 NA
ATOM      9  H   UNL     1      -0.825  -8.535   3.780  0.00  0.00    +0.190 HD
ATOM     10  N   UNL     1      -1.363  -7.775   4.051  0.00  0.00    -0.264 N 
BRANCH   7  11
ATOM     11  C   UNL     1      -4.265  -6.211   5.654  0.00  0.00    +0.040 C 
ATOM     12  C   UNL     1      -4.405  -4.750   6.087  0.00  0.00    +0.010 C 
ATOM     13  C   UNL     1      -4.153  -5.837   7.133  0.00  0.00    +0.010 C 
ENDBRANCH   7  11
ENDBRANCH   3   5
BRANCH   1  14
ATOM     14  C   UNL     1       1.389  -4.130   2.211  0.00  0.00    +0.131 C 
BRANCH  14  19
ATOM     15  C   UNL     1       0.626  -0.618   1.042  0.00  0.00    +0.120 A 
ATOM     16  C   UNL     1       1.202   0.139   2.051  0.00  0.00    +0.045 A 
ATOM     17  C   UNL     1       1.835  -0.488   3.107  0.00  0.00    +0.004 A 
ATOM     18  C   UNL     1       1.895  -1.869   3.158  0.00  0.00    +0.004 A 
ATOM     19  C   UNL     1       1.321  -2.625   2.153  0.00  0.00    -0.035 A 
ATOM     20  C   UNL     1       0.682  -2.003   1.097  0.00  0.00    +0.049 A 
BRANCH  15  22
ATOM     21  C   UNL     1      -0.017   1.425   0.010  0.00  0.00    +0.277 C 
ATOM     22  O   UNL     1       0.002  -0.004   0.002  0.00  0.00    -0.495 OA
ENDBRANCH  15  22
ENDBRANCH  14  19
ENDBRANCH   1  14
TORSDOF 5
