REMARK  Name = CHEMBL179511
REMARK  3 active torsions:
REMARK  status: ('A' for Active; 'I' for Inactive)
REMARK    1  A    between atoms: C_3  and  N_12
REMARK    2  A    between atoms: C_6  and  C_7
REMARK    3  A    between atoms: C_15  and  C_17
REMARK                            x       y       z     vdW  Elec       q    Type
REMARK                         _______ _______ _______ _____ _____    ______ ____
ROOT
ATOM      1  N   UNL     1       3.582   2.134  -0.022  0.00  0.00    -0.231 N 
ATOM      2  C   UNL     1       4.699   1.819   0.660  0.00  0.00    +0.082 A 
ATOM      3  C   UNL     1       5.667   2.755   0.358  0.00  0.00    +0.011 A 
ATOM      4  C   UNL     1       5.087   3.684  -0.511  0.00  0.00    +0.151 A 
ATOM      5  N   UNL     1       3.840   3.309  -0.749  0.00  0.00    -0.161 NA
ATOM      6  C   UNL     1       7.071   2.682   0.893  0.00  0.00    +0.046 C 
ATOM      7  C   UNL     1       7.108   2.034   2.278  0.00  0.00    +0.060 C 
ATOM      8  C   UNL     1       6.198   0.838   2.347  0.00  0.00    +0.046 A 
ATOM      9  C   UNL     1       5.039   0.734   1.600  0.00  0.00    +0.041 A 
ATOM     10  C   UNL     1       4.418  -0.466   1.928  0.00  0.00    +0.144 A 
ATOM     11  N   UNL     1       5.170  -1.077   2.812  0.00  0.00    -0.181 NA
ATOM     12  H   UNL     1       7.016  -0.498   3.686  0.00  0.00    +0.189 HD
ATOM     13  N   UNL     1       6.293  -0.278   3.078  0.00  0.00    -0.281 N 
ENDROOT
BRANCH   1  16
ATOM     14  C   UNL     1       0.689   0.225   1.197  0.00  0.00    +0.013 A 
ATOM     15  C   UNL     1       1.872   0.931   1.185  0.00  0.00    +0.028 A 
ATOM     16  C   UNL     1       2.381   1.417  -0.013  0.00  0.00    +0.066 A 
ATOM     17  C   UNL     1       1.699   1.192  -1.204  0.00  0.00    +0.028 A 
ATOM     18  C   UNL     1       0.515   0.486  -1.199  0.00  0.00    +0.013 A 
ATOM     19  C   UNL     1       0.001  -0.003   0.004  0.00  0.00    +0.017 A 
BRANCH  19  20
ATOM     20  C   UNL     1      -1.268  -0.761   0.013  0.00  0.00    +0.138 A 
ATOM     21  N   UNL     1      -1.855  -1.266   1.075  0.00  0.00    -0.236 NA
ATOM     22  C   UNL     1      -2.983  -1.883   0.704  0.00  0.00    +0.130 A 
ATOM     23  C   UNL     1      -3.113  -1.765  -0.633  0.00  0.00    +0.104 A 
ATOM     24  N   UNL     1      -2.033  -1.050  -1.079  0.00  0.00    -0.344 N 
ATOM     25  H   UNL     1      -1.847  -0.799  -1.997  0.00  0.00    +0.167 HD
ENDBRANCH  19  20
ENDBRANCH   1  16
BRANCH   4  26
ATOM     26  C   UNL     1       5.754   4.876  -1.074  0.00  0.00    +0.262 C 
ATOM     27  O   UNL     1       6.911   5.117  -0.787  0.00  0.00    -0.269 OA
ATOM     28  N   UNL     1       5.081   5.696  -1.905  0.00  0.00    -0.324 N 
ATOM     29  H   UNL     1       4.158   5.503  -2.134  0.00  0.00    +0.145 HD
ATOM     30  H   UNL     1       5.519   6.478  -2.275  0.00  0.00    +0.145 HD
ENDBRANCH   4  26
TORSDOF 3
