REMARK  Name = CHEMBL315486
REMARK  8 active torsions:
REMARK  status: ('A' for Active; 'I' for Inactive)
REMARK    1  A    between atoms: C_3  and  C_24
REMARK    2  A    between atoms: C_9  and  O_23
REMARK    3  A    between atoms: C_10  and  N_11
REMARK    4  A    between atoms: N_12  and  C_13
REMARK    5  A    between atoms: C_16  and  S_19
REMARK    6  A    between atoms: S_19  and  N_22
REMARK    7  A    between atoms: C_24  and  C_25
REMARK    8  A    between atoms: C_25  and  C_26
REMARK                            x       y       z     vdW  Elec       q    Type
REMARK                         _______ _______ _______ _____ _____    ______ ____
ROOT
ATOM      1  C   UNL     1       0.418   1.186  -0.934  0.00  0.00    +0.002 A 
ATOM      2  C   UNL     1       1.677   1.753  -0.802  0.00  0.00    +0.004 A 
ATOM      3  C   UNL     1       2.778   0.955  -0.573  0.00  0.00    -0.036 A 
ATOM      4  C   UNL     1       2.620  -0.425  -0.474  0.00  0.00    +0.034 A 
ATOM      5  C   UNL     1       1.347  -1.000  -0.608  0.00  0.00    +0.052 A 
ATOM      6  C   UNL     1       0.249  -0.179  -0.839  0.00  0.00    +0.026 A 
ATOM      7  N   UNL     1       1.484  -2.370  -0.468  0.00  0.00    -0.324 N 
ATOM      8  H   UNL     1       0.754  -3.007  -0.518  0.00  0.00    +0.169 HD
ATOM      9  C   UNL     1       2.786  -2.698  -0.251  0.00  0.00    +0.219 A 
ATOM     10  C   UNL     1       3.554  -1.544  -0.241  0.00  0.00    +0.155 A 
ENDROOT
BRANCH  10  11
ATOM     11  N   UNL     1       4.887  -1.460  -0.056  0.00  0.00    -0.143 NA
ATOM     12  N   UNL     1       5.591  -2.535   0.060  0.00  0.00    -0.149 NA
BRANCH  12  13
ATOM     13  C   UNL     1       6.922  -2.451   0.364  0.00  0.00    +0.086 A 
ATOM     14  C   UNL     1       7.496  -1.214   0.668  0.00  0.00    +0.031 A 
ATOM     15  C   UNL     1       8.838  -1.137   0.975  0.00  0.00    +0.030 A 
ATOM     16  C   UNL     1       9.617  -2.282   0.982  0.00  0.00    +0.105 A 
ATOM     17  C   UNL     1       9.055  -3.510   0.681  0.00  0.00    +0.030 A 
ATOM     18  C   UNL     1       7.712  -3.603   0.378  0.00  0.00    +0.031 A 
BRANCH  16  19
ATOM     19  S   UNL     1      11.331  -2.174   1.374  0.00  0.00    +0.056 S 
ATOM     20  O   UNL     1      11.955  -3.304   0.780  0.00  0.00    -0.153 OA
ATOM     21  O   UNL     1      11.731  -0.842   1.084  0.00  0.00    -0.153 OA
BRANCH  19  22
ATOM     22  N   UNL     1      11.470  -2.364   3.013  0.00  0.00    -0.204 NA
ATOM     23  H   UNL     1      12.271  -2.763   3.389  0.00  0.00    +0.144 HD
ATOM     24  H   UNL     1      10.752  -2.077   3.598  0.00  0.00    +0.144 HD
ENDBRANCH  19  22
ENDBRANCH  16  19
ENDBRANCH  12  13
ENDBRANCH  10  11
BRANCH   9  25
ATOM     25  O   UNL     1       3.258  -3.953  -0.073  0.00  0.00    -0.492 OA
ATOM     26  H   UNL     1       3.521  -4.394  -0.892  0.00  0.00    +0.294 HD
ENDBRANCH   9  25
BRANCH   3  27
ATOM     27  C   UNL     1       4.144   1.574  -0.430  0.00  0.00    +0.040 C 
BRANCH  27  28
ATOM     28  C   UNL     1       4.848   1.576  -1.789  0.00  0.00    +0.040 C 
BRANCH  28  29
ATOM     29  C   UNL     1       6.160   2.307  -1.674  0.00  0.00    -0.044 A 
ATOM     30  C   UNL     1       6.245   3.662  -1.956  0.00  0.00    +0.023 A 
ATOM     31  C   UNL     1       7.466   4.299  -1.839  0.00  0.00    +0.111 A 
ATOM     32  N   UNL     1       8.541   3.633  -1.466  0.00  0.00    -0.263 NA
ATOM     33  C   UNL     1       8.498   2.345  -1.190  0.00  0.00    +0.111 A 
ATOM     34  C   UNL     1       7.311   1.642  -1.278  0.00  0.00    +0.023 A 
ENDBRANCH  28  29
ENDBRANCH  27  28
ENDBRANCH   3  27
TORSDOF 8
