REMARK  Name = CHEMBL1076721
REMARK  5 active torsions:
REMARK  status: ('A' for Active; 'I' for Inactive)
REMARK    1  A    between atoms: C_1  and  O_2
REMARK    2  A    between atoms: O_2  and  C_3
REMARK    3  A    between atoms: C_6  and  C_9
REMARK    4  A    between atoms: N_15  and  N_16
REMARK    5  A    between atoms: N_16  and  C_17
REMARK                            x       y       z     vdW  Elec       q    Type
REMARK                         _______ _______ _______ _____ _____    ______ ____
ROOT
ATOM      1  C   UNL     1       2.494  -2.494  -4.365  0.00  0.00    +0.121 C 
ATOM      2  N   UNL     1       3.069  -1.894  -5.373  0.00  0.00    -0.177 NA
ATOM      3  N   UNL     1       3.588  -2.816  -6.282  0.00  0.00    -0.201 N 
ATOM      4  C   UNL     1       3.348  -4.074  -5.861  0.00  0.00    +0.285 C 
ATOM      5  O   UNL     1       3.670  -5.107  -6.423  0.00  0.00    -0.267 OA
ATOM      6  C   UNL     1       2.627  -3.949  -4.585  0.00  0.00    +0.172 C 
ATOM      7  N   UNL     1       2.192  -4.923  -3.808  0.00  0.00    -0.175 NA
ATOM      8  H   UNL     1       4.054  -2.584  -7.100  0.00  0.00    +0.178 HD
ENDROOT
BRANCH   1  12
ATOM      9  C   UNL     1       0.606  -0.607  -1.055  0.00  0.00    +0.120 A 
ATOM     10  C   UNL     1       1.172   0.164  -2.062  0.00  0.00    +0.046 A 
ATOM     11  C   UNL     1       1.786  -0.444  -3.136  0.00  0.00    +0.014 A 
ATOM     12  C   UNL     1       1.836  -1.836  -3.212  0.00  0.00    +0.004 A 
ATOM     13  C   UNL     1       1.266  -2.608  -2.199  0.00  0.00    +0.014 A 
ATOM     14  C   UNL     1       0.659  -1.993  -1.125  0.00  0.00    +0.046 A 
BRANCH   9  16
ATOM     15  C   UNL     1      -0.017   1.425   0.010  0.00  0.00    +0.277 C 
ATOM     16  O   UNL     1       0.002  -0.004   0.002  0.00  0.00    -0.495 OA
ENDBRANCH   9  16
ENDBRANCH   1  12
BRANCH   7  17
ATOM     17  N   UNL     1       2.389  -6.152  -4.144  0.00  0.00    -0.236 N 
ATOM     18  H   UNL     1       2.857  -6.361  -4.967  0.00  0.00    +0.174 HD
BRANCH  17  19
ATOM     19  C   UNL     1       1.929  -7.182  -3.322  0.00  0.00    +0.066 A 
ATOM     20  C   UNL     1       2.142  -8.515  -3.672  0.00  0.00    +0.028 A 
ATOM     21  C   UNL     1       1.667  -9.501  -2.824  0.00  0.00    +0.022 A 
ATOM     22  C   UNL     1       1.002  -9.136  -1.668  0.00  0.00    +0.111 A 
ATOM     23  N   UNL     1       0.817  -7.865  -1.365  0.00  0.00    -0.261 NA
ATOM     24  C   UNL     1       1.258  -6.895  -2.140  0.00  0.00    +0.135 A 
ENDBRANCH  17  19
ENDBRANCH   7  17
TORSDOF 4
