REMARK  Name = CHEMBL193210
REMARK  5 active torsions:
REMARK  status: ('A' for Active; 'I' for Inactive)
REMARK    1  A    between atoms: C_1  and  C_2
REMARK    2  A    between atoms: C_2  and  C_3
REMARK    3  A    between atoms: C_2  and  C_15
REMARK    4  A    between atoms: C_6  and  N_9
REMARK    5  A    between atoms: C_20  and  C_24
REMARK                            x       y       z     vdW  Elec       q    Type
REMARK                         _______ _______ _______ _____ _____    ______ ____
ROOT
ATOM      1  C   UNL     1      -0.019   1.526   0.010  0.00  0.00    +0.022 C 
ATOM      2  C   UNL     1       0.002  -0.004   0.002  0.00  0.00    +0.102 C 
ENDROOT
BRANCH   2   3
ATOM      3  C   UNL     1      -1.412  -0.526   0.013  0.00  0.00    +0.225 C 
ATOM      4  O   UNL     1      -1.808  -1.224  -0.897  0.00  0.00    -0.275 OA
ATOM      5  N   UNL     1      -2.236  -0.217   1.033  0.00  0.00    -0.268 N 
ATOM      6  C   UNL     1      -3.551  -0.702   1.043  0.00  0.00    +0.147 A 
ATOM      7  C   UNL     1      -4.136  -1.520   0.063  0.00  0.00    +0.068 A 
ATOM      8  C   UNL     1      -5.412  -1.768   0.437  0.00  0.00    +0.041 A 
ATOM      9  N   UNL     1      -5.631  -1.134   1.608  0.00  0.00    -0.280 N 
ATOM     10  H   UNL     1      -6.460  -1.136   2.111  0.00  0.00    +0.189 HD
ATOM     11  N   UNL     1      -4.449  -0.476   1.973  0.00  0.00    -0.158 NA
ATOM     12  H   UNL     1      -1.920   0.341   1.761  0.00  0.00    +0.156 HD
BRANCH   8  13
ATOM     13  C   UNL     1      -6.412  -2.604  -0.320  0.00  0.00    +0.037 C 
ATOM     14  C   UNL     1      -7.881  -2.184  -0.248  0.00  0.00    +0.010 C 
ATOM     15  C   UNL     1      -7.404  -3.432   0.498  0.00  0.00    +0.010 C 
ENDBRANCH   8  13
ENDBRANCH   2   3
BRANCH   2  16
ATOM     16  C   UNL     1       0.707  -0.490  -1.238  0.00  0.00    -0.036 A 
ATOM     17  C   UNL     1       0.221  -0.150  -2.487  0.00  0.00    +0.006 A 
ATOM     18  C   UNL     1       0.865  -0.594  -3.625  0.00  0.00    +0.026 A 
ATOM     19  C   UNL     1       2.003  -1.382  -3.514  0.00  0.00    +0.051 A 
ATOM     20  C   UNL     1       2.489  -1.721  -2.259  0.00  0.00    +0.026 A 
ATOM     21  C   UNL     1       1.843  -1.270  -1.124  0.00  0.00    +0.006 A 
BRANCH  19  22
ATOM     22  N   UNL     1       2.658  -1.834  -4.667  0.00  0.00    -0.268 N 
ATOM     23  C   UNL     1       2.284  -1.566  -5.976  0.00  0.00    +0.114 A 
ATOM     24  C   UNL     1       3.153  -2.169  -6.781  0.00  0.00    +0.105 A 
ATOM     25  N   UNL     1       4.084  -2.824  -5.989  0.00  0.00    -0.313 N 
ATOM     26  C   UNL     1       3.766  -2.601  -4.699  0.00  0.00    +0.331 A 
ATOM     27  O   UNL     1       4.372  -3.022  -3.730  0.00  0.00    -0.246 OA
ATOM     28  H   UNL     1       4.836  -3.348  -6.308  0.00  0.00    +0.170 HD
ENDBRANCH  19  22
ENDBRANCH   2  16
TORSDOF 4
