REMARK  Name = CHEMBL367363
REMARK  2 active torsions:
REMARK  status: ('A' for Active; 'I' for Inactive)
REMARK    1  A    between atoms: C_3  and  N_7
REMARK    2  A    between atoms: C_18  and  C_20
REMARK                            x       y       z     vdW  Elec       q    Type
REMARK                         _______ _______ _______ _____ _____    ______ ____
ROOT
ATOM      1  N   UNL     1       3.606   1.996  -0.022  0.00  0.00    -0.229 N 
ATOM      2  C   UNL     1       4.740   1.553   0.600  0.00  0.00    +0.086 A 
ATOM      3  C   UNL     1       5.747   2.486   0.351  0.00  0.00    +0.033 A 
ATOM      4  C   UNL     1       7.050   2.314   0.862  0.00  0.00    +0.014 A 
ATOM      5  C   UNL     1       7.398   1.249   1.613  0.00  0.00    +0.031 A 
ATOM      6  C   UNL     1       6.413   0.219   1.927  0.00  0.00    +0.095 A 
ATOM      7  C   UNL     1       5.045   0.374   1.407  0.00  0.00    +0.046 A 
ATOM      8  C   UNL     1       4.333  -0.720   1.846  0.00  0.00    +0.115 A 
ATOM      9  N   UNL     1       5.162  -1.489   2.570  0.00  0.00    -0.284 N 
ATOM     10  N   UNL     1       6.434  -0.906   2.614  0.00  0.00    -0.174 NA
ATOM     11  H   UNL     1       4.917  -2.324   2.999  0.00  0.00    +0.188 HD
ATOM     12  C   UNL     1       5.136   3.537  -0.475  0.00  0.00    +0.155 A 
ATOM     13  N   UNL     1       3.878   3.203  -0.673  0.00  0.00    -0.160 NA
ENDROOT
BRANCH   1  16
ATOM     14  C   UNL     1      -0.017   1.378   0.010  0.00  0.00    +0.022 A 
ATOM     15  C   UNL     1       1.183   2.071   0.002  0.00  0.00    +0.031 A 
ATOM     16  C   UNL     1       2.369   1.341  -0.013  0.00  0.00    +0.084 A 
ATOM     17  C   UNL     1       2.305  -0.046  -0.020  0.00  0.00    +0.138 A 
ATOM     18  N   UNL     1       1.143  -0.666  -0.012  0.00  0.00    -0.261 NA
ATOM     19  C   UNL     1       0.002  -0.004   0.002  0.00  0.00    +0.111 A 
ENDBRANCH   1  16
BRANCH  12  20
ATOM     20  C   UNL     1       5.810   4.742  -0.991  0.00  0.00    +0.262 C 
ATOM     21  O   UNL     1       6.984   4.936  -0.742  0.00  0.00    -0.269 OA
ATOM     22  N   UNL     1       5.125   5.628  -1.740  0.00  0.00    -0.324 N 
ATOM     23  H   UNL     1       4.188   5.473  -1.940  0.00  0.00    +0.145 HD
ATOM     24  H   UNL     1       5.568   6.421  -2.080  0.00  0.00    +0.145 HD
ENDBRANCH  12  20
TORSDOF 2
