REMARK  Name = CHEMBL312657
REMARK  7 active torsions:
REMARK  status: ('A' for Active; 'I' for Inactive)
REMARK    1  A    between atoms: C_1  and  C_2
REMARK    2  A    between atoms: C_2  and  C_3
REMARK    3  A    between atoms: C_3  and  C_4
REMARK    4  A    between atoms: C_4  and  O_5
REMARK    5  A    between atoms: O_5  and  C_6
REMARK    6  A    between atoms: C_7  and  C_15
REMARK    7  A    between atoms: C_15  and  C_17
REMARK                            x       y       z     vdW  Elec       q    Type
REMARK                         _______ _______ _______ _____ _____    ______ ____
ROOT
ATOM      1  C   UNL     1       1.553  -3.856   2.520  0.00  0.00    +0.145 A 
ATOM      2  C   UNL     1       0.585  -4.589   3.217  0.00  0.00    +0.086 A 
ATOM      3  C   UNL     1       0.729  -5.980   3.368  0.00  0.00    +0.128 A 
ATOM      4  N   UNL     1       1.746  -6.636   2.879  0.00  0.00    -0.233 NA
ATOM      5  C   UNL     1       2.727  -6.017   2.195  0.00  0.00    +0.185 A 
ATOM      6  N   UNL     1       3.836  -6.426   1.610  0.00  0.00    -0.154 NA
ATOM      7  N   UNL     1       4.486  -5.327   1.040  0.00  0.00    -0.282 N 
ATOM      8  C   UNL     1       3.781  -4.211   1.266  0.00  0.00    +0.118 A 
ATOM      9  C   UNL     1       2.653  -4.563   1.984  0.00  0.00    +0.081 A 
ATOM     10  H   UNL     1       5.324  -5.367   0.553  0.00  0.00    +0.188 HD
ENDROOT
BRANCH   2  11
ATOM     11  C   UNL     1      -0.584  -3.904   3.791  0.00  0.00    +0.233 C 
ATOM     12  O   UNL     1      -0.657  -2.689   3.753  0.00  0.00    -0.283 OA
BRANCH  11  13
ATOM     13  C   UNL     1      -1.661  -4.685   4.409  0.00  0.00    +0.175 A 
ATOM     14  C   UNL     1      -2.841  -4.188   4.885  0.00  0.00    +0.053 A 
ATOM     15  C   UNL     1      -3.566  -5.281   5.386  0.00  0.00    +0.042 A 
ATOM     16  C   UNL     1      -2.807  -6.383   5.196  0.00  0.00    +0.196 A 
ATOM     17  O   UNL     1      -1.662  -6.020   4.602  0.00  0.00    -0.460 OA
ENDBRANCH  11  13
ENDBRANCH   2  11
BRANCH   1  18
ATOM     18  O   UNL     1       1.437  -2.519   2.361  0.00  0.00    -0.490 OA
BRANCH  18  19
ATOM     19  C   UNL     1       0.735  -2.062   1.204  0.00  0.00    +0.229 C 
BRANCH  19  20
ATOM     20  C   UNL     1       0.706  -0.532   1.196  0.00  0.00    +0.041 C 
BRANCH  20  22
ATOM     21  C   UNL     1      -0.074   1.487  -0.052  0.00  0.00    +0.004 C 
ATOM     22  C   UNL     1      -0.045  -0.042  -0.044  0.00  0.00    -0.000 C 
ENDBRANCH  20  22
ENDBRANCH  19  20
ENDBRANCH  18  19
ENDBRANCH   1  18
TORSDOF 6
