REMARK  Name = CHEMBL340012
REMARK  9 active torsions:
REMARK  status: ('A' for Active; 'I' for Inactive)
REMARK    1  A    between atoms: C_1  and  C_2
REMARK    2  A    between atoms: C_8  and  S_10
REMARK    3  A    between atoms: S_10  and  C_11
REMARK    4  A    between atoms: C_11  and  C_12
REMARK    5  A    between atoms: C_12  and  O_14
REMARK    6  A    between atoms: O_14  and  C_15
REMARK    7  A    between atoms: C_15  and  C_16
REMARK    8  A    between atoms: C_15  and  C_17
REMARK    9  A    between atoms: C_15  and  C_18
REMARK                            x       y       z     vdW  Elec       q    Type
REMARK                         _______ _______ _______ _____ _____    ______ ____
ROOT
ATOM      1  C   UNL     1      -0.018   1.503   0.010  0.00  0.00    +0.109 C 
ATOM      2  C   UNL     1       0.002  -0.004   0.002  0.00  0.00    +0.216 C 
ATOM      3  O   UNL     1       1.061  -0.596  -0.011  0.00  0.00    -0.276 OA
ATOM      4  N   UNL     1      -1.156  -0.694   0.009  0.00  0.00    -0.265 N 
ATOM      5  C   UNL     1      -1.137  -2.086   0.002  0.00  0.00    +0.165 A 
ATOM      6  N   UNL     1      -0.104  -2.908  -0.007  0.00  0.00    -0.232 NA
ATOM      7  C   UNL     1      -0.270  -4.218  -0.013  0.00  0.00    +0.135 A 
ATOM      8  C   UNL     1      -1.530  -4.737  -0.011  0.00  0.00    +0.067 A 
ATOM      9  S   UNL     1      -2.504  -3.237   0.009  0.00  0.00    -0.046 S 
ATOM     10  H   UNL     1      -2.002  -0.220   0.020  0.00  0.00    +0.157 HD
ENDROOT
BRANCH   8  11
ATOM     11  S   UNL     1      -2.054  -6.419  -0.019  0.00  0.00    -0.105 S 
BRANCH  11  12
ATOM     12  C   UNL     1      -3.865  -6.314  -0.011  0.00  0.00    +0.195 C 
BRANCH  12  13
ATOM     13  C   UNL     1      -4.448  -7.704  -0.017  0.00  0.00    +0.318 C 
ATOM     14  O   UNL     1      -3.717  -8.666  -0.025  0.00  0.00    -0.250 OA
BRANCH  13  15
ATOM     15  O   UNL     1      -5.780  -7.873  -0.013  0.00  0.00    -0.458 OA
BRANCH  15  16
ATOM     16  C   UNL     1      -6.263  -9.218  -0.018  0.00  0.00    +0.105 C 
ATOM     17  C   UNL     1      -5.752  -9.949   1.224  0.00  0.00    +0.055 C 
ATOM     18  C   UNL     1      -7.793  -9.210  -0.012  0.00  0.00    +0.055 C 
ATOM     19  C   UNL     1      -5.762  -9.934  -1.274  0.00  0.00    +0.055 C 
ENDBRANCH  15  16
ENDBRANCH  13  15
ENDBRANCH  12  13
ENDBRANCH  11  12
ENDBRANCH   8  11
TORSDOF 5
