REMARK  Name = CHEMBL260231
REMARK  2 active torsions:
REMARK  status: ('A' for Active; 'I' for Inactive)
REMARK    1  A    between atoms: C_3  and  C_6
REMARK    2  A    between atoms: C_17  and  C_19
REMARK                            x       y       z     vdW  Elec       q    Type
REMARK                         _______ _______ _______ _____ _____    ______ ____
ROOT
ATOM      1  C   UNL     1       3.737   1.824  -0.025  0.00  0.00    +0.094 A 
ATOM      2  C   UNL     1       4.729   1.106   0.658  0.00  0.00    +0.045 A 
ATOM      3  C   UNL     1       6.018   1.562   0.650  0.00  0.00    +0.032 A 
ATOM      4  C   UNL     1       6.300   2.744  -0.049  0.00  0.00    +0.061 A 
ATOM      5  C   UNL     1       5.260   3.421  -0.716  0.00  0.00    +0.158 A 
ATOM      6  N   UNL     1       4.025   2.937  -0.685  0.00  0.00    -0.226 NA
ATOM      7  N   UNL     1       5.823   4.524  -1.302  0.00  0.00    -0.258 N 
ATOM      8  H   UNL     1       5.346   5.182  -1.831  0.00  0.00    +0.191 HD
ATOM      9  N   UNL     1       7.191   4.552  -1.016  0.00  0.00    -0.156 NA
ATOM     10  C   UNL     1       7.516   3.522  -0.281  0.00  0.00    +0.156 A 
ATOM     11  N   UNL     1       8.795   3.219   0.199  0.00  0.00    -0.268 N 
ATOM     12  C   UNL     1       9.833   4.028  -0.092  0.00  0.00    +0.221 C 
ATOM     13  O   UNL     1       9.658   5.019  -0.770  0.00  0.00    -0.275 OA
ATOM     14 BR   UNL     1       4.287  -0.482   1.585  0.00  0.00    -0.048 Br
ATOM     15  H   UNL     1       8.935   2.427   0.741  0.00  0.00    +0.156 HD
ENDROOT
BRANCH   1  18
ATOM     16  C   UNL     1      -0.016   1.355   0.009  0.00  0.00    +0.008 A 
ATOM     17  C   UNL     1       1.176   2.042   0.002  0.00  0.00    +0.018 A 
ATOM     18  C   UNL     1       2.347   1.329  -0.013  0.00  0.00    +0.039 A 
ATOM     19  S   UNL     1       1.752  -0.354  -0.017  0.00  0.00    -0.095 S 
ATOM     20  C   UNL     1       0.002  -0.004   0.002  0.00  0.00    +0.046 A 
ENDBRANCH   1  18
BRANCH  12  21
ATOM     21  C   UNL     1      11.211   3.702   0.424  0.00  0.00    +0.075 C 
ATOM     22  C   UNL     1      11.803   4.627   1.489  0.00  0.00    +0.013 C 
ATOM     23  C   UNL     1      12.347   4.659   0.059  0.00  0.00    +0.013 C 
ENDBRANCH  12  21
TORSDOF 2
