REMARK  Name = CHEMBL193288
REMARK  6 active torsions:
REMARK  status: ('A' for Active; 'I' for Inactive)
REMARK    1  A    between atoms: C_1  and  C_2
REMARK    2  A    between atoms: C_2  and  C_3
REMARK    3  A    between atoms: C_2  and  C_16
REMARK    4  A    between atoms: C_6  and  N_9
REMARK    5  A    between atoms: N_18  and  C_19
REMARK    6  A    between atoms: C_21  and  C_25
REMARK                            x       y       z     vdW  Elec       q    Type
REMARK                         _______ _______ _______ _____ _____    ______ ____
ROOT
ATOM      1  C   UNL     1      -0.019   1.526   0.010  0.00  0.00    +0.022 C 
ATOM      2  C   UNL     1       0.002  -0.004   0.002  0.00  0.00    +0.102 C 
ENDROOT
BRANCH   2   3
ATOM      3  C   UNL     1       0.707  -0.490  -1.238  0.00  0.00    -0.036 A 
ATOM      4  C   UNL     1       2.026  -0.141  -1.463  0.00  0.00    +0.006 A 
ATOM      5  C   UNL     1       2.676  -0.584  -2.599  0.00  0.00    +0.024 A 
ATOM      6  C   UNL     1       2.002  -1.382  -3.514  0.00  0.00    +0.038 A 
ATOM      7  C   UNL     1       0.678  -1.732  -3.285  0.00  0.00    +0.024 A 
ATOM      8  C   UNL     1       0.036  -1.289  -2.145  0.00  0.00    +0.006 A 
BRANCH   6   9
ATOM      9  N   UNL     1       2.657  -1.833  -4.666  0.00  0.00    -0.246 N 
ATOM     10  C   UNL     1       2.086  -2.676  -5.730  0.00  0.00    +0.211 C 
ATOM     11  C   UNL     1       3.233  -2.843  -6.707  0.00  0.00    +0.238 C 
ATOM     12  O   UNL     1       3.225  -3.466  -7.747  0.00  0.00    -0.274 OA
ATOM     13  N   UNL     1       4.264  -2.154  -6.179  0.00  0.00    -0.238 N 
ATOM     14  C   UNL     1       3.930  -1.577  -5.019  0.00  0.00    +0.313 C 
ATOM     15  O   UNL     1       4.691  -0.899  -4.358  0.00  0.00    -0.252 OA
ATOM     16  H   UNL     1       5.140  -2.083  -6.591  0.00  0.00    +0.159 HD
ENDBRANCH   6   9
ENDBRANCH   2   3
BRANCH   2  17
ATOM     17  C   UNL     1       0.731  -0.503   1.223  0.00  0.00    +0.225 C 
ATOM     18  O   UNL     1       1.725  -1.187   1.099  0.00  0.00    -0.275 OA
ATOM     19  N   UNL     1       0.278  -0.191   2.453  0.00  0.00    -0.270 N 
ATOM     20  H   UNL     1      -0.517   0.356   2.553  0.00  0.00    +0.156 HD
BRANCH  19  21
ATOM     21  C   UNL     1       0.952  -0.653   3.583  0.00  0.00    +0.121 A 
ATOM     22  C   UNL     1       2.074  -1.423   3.591  0.00  0.00    +0.068 A 
ATOM     23  C   UNL     1       2.422  -1.659   4.924  0.00  0.00    +0.068 A 
ATOM     24  N   UNL     1       1.548  -1.058   5.689  0.00  0.00    -0.177 NA
ATOM     25  H   UNL     1      -0.143   0.115   5.172  0.00  0.00    +0.190 HD
ATOM     26  N   UNL     1       0.614  -0.411   4.870  0.00  0.00    -0.264 N 
BRANCH  23  27
ATOM     27  C   UNL     1       3.601  -2.469   5.398  0.00  0.00    +0.040 C 
ATOM     28  C   UNL     1       4.274  -3.398   4.385  0.00  0.00    +0.010 C 
ATOM     29  C   UNL     1       3.419  -3.984   5.510  0.00  0.00    +0.010 C 
ENDBRANCH  23  27
ENDBRANCH  19  21
ENDBRANCH   2  17
TORSDOF 5
