REMARK  Name = CHEMBL460086
REMARK  9 active torsions:
REMARK  status: ('A' for Active; 'I' for Inactive)
REMARK    1  A    between atoms: C_1  and  C_2
REMARK    2  A    between atoms: C_5  and  C_10
REMARK    3  A    between atoms: N_6  and  C_7
REMARK    4  A    between atoms: C_7  and  C_8
REMARK    5  A    between atoms: C_7  and  C_9
REMARK    6  A    between atoms: N_16  and  C_17
REMARK    7  A    between atoms: C_20  and  C_23
REMARK    8  A    between atoms: C_28  and  N_31
REMARK    9  A    between atoms: N_31  and  C_32
REMARK                            x       y       z     vdW  Elec       q    Type
REMARK                         _______ _______ _______ _____ _____    ______ ____
ROOT
ATOM      1  C   UNL     1       0.039  -7.916   1.718  0.00  0.00    +0.034 A 
ATOM      2  C   UNL     1      -0.295  -7.827   3.066  0.00  0.00    +0.024 A 
ATOM      3  C   UNL     1      -0.275  -8.952   3.858  0.00  0.00    +0.015 A 
ATOM      4  C   UNL     1       0.081 -10.186   3.306  0.00  0.00    +0.037 A 
ATOM      5  C   UNL     1       0.416 -10.272   1.952  0.00  0.00    +0.015 A 
ATOM      6  C   UNL     1       0.388  -9.144   1.164  0.00  0.00    +0.024 A 
ENDROOT
BRANCH   1  13
ATOM      7  C   UNL     1      -0.608  -5.853  -2.468  0.00  0.00    +0.094 A 
ATOM      8  C   UNL     1      -1.076  -7.066  -2.990  0.00  0.00    +0.050 A 
ATOM      9  C   UNL     1      -1.156  -8.158  -2.147  0.00  0.00    +0.116 A 
ATOM     10  N   UNL     1      -0.792  -8.027  -0.880  0.00  0.00    -0.223 NA
ATOM     11  C   UNL     1      -0.353  -6.867  -0.412  0.00  0.00    +0.220 A 
ATOM     12  N   UNL     1      -0.255  -5.797  -1.184  0.00  0.00    -0.213 NA
ATOM     13  N   UNL     1       0.017  -6.775   0.920  0.00  0.00    -0.284 N 
ATOM     14  H   UNL     1       0.262  -5.915   1.297  0.00  0.00    +0.155 HD
BRANCH   7  19
ATOM     15  C   UNL     1      -0.940  -2.708  -6.392  0.00  0.00    +0.086 C 
ATOM     16  C   UNL     1      -0.643  -3.283  -5.031  0.00  0.00    +0.107 A 
ATOM     17  N   UNL     1      -0.061  -2.647  -4.050  0.00  0.00    -0.240 NA
ATOM     18  C   UNL     1       0.043  -3.455  -2.991  0.00  0.00    +0.140 A 
ATOM     19  C   UNL     1      -0.503  -4.657  -3.328  0.00  0.00    +0.087 A 
ATOM     20  N   UNL     1      -0.942  -4.535  -4.629  0.00  0.00    -0.324 N 
BRANCH  20  21
ATOM     21  C   UNL     1      -1.605  -5.571  -5.425  0.00  0.00    +0.083 C 
ATOM     22  C   UNL     1      -3.022  -5.793  -4.894  0.00  0.00    +0.030 C 
ATOM     23  C   UNL     1      -1.672  -5.125  -6.887  0.00  0.00    +0.030 C 
ENDBRANCH  20  21
ENDBRANCH   7  19
ENDBRANCH   1  13
BRANCH   4  24
ATOM     24  C   UNL     1       0.105 -11.395   4.152  0.00  0.00    +0.247 C 
ATOM     25  O   UNL     1       0.278 -12.487   3.646  0.00  0.00    -0.270 OA
ATOM     26  N   UNL     1      -0.066 -11.289   5.484  0.00  0.00    -0.299 N 
ATOM     27  C   UNL     1      -0.407 -10.056   6.209  0.00  0.00    +0.106 C 
ATOM     28  C   UNL     1      -0.524 -10.420   7.704  0.00  0.00    +0.005 C 
ATOM     29  C   UNL     1      -0.799 -11.947   7.668  0.00  0.00    -0.052 C 
ATOM     30  C   UNL     1       0.053 -12.391   6.456  0.00  0.00    +0.092 C 
BRANCH  29  31
ATOM     31  N   UNL     1      -0.339 -12.593   8.905  0.00  0.00    +0.384 N 
ATOM     32  H   UNL     1       0.665 -12.517   8.971  0.00  0.00    -0.085 HD
ATOM     33  H   UNL     1      -0.764 -12.140   9.700  0.00  0.00    -0.085 HD
BRANCH  31  34
ATOM     34  C   UNL     1      -0.722 -14.012   8.887  0.00  0.00    -0.072 C 
ATOM     35  C   UNL     1      -1.704 -14.491   9.958  0.00  0.00    -0.017 C 
ATOM     36  C   UNL     1      -0.229 -14.890  10.039  0.00  0.00    -0.017 C 
ENDBRANCH  31  34
ENDBRANCH  29  31
ENDBRANCH   4  24
TORSDOF 6
