REMARK  Name = CHEMBL181114
REMARK  6 active torsions:
REMARK  status: ('A' for Active; 'I' for Inactive)
REMARK    1  A    between atoms: C_3  and  S_6
REMARK    2  A    between atoms: S_6  and  C_9
REMARK    3  A    between atoms: C_12  and  N_15
REMARK    4  A    between atoms: N_15  and  C_16
REMARK    5  A    between atoms: N_26  and  C_27
REMARK    6  A    between atoms: C_30  and  N_33
REMARK                            x       y       z     vdW  Elec       q    Type
REMARK                         _______ _______ _______ _____ _____    ______ ____
ROOT
ATOM      1  C   UNL     1       6.373   1.508   6.318  0.00  0.00    +0.130 A 
ATOM      2  C   UNL     1       6.699   0.332   5.708  0.00  0.00    +0.087 A 
ATOM      3  C   UNL     1       7.378  -0.656   6.438  0.00  0.00    +0.125 A 
ATOM      4  N   UNL     1       7.698  -0.447   7.704  0.00  0.00    -0.212 NA
ATOM      5  C   UNL     1       7.382   0.707   8.312  0.00  0.00    +0.178 A 
ATOM      6  N   UNL     1       6.724   1.698   7.631  0.00  0.00    -0.199 N 
ATOM      7  N   UNL     1       6.541   2.770   8.512  0.00  0.00    -0.170 NA
ATOM      8  C   UNL     1       7.064   2.457   9.675  0.00  0.00    +0.157 A 
ATOM      9  C   UNL     1       7.594   1.176   9.601  0.00  0.00    +0.105 A 
ATOM     10 CL   UNL     1       8.394   0.321  10.883  0.00  0.00    -0.078 Cl
ATOM     11  N   UNL     1       7.714  -1.855   5.831  0.00  0.00    -0.326 N 
ATOM     12  H   UNL     1       7.480  -2.011   4.903  0.00  0.00    +0.148 HD
ENDROOT
BRANCH  11  13
ATOM     13  C   UNL     1       8.423  -2.888   6.591  0.00  0.00    +0.072 C 
ATOM     14  C   UNL     1       9.927  -2.612   6.545  0.00  0.00    +0.020 C 
ATOM     15  C   UNL     1      10.668  -3.691   7.339  0.00  0.00    -0.014 C 
ATOM     16  C   UNL     1      10.382  -5.063   6.725  0.00  0.00    -0.075 C 
ATOM     17  C   UNL     1       8.877  -5.338   6.770  0.00  0.00    -0.014 C 
ATOM     18  C   UNL     1       8.137  -4.260   5.977  0.00  0.00    +0.020 C 
BRANCH  16  19
ATOM     19  N   UNL     1      11.092  -6.098   7.487  0.00  0.00    +0.380 N 
ATOM     20  H   UNL     1      10.777  -6.087   8.445  0.00  0.00    -0.090 HD
ATOM     21  H   UNL     1      10.904  -7.003   7.082  0.00  0.00    -0.090 HD
ATOM     22  H   UNL     1      12.085  -5.916   7.457  0.00  0.00    -0.090 HD
ENDBRANCH  16  19
ENDBRANCH  11  13
BRANCH   1  23
ATOM     23  N   UNL     1       5.706   2.496   5.622  0.00  0.00    -0.299 N 
ATOM     24  H   UNL     1       6.092   2.863   4.811  0.00  0.00    +0.154 HD
BRANCH  23  28
ATOM     25  C   UNL     1       2.037   3.900   7.003  0.00  0.00    +0.094 A 
ATOM     26  C   UNL     1       2.634   2.814   7.615  0.00  0.00    +0.029 A 
ATOM     27  C   UNL     1       3.851   2.345   7.160  0.00  0.00    +0.025 A 
ATOM     28  C   UNL     1       4.474   2.967   6.085  0.00  0.00    +0.032 A 
ATOM     29  C   UNL     1       3.871   4.058   5.472  0.00  0.00    +0.025 A 
ATOM     30  C   UNL     1       2.652   4.518   5.930  0.00  0.00    +0.029 A 
BRANCH  25  31
ATOM     31  S   UNL     1       0.485   4.495   7.588  0.00  0.00    +0.031 S 
ATOM     32  O   UNL     1       0.395   5.856   7.191  0.00  0.00    -0.164 OA
ATOM     33  O   UNL     1       0.380   4.089   8.946  0.00  0.00    -0.164 OA
BRANCH  31  36
ATOM     34  C   UNL     1      -2.354   1.965   6.169  0.00  0.00    +0.009 A 
ATOM     35  C   UNL     1      -1.386   2.463   7.020  0.00  0.00    +0.035 A 
ATOM     36  C   UNL     1      -0.771   3.629   6.706  0.00  0.00    +0.131 A 
ATOM     37  S   UNL     1      -1.564   4.061   5.166  0.00  0.00    -0.078 S 
ATOM     38  C   UNL     1      -2.661   2.658   5.045  0.00  0.00    +0.047 A 
ENDBRANCH  31  36
ENDBRANCH  25  31
ENDBRANCH  23  28
ENDBRANCH   1  23
TORSDOF 6
