REMARK  Name = CHEMBL436466
REMARK  3 active torsions:
REMARK  status: ('A' for Active; 'I' for Inactive)
REMARK    1  A    between atoms: C_1  and  C_2
REMARK    2  A    between atoms: N_4  and  C_5
REMARK    3  A    between atoms: C_18  and  C_19
REMARK                            x       y       z     vdW  Elec       q    Type
REMARK                         _______ _______ _______ _____ _____    ______ ____
ROOT
ATOM      1  C   UNL     1       0.111  -2.059  -1.126  0.00  0.00    +0.045 A 
ATOM      2  C   UNL     1       0.118  -2.721   0.097  0.00  0.00    +0.024 A 
ATOM      3  C   UNL     1       0.229  -4.095   0.143  0.00  0.00    +0.002 A 
ATOM      4  C   UNL     1       0.333  -4.832  -1.026  0.00  0.00    +0.011 A 
ATOM      5  C   UNL     1       0.328  -4.192  -2.259  0.00  0.00    +0.015 A 
ATOM      6  C   UNL     1       0.210  -2.792  -2.315  0.00  0.00    +0.053 A 
ATOM      7  C   UNL     1       0.223  -2.369  -3.730  0.00  0.00    +0.200 C 
ATOM      8  O   UNL     1       0.144  -1.225  -4.138  0.00  0.00    -0.286 OA
ATOM      9  C   UNL     1       0.348  -3.578  -4.557  0.00  0.00    +0.075 A 
ATOM     10  C   UNL     1       0.425  -4.720  -3.643  0.00  0.00    +0.105 A 
ATOM     11  N   UNL     1       0.541  -5.800  -4.376  0.00  0.00    -0.173 NA
ATOM     12  H   UNL     1       0.644  -6.065  -6.470  0.00  0.00    +0.189 HD
ATOM     13  N   UNL     1       0.565  -5.445  -5.728  0.00  0.00    -0.276 N 
ATOM     14  C   UNL     1       0.433  -4.093  -5.842  0.00  0.00    +0.079 A 
ENDROOT
BRANCH  14  15
ATOM     15  C   UNL     1       0.411  -3.319  -7.099  0.00  0.00    +0.019 A 
ATOM     16  C   UNL     1      -0.380  -3.735  -8.178  0.00  0.00    +0.013 A 
ATOM     17  C   UNL     1      -0.365  -2.973  -9.333  0.00  0.00    +0.020 A 
ATOM     18  C   UNL     1       0.422  -1.837  -9.386  0.00  0.00    +0.111 A 
ATOM     19  N   UNL     1       1.158  -1.469  -8.354  0.00  0.00    -0.263 NA
ATOM     20  C   UNL     1       1.173  -2.157  -7.231  0.00  0.00    +0.120 A 
ENDBRANCH  14  15
BRANCH   1  24
ATOM     21  C   UNL     1      -0.596   1.496  -0.136  0.00  0.00    +0.109 C 
ATOM     22  C   UNL     1      -0.586  -0.011  -0.150  0.00  0.00    +0.214 C 
ATOM     23  O   UNL     1      -1.104  -0.629   0.755  0.00  0.00    -0.276 OA
ATOM     24  N   UNL     1       0.000  -0.672  -1.169  0.00  0.00    -0.285 N 
ATOM     25  H   UNL     1       0.344  -0.181  -1.931  0.00  0.00    +0.155 HD
ENDBRANCH   1  24
TORSDOF 2
