REMARK  Name = CHEMBL186510
REMARK  4 active torsions:
REMARK  status: ('A' for Active; 'I' for Inactive)
REMARK    1  A    between atoms: C_1  and  C_2
REMARK    2  A    between atoms: C_2  and  C_3
REMARK    3  A    between atoms: C_2  and  C_4
REMARK    4  A    between atoms: N_12  and  C_13
REMARK                            x       y       z     vdW  Elec       q    Type
REMARK                         _______ _______ _______ _____ _____    ______ ____
ROOT
ATOM      1  C   UNL     1      -1.411  -0.528   0.015  0.00  0.00    +0.014 A 
ATOM      2  C   UNL     1      -2.050  -1.310  -0.889  0.00  0.00    +0.124 A 
ATOM      3  N   UNL     1      -3.307  -1.622  -0.629  0.00  0.00    -0.233 NA
ATOM      4  C   UNL     1      -3.904  -1.190   0.460  0.00  0.00    +0.166 A 
ATOM      5  S   UNL     1      -2.703  -0.291   1.224  0.00  0.00    -0.057 S 
ATOM      6  N   UNL     1      -5.208  -1.422   0.881  0.00  0.00    -0.248 N 
ATOM      7  C   UNL     1      -6.033  -2.179   0.131  0.00  0.00    +0.310 C 
ATOM      8  O   UNL     1      -5.636  -2.659  -0.913  0.00  0.00    -0.252 OA
ATOM      9  N   UNL     1      -7.298  -2.405   0.539  0.00  0.00    -0.269 N 
ATOM     10  H   UNL     1      -5.524  -1.039   1.714  0.00  0.00    +0.158 HD
ATOM     11  H   UNL     1      -7.594  -2.078   1.403  0.00  0.00    +0.156 HD
ENDROOT
BRANCH   9  12
ATOM     12  C   UNL     1      -8.183  -3.109  -0.284  0.00  0.00    +0.035 A 
ATOM     13  C   UNL     1      -9.529  -2.766  -0.313  0.00  0.00    +0.023 A 
ATOM     14  C   UNL     1     -10.400  -3.463  -1.127  0.00  0.00    +0.002 A 
ATOM     15  C   UNL     1      -9.934  -4.502  -1.912  0.00  0.00    +0.000 A 
ATOM     16  C   UNL     1      -8.595  -4.845  -1.886  0.00  0.00    +0.002 A 
ATOM     17  C   UNL     1      -7.718  -4.149  -1.079  0.00  0.00    +0.023 A 
ENDBRANCH   9  12
BRANCH   1  19
ATOM     18  C   UNL     1      -0.015   1.522   0.025  0.00  0.00    +0.013 C 
ATOM     19  C   UNL     1       0.004  -0.008   0.005  0.00  0.00    +0.021 C 
ATOM     20  C   UNL     1       0.745  -0.525   1.240  0.00  0.00    +0.013 C 
ENDBRANCH   1  19
TORSDOF 2
