REMARK  Name = CHEMBL192440
REMARK  6 active torsions:
REMARK  status: ('A' for Active; 'I' for Inactive)
REMARK    1  A    between atoms: C_1  and  C_2
REMARK    2  A    between atoms: C_2  and  C_3
REMARK    3  A    between atoms: C_2  and  C_21
REMARK    4  A    between atoms: C_6  and  N_9
REMARK    5  A    between atoms: C_10  and  C_15
REMARK    6  A    between atoms: C_26  and  C_30
REMARK                            x       y       z     vdW  Elec       q    Type
REMARK                         _______ _______ _______ _____ _____    ______ ____
ROOT
ATOM      1  C   UNL     1       0.731  -0.503   1.223  0.00  0.00    -0.036 A 
ATOM      2  C   UNL     1       2.041  -0.121   1.449  0.00  0.00    +0.006 A 
ATOM      3  C   UNL     1       2.711  -0.577   2.567  0.00  0.00    +0.024 A 
ATOM      4  C   UNL     1       2.069  -1.419   3.465  0.00  0.00    +0.037 A 
ATOM      5  C   UNL     1       0.754  -1.801   3.235  0.00  0.00    +0.024 A 
ATOM      6  C   UNL     1       0.087  -1.338   2.118  0.00  0.00    +0.006 A 
ENDROOT
BRANCH   4   7
ATOM      7  N   UNL     1       2.746  -1.883   4.598  0.00  0.00    -0.264 N 
ATOM      8  C   UNL     1       2.123  -2.667   5.672  0.00  0.00    +0.112 C 
ATOM      9  C   UNL     1       3.095  -2.571   6.869  0.00  0.00    +0.037 C 
ATOM     10  C   UNL     1       4.443  -2.303   6.160  0.00  0.00    +0.098 C 
ATOM     11  C   UNL     1       4.051  -1.674   4.841  0.00  0.00    +0.220 C 
ATOM     12  O   UNL     1       4.805  -1.067   4.109  0.00  0.00    -0.275 OA
BRANCH   8  13
ATOM     13  C   UNL     1       0.785  -2.078   6.038  0.00  0.00    -0.027 A 
ATOM     14  C   UNL     1       0.625  -0.706   6.092  0.00  0.00    +0.005 A 
ATOM     15  C   UNL     1      -0.602  -0.166   6.428  0.00  0.00    +0.000 A 
ATOM     16  C   UNL     1      -1.669  -0.998   6.710  0.00  0.00    +0.000 A 
ATOM     17  C   UNL     1      -1.510  -2.370   6.655  0.00  0.00    +0.000 A 
ATOM     18  C   UNL     1      -0.284  -2.910   6.314  0.00  0.00    +0.005 A 
ENDBRANCH   8  13
ENDBRANCH   4   7
BRANCH   1  20
ATOM     19  C   UNL     1      -0.052   1.525   0.030  0.00  0.00    +0.022 C 
ATOM     20  C   UNL     1       0.002  -0.004   0.002  0.00  0.00    +0.102 C 
BRANCH  20  21
ATOM     21  C   UNL     1       0.729  -0.459  -1.238  0.00  0.00    +0.225 C 
ATOM     22  O   UNL     1       1.739  -1.123  -1.139  0.00  0.00    -0.275 OA
ATOM     23  N   UNL     1       0.256  -0.127  -2.455  0.00  0.00    -0.268 N 
ATOM     24  C   UNL     1       0.931  -0.550  -3.608  0.00  0.00    +0.147 A 
ATOM     25  C   UNL     1       2.102  -1.324  -3.641  0.00  0.00    +0.068 A 
ATOM     26  C   UNL     1       2.436  -1.518  -4.937  0.00  0.00    +0.041 A 
ATOM     27  N   UNL     1       1.514  -0.892  -5.700  0.00  0.00    -0.280 N 
ATOM     28  H   UNL     1       1.502  -0.864  -6.669  0.00  0.00    +0.189 HD
ATOM     29  N   UNL     1       0.577  -0.297  -4.846  0.00  0.00    -0.158 NA
ATOM     30  H   UNL     1      -0.552   0.404  -2.534  0.00  0.00    +0.156 HD
BRANCH  26  31
ATOM     31  C   UNL     1       3.626  -2.294  -5.441  0.00  0.00    +0.037 C 
ATOM     32  C   UNL     1       4.293  -1.807  -6.729  0.00  0.00    +0.010 C 
ATOM     33  C   UNL     1       3.454  -3.087  -6.738  0.00  0.00    +0.010 C 
ENDBRANCH  26  31
ENDBRANCH  20  21
ENDBRANCH   1  20
TORSDOF 5
