REMARK  Name = CHEMBL475948
REMARK  10 active torsions:
REMARK  status: ('A' for Active; 'I' for Inactive)
REMARK    1  A    between atoms: C_1  and  C_2
REMARK    2  A    between atoms: C_5  and  C_10
REMARK    3  A    between atoms: N_6  and  C_7
REMARK    4  A    between atoms: C_7  and  C_8
REMARK    5  A    between atoms: C_7  and  C_9
REMARK    6  A    between atoms: N_16  and  C_17
REMARK    7  A    between atoms: C_20  and  N_23
REMARK    8  A    between atoms: C_27  and  C_29
REMARK    9  A    between atoms: N_31  and  C_32
REMARK   10  A    between atoms: N_31  and  C_33
REMARK                            x       y       z     vdW  Elec       q    Type
REMARK                         _______ _______ _______ _____ _____    ______ ____
ROOT
ATOM      1  C   UNL     1       1.124  -3.775   1.009  0.00  0.00    +0.129 A 
ATOM      2  C   UNL     1       2.185  -3.857   1.922  0.00  0.00    +0.169 A 
ATOM      3  C   UNL     1       2.283  -4.985   2.717  0.00  0.00    +0.155 A 
ATOM      4  N   UNL     1       1.379  -5.946   2.593  0.00  0.00    -0.220 NA
ATOM      5  C   UNL     1       0.386  -5.842   1.722  0.00  0.00    +0.220 A 
ATOM      6  N   UNL     1       0.250  -4.780   0.945  0.00  0.00    -0.210 NA
ATOM      7  N   UNL     1      -0.537  -6.872   1.625  0.00  0.00    -0.284 N 
ATOM      8  F   UNL     1       3.090  -2.859   2.023  0.00  0.00    -0.202 F 
ATOM      9  H   UNL     1      -1.222  -6.846   0.940  0.00  0.00    +0.155 HD
ENDROOT
BRANCH   1  14
ATOM     10  C   UNL     1       0.945   0.978  -0.658  0.00  0.00    +0.086 C 
ATOM     11  C   UNL     1       0.893  -0.527  -0.595  0.00  0.00    +0.107 A 
ATOM     12  N   UNL     1       0.626  -1.320  -1.599  0.00  0.00    -0.240 NA
ATOM     13  C   UNL     1       0.665  -2.591  -1.189  0.00  0.00    +0.140 A 
ATOM     14  C   UNL     1       0.974  -2.593   0.138  0.00  0.00    +0.090 A 
ATOM     15  N   UNL     1       1.122  -1.273   0.505  0.00  0.00    -0.324 N 
BRANCH  15  16
ATOM     16  C   UNL     1       1.461  -0.774   1.840  0.00  0.00    +0.083 C 
ATOM     17  C   UNL     1       2.700   0.119   1.751  0.00  0.00    +0.030 C 
ATOM     18  C   UNL     1       0.288   0.036   2.395  0.00  0.00    +0.030 C 
ENDBRANCH  15  16
ENDBRANCH   1  14
BRANCH   7  19
ATOM     19  C   UNL     1      -0.480  -7.950   2.518  0.00  0.00    +0.034 A 
ATOM     20  C   UNL     1      -0.082  -7.743   3.832  0.00  0.00    +0.025 A 
ATOM     21  C   UNL     1      -0.026  -8.805   4.712  0.00  0.00    +0.025 A 
ATOM     22  C   UNL     1      -0.367 -10.081   4.283  0.00  0.00    +0.030 A 
ATOM     23  C   UNL     1      -0.765 -10.288   2.969  0.00  0.00    +0.025 A 
ATOM     24  C   UNL     1      -0.826  -9.225   2.090  0.00  0.00    +0.025 A 
BRANCH  22  25
ATOM     25  N   UNL     1      -0.310 -11.158   5.175  0.00  0.00    -0.318 N 
ATOM     26  C   UNL     1       0.088 -11.080   6.592  0.00  0.00    +0.106 C 
ATOM     27  C   UNL     1      -0.584 -12.305   7.261  0.00  0.00    +0.021 C 
ATOM     28  C   UNL     1      -0.456 -13.377   6.146  0.00  0.00    +0.033 C 
ATOM     29  C   UNL     1      -0.642 -12.554   4.854  0.00  0.00    +0.160 C 
BRANCH  29  30
ATOM     30  C   UNL     1      -2.071 -12.647   4.386  0.00  0.00    +0.236 C 
ATOM     31  O   UNL     1      -2.754 -11.647   4.323  0.00  0.00    -0.274 OA
ATOM     32  N   UNL     1      -2.590 -13.841   4.038  0.00  0.00    -0.306 N 
ATOM     33  C   UNL     1      -3.980 -13.930   3.583  0.00  0.00    +0.131 C 
ATOM     34  C   UNL     1      -1.765 -15.049   4.114  0.00  0.00    +0.131 C 
ENDBRANCH  29  30
ENDBRANCH  22  25
ENDBRANCH   7  19
TORSDOF 5
