REMARK  Name = CHEMBL210765
REMARK  8 active torsions:
REMARK  status: ('A' for Active; 'I' for Inactive)
REMARK    1  A    between atoms: C_1  and  N_2
REMARK    2  A    between atoms: N_5  and  C_8
REMARK    3  A    between atoms: C_8  and  C_9
REMARK    4  A    between atoms: C_9  and  C_10
REMARK    5  A    between atoms: N_12  and  S_13
REMARK    6  A    between atoms: S_13  and  C_16
REMARK    7  A    between atoms: C_19  and  N_22
REMARK    8  A    between atoms: C_28  and  C_30
REMARK                            x       y       z     vdW  Elec       q    Type
REMARK                         _______ _______ _______ _____ _____    ______ ____
ROOT
ATOM      1  C   UNL     1       1.459  -8.887   2.502  0.00  0.00    +0.109 A 
ATOM      2  C   UNL     1       1.027  -9.131   1.211  0.00  0.00    +0.030 A 
ATOM      3  C   UNL     1       1.923  -9.558   0.250  0.00  0.00    +0.025 A 
ATOM      4  C   UNL     1       3.260  -9.742   0.582  0.00  0.00    +0.034 A 
ATOM      5  C   UNL     1       3.690  -9.496   1.880  0.00  0.00    +0.025 A 
ATOM      6  C   UNL     1       2.790  -9.064   2.834  0.00  0.00    +0.030 A 
ENDROOT
BRANCH   4   7
ATOM      7  N   UNL     1       4.169 -10.173  -0.387  0.00  0.00    -0.282 N 
ATOM      8  C   UNL     1       3.921  -9.924  -1.735  0.00  0.00    +0.241 A 
ATOM      9  N   UNL     1       2.910  -9.188  -2.215  0.00  0.00    -0.180 NA
ATOM     10  C   UNL     1       2.969  -9.155  -3.528  0.00  0.00    +0.220 A 
ATOM     11  N   UNL     1       4.049  -9.892  -3.915  0.00  0.00    -0.161 N 
ATOM     12  N   UNL     1       4.642 -10.369  -2.735  0.00  0.00    -0.124 NA
ATOM     13  C   UNL     1       4.465 -10.115  -5.177  0.00  0.00    +0.287 C 
ATOM     14  O   UNL     1       3.912  -9.560  -6.107  0.00  0.00    -0.265 OA
ATOM     15  N   UNL     1       2.093  -8.494  -4.364  0.00  0.00    -0.327 N 
ATOM     16  H   UNL     1       4.973 -10.646  -0.121  0.00  0.00    +0.155 HD
ATOM     17  H   UNL     1       1.351  -7.993  -3.992  0.00  0.00    +0.145 HD
ATOM     18  H   UNL     1       2.220  -8.530  -5.325  0.00  0.00    +0.145 HD
BRANCH  13  19
ATOM     19  C   UNL     1       5.592 -11.030  -5.431  0.00  0.00    +0.111 A 
ATOM     20  C   UNL     1       5.368 -12.407  -5.546  0.00  0.00    +0.139 A 
ATOM     21  C   UNL     1       6.431 -13.258  -5.784  0.00  0.00    +0.039 A 
ATOM     22  C   UNL     1       7.713 -12.753  -5.907  0.00  0.00    +0.006 A 
ATOM     23  C   UNL     1       7.943 -11.394  -5.795  0.00  0.00    +0.039 A 
ATOM     24  C   UNL     1       6.892 -10.527  -5.564  0.00  0.00    +0.139 A 
ATOM     25  F   UNL     1       7.118  -9.199  -5.460  0.00  0.00    -0.205 F 
ATOM     26  F   UNL     1       4.117 -12.903  -5.425  0.00  0.00    -0.205 F 
ENDBRANCH  13  19
ENDBRANCH   4   7
BRANCH   1  27
ATOM     27  S   UNL     1       0.312  -8.343   3.724  0.00  0.00    +0.074 S 
ATOM     28  O   UNL     1       0.861  -8.704   4.984  0.00  0.00    -0.150 OA
ATOM     29  O   UNL     1      -0.972  -8.779   3.299  0.00  0.00    -0.150 OA
BRANCH  27  32
ATOM     30  C   UNL     1      -0.161  -6.053   2.574  0.00  0.00    +0.233 C 
ATOM     31  O   UNL     1      -0.553  -6.695   1.621  0.00  0.00    -0.274 OA
ATOM     32  N   UNL     1       0.291  -6.688   3.673  0.00  0.00    -0.185 N 
ATOM     33  H   UNL     1       0.605  -6.175   4.434  0.00  0.00    +0.177 HD
BRANCH  30  34
ATOM     34  C   UNL     1      -0.180  -4.547   2.527  0.00  0.00    +0.112 C 
BRANCH  34  35
ATOM     35  C   UNL     1      -0.736  -4.086   1.178  0.00  0.00    +0.093 C 
BRANCH  35  40
ATOM     36  C   UNL     1      -0.220   1.394  -0.029  0.00  0.00    -0.096 C 
ATOM     37  N   UNL     1      -0.174  -0.074  -0.031  0.00  0.00    +0.379 N 
ATOM     38  C   UNL     1      -1.543  -0.607  -0.020  0.00  0.00    -0.064 C 
ATOM     39  C   UNL     1      -1.496  -2.136  -0.042  0.00  0.00    +0.066 C 
ATOM     40  N   UNL     1      -0.755  -2.618   1.133  0.00  0.00    -0.305 NA
ATOM     41  C   UNL     1       0.610  -2.073   1.148  0.00  0.00    +0.066 C 
ATOM     42  C   UNL     1       0.546  -0.544   1.160  0.00  0.00    -0.064 C 
ATOM     43  H   UNL     1       0.304  -0.394  -0.861  0.00  0.00    -0.082 HD
ENDBRANCH  35  40
ENDBRANCH  34  35
ENDBRANCH  30  34
ENDBRANCH  27  32
ENDBRANCH   1  27
TORSDOF 7
