REMARK  Name = CHEMBL114917
REMARK  5 active torsions:
REMARK  status: ('A' for Active; 'I' for Inactive)
REMARK    1  A    between atoms: C_1  and  O_2
REMARK    2  A    between atoms: O_2  and  C_3
REMARK    3  A    between atoms: C_7  and  C_9
REMARK    4  A    between atoms: C_9  and  C_10
REMARK    5  A    between atoms: C_15  and  C_19
REMARK                            x       y       z     vdW  Elec       q    Type
REMARK                         _______ _______ _______ _____ _____    ______ ____
ROOT
ATOM      1  C   UNL     1       2.579  -4.600  -1.614  0.00  0.00    +0.223 C 
ATOM      2  O   UNL     1       3.352  -3.809  -1.116  0.00  0.00    -0.275 OA
ATOM      3  N   UNL     1       2.841  -5.921  -1.565  0.00  0.00    -0.269 N 
ATOM      4  C   UNL     1       4.007  -6.381  -0.937  0.00  0.00    +0.147 A 
ATOM      5  C   UNL     1       4.981  -5.581  -0.318  0.00  0.00    +0.068 A 
ATOM      6  C   UNL     1       5.944  -6.399   0.165  0.00  0.00    +0.041 A 
ATOM      7  N   UNL     1       5.598  -7.669  -0.135  0.00  0.00    -0.280 N 
ATOM      8  H   UNL     1       6.104  -8.465   0.089  0.00  0.00    +0.189 HD
ATOM      9  N   UNL     1       4.377  -7.635  -0.821  0.00  0.00    -0.158 NA
ATOM     10  H   UNL     1       2.223  -6.554  -1.963  0.00  0.00    +0.156 HD
ENDROOT
BRANCH   6  11
ATOM     11  C   UNL     1       7.184  -5.969   0.906  0.00  0.00    +0.037 C 
ATOM     12  C   UNL     1       8.454  -6.795   0.696  0.00  0.00    +0.010 C 
ATOM     13  C   UNL     1       7.694  -6.884   2.021  0.00  0.00    +0.010 C 
ENDBRANCH   6  11
BRANCH   1  14
ATOM     14  C   UNL     1       1.325  -4.106  -2.289  0.00  0.00    +0.131 C 
BRANCH  14  19
ATOM     15  C   UNL     1       0.606  -0.607  -1.056  0.00  0.00    +0.120 A 
ATOM     16  C   UNL     1       1.173   0.161  -2.063  0.00  0.00    +0.045 A 
ATOM     17  C   UNL     1       1.786  -0.455  -3.136  0.00  0.00    +0.004 A 
ATOM     18  C   UNL     1       1.836  -1.835  -3.208  0.00  0.00    +0.004 A 
ATOM     19  C   UNL     1       1.271  -2.602  -2.207  0.00  0.00    -0.035 A 
ATOM     20  C   UNL     1       0.661  -1.991  -1.128  0.00  0.00    +0.049 A 
BRANCH  15  22
ATOM     21  C   UNL     1      -0.017   1.425   0.010  0.00  0.00    +0.277 C 
ATOM     22  O   UNL     1       0.002  -0.004   0.002  0.00  0.00    -0.495 OA
ENDBRANCH  15  22
ENDBRANCH  14  19
ENDBRANCH   1  14
TORSDOF 4
