REMARK  Name = CHEMBL272684
REMARK  5 active torsions:
REMARK  status: ('A' for Active; 'I' for Inactive)
REMARK    1  A    between atoms: C_3  and  C_23
REMARK    2  A    between atoms: N_11  and  N_12
REMARK    3  A    between atoms: N_12  and  C_13
REMARK    4  A    between atoms: C_16  and  S_19
REMARK    5  A    between atoms: S_19  and  N_22
REMARK                            x       y       z     vdW  Elec       q    Type
REMARK                         _______ _______ _______ _____ _____    ______ ____
ROOT
ATOM      1  C   UNL     1      -0.017   1.377   0.010  0.00  0.00    +0.002 A 
ATOM      2  C   UNL     1       1.160   2.101   0.002  0.00  0.00    +0.011 A 
ATOM      3  C   UNL     1       2.386   1.435  -0.013  0.00  0.00    +0.011 A 
ATOM      4  C   UNL     1       2.408   0.033  -0.021  0.00  0.00    +0.037 A 
ATOM      5  C   UNL     1       1.211  -0.692  -0.013  0.00  0.00    +0.044 A 
ATOM      6  C   UNL     1       0.002  -0.004   0.002  0.00  0.00    +0.024 A 
ATOM      7  N   UNL     1       1.499  -2.052  -0.024  0.00  0.00    -0.280 N 
ATOM      8  C   UNL     1       2.825  -2.272  -0.038  0.00  0.00    +0.269 C 
ATOM      9  O   UNL     1       3.371  -3.360  -0.050  0.00  0.00    -0.268 OA
ATOM     10  C   UNL     1       3.501  -0.963  -0.037  0.00  0.00    +0.153 C 
ATOM     11  N   UNL     1       4.795  -0.731  -0.048  0.00  0.00    -0.177 NA
ATOM     12  H   UNL     1       0.829  -2.753  -0.021  0.00  0.00    +0.155 HD
ENDROOT
BRANCH   3  13
ATOM     13  C   UNL     1       3.649   2.201  -0.021  0.00  0.00    +0.066 A 
ATOM     14  C   UNL     1       3.902   3.354  -0.730  0.00  0.00    +0.049 A 
ATOM     15  C   UNL     1       5.213   3.743  -0.453  0.00  0.00    +0.135 A 
ATOM     16  N   UNL     1       5.739   2.880   0.379  0.00  0.00    -0.182 NA
ATOM     17  H   UNL     1       4.905   1.144   1.270  0.00  0.00    +0.189 HD
ATOM     18  N   UNL     1       4.782   1.901   0.676  0.00  0.00    -0.277 N 
ENDBRANCH   3  13
BRANCH  11  19
ATOM     19  N   UNL     1       5.628  -1.717  -0.062  0.00  0.00    -0.237 N 
ATOM     20  H   UNL     1       5.298  -2.629  -0.065  0.00  0.00    +0.174 HD
BRANCH  19  21
ATOM     21  C   UNL     1       7.001  -1.470  -0.074  0.00  0.00    +0.048 A 
ATOM     22  C   UNL     1       7.474  -0.164  -0.065  0.00  0.00    +0.026 A 
ATOM     23  C   UNL     1       8.834   0.076  -0.076  0.00  0.00    +0.030 A 
ATOM     24  C   UNL     1       9.724  -0.982  -0.096  0.00  0.00    +0.105 A 
ATOM     25  C   UNL     1       9.257  -2.283  -0.106  0.00  0.00    +0.030 A 
ATOM     26  C   UNL     1       7.899  -2.531  -0.089  0.00  0.00    +0.026 A 
BRANCH  24  27
ATOM     27  S   UNL     1      11.459  -0.670  -0.111  0.00  0.00    +0.056 S 
ATOM     28  O   UNL     1      12.072  -1.819  -0.680  0.00  0.00    -0.153 OA
ATOM     29  O   UNL     1      11.633   0.633  -0.650  0.00  0.00    -0.153 OA
BRANCH  27  30
ATOM     30  N   UNL     1      11.957  -0.601   1.467  0.00  0.00    -0.204 NA
ATOM     31  H   UNL     1      11.316  -0.725   2.184  0.00  0.00    +0.144 HD
ATOM     32  H   UNL     1      12.890  -0.436   1.674  0.00  0.00    +0.144 HD
ENDBRANCH  27  30
ENDBRANCH  24  27
ENDBRANCH  19  21
ENDBRANCH  11  19
TORSDOF 5
