REMARK  Name = CHEMBL1083785
REMARK  6 active torsions:
REMARK  status: ('A' for Active; 'I' for Inactive)
REMARK    1  A    between atoms: C_1  and  C_2
REMARK    2  A    between atoms: C_3  and  C_9
REMARK    3  A    between atoms: N_7  and  C_8
REMARK    4  A    between atoms: N_15  and  C_16
REMARK    5  A    between atoms: C_19  and  N_22
REMARK    6  A    between atoms: C_28  and  C_30
REMARK                            x       y       z     vdW  Elec       q    Type
REMARK                         _______ _______ _______ _____ _____    ______ ____
ROOT
ATOM      1  C   UNL     1       1.035   0.082  -2.462  0.00  0.00    +0.084 A 
ATOM      2  C   UNL     1       1.660  -0.665  -3.470  0.00  0.00    +0.049 A 
ATOM      3  C   UNL     1       1.656  -0.165  -4.757  0.00  0.00    +0.116 A 
ATOM      4  N   UNL     1       1.067   0.996  -5.001  0.00  0.00    -0.223 NA
ATOM      5  C   UNL     1       0.482   1.683  -4.030  0.00  0.00    +0.220 A 
ATOM      6  N   UNL     1       0.456   1.241  -2.782  0.00  0.00    -0.214 NA
ATOM      7  N   UNL     1      -0.122   2.893  -4.329  0.00  0.00    -0.284 N 
ATOM      8  H   UNL     1      -0.608   3.376  -3.642  0.00  0.00    +0.155 HD
ENDROOT
BRANCH   1  11
ATOM      9  C   UNL     1      -0.269   1.480  -0.013  0.00  0.00    +0.067 C 
ATOM     10  C   UNL     1       0.456   0.160   0.047  0.00  0.00    +0.057 A 
ATOM     11  C   UNL     1       1.012  -0.407  -1.072  0.00  0.00    +0.062 A 
ATOM     12  S   UNL     1       1.698  -1.903  -0.379  0.00  0.00    -0.051 S 
ATOM     13  C   UNL     1       1.222  -1.660   1.217  0.00  0.00    +0.159 A 
ATOM     14  N   UNL     1       0.591  -0.502   1.174  0.00  0.00    -0.230 NA
ATOM     15  N   UNL     1       1.443  -2.475   2.311  0.00  0.00    -0.327 N 
ATOM     16  C   UNL     1       0.943  -2.082   3.630  0.00  0.00    +0.127 C 
ATOM     17  H   UNL     1       1.930  -3.307   2.205  0.00  0.00    +0.148 HD
ENDBRANCH   1  11
BRANCH   7  18
ATOM     18  C   UNL     1      -0.033   3.419  -5.624  0.00  0.00    +0.034 A 
ATOM     19  C   UNL     1      -0.046   2.569  -6.722  0.00  0.00    +0.025 A 
ATOM     20  C   UNL     1       0.043   3.087  -7.998  0.00  0.00    +0.025 A 
ATOM     21  C   UNL     1       0.144   4.460  -8.184  0.00  0.00    +0.030 A 
ATOM     22  C   UNL     1       0.157   5.311  -7.087  0.00  0.00    +0.025 A 
ATOM     23  C   UNL     1       0.064   4.792  -5.811  0.00  0.00    +0.025 A 
BRANCH  21  24
ATOM     24  N   UNL     1       0.234   4.986  -9.478  0.00  0.00    -0.327 N 
ATOM     25  C   UNL     1       0.472   6.421  -9.688  0.00  0.00    +0.124 C 
ATOM     26  C   UNL     1       1.712   6.588 -10.575  0.00  0.00    +0.126 C 
ATOM     27  N   UNL     1       1.571   5.715 -11.748  0.00  0.00    -0.299 N 
ATOM     28  C   UNL     1       1.333   4.279 -11.539  0.00  0.00    +0.126 C 
ATOM     29  C   UNL     1       0.099   4.112 -10.652  0.00  0.00    +0.124 C 
ATOM     30  C   UNL     1       1.657   6.221 -12.994  0.00  0.00    +0.213 C 
ATOM     31  O   UNL     1       1.749   7.419 -13.157  0.00  0.00    -0.276 OA
ATOM     32  C   UNL     1       1.641   5.298 -14.186  0.00  0.00    +0.109 C 
ENDBRANCH  21  24
ENDBRANCH   7  18
TORSDOF 3
