REMARK  Name = CHEMBL460102
REMARK  10 active torsions:
REMARK  status: ('A' for Active; 'I' for Inactive)
REMARK    1  A    between atoms: C_1  and  C_2
REMARK    2  A    between atoms: C_5  and  C_10
REMARK    3  A    between atoms: N_6  and  C_7
REMARK    4  A    between atoms: C_7  and  C_8
REMARK    5  A    between atoms: C_7  and  C_9
REMARK    6  A    between atoms: N_16  and  C_17
REMARK    7  A    between atoms: C_20  and  C_23
REMARK    8  A    between atoms: C_28  and  N_31
REMARK    9  A    between atoms: N_31  and  C_32
REMARK   10  A    between atoms: N_31  and  C_33
REMARK                            x       y       z     vdW  Elec       q    Type
REMARK                         _______ _______ _______ _____ _____    ______ ____
ROOT
ATOM      1  C   UNL     1       0.923  -3.254   1.290  0.00  0.00    +0.129 A 
ATOM      2  C   UNL     1       1.797  -3.188   2.384  0.00  0.00    +0.169 A 
ATOM      3  C   UNL     1       1.892  -4.288   3.218  0.00  0.00    +0.155 A 
ATOM      4  N   UNL     1       1.160  -5.361   2.960  0.00  0.00    -0.220 NA
ATOM      5  C   UNL     1       0.342  -5.397   1.919  0.00  0.00    +0.220 A 
ATOM      6  N   UNL     1       0.215  -4.367   1.097  0.00  0.00    -0.210 NA
ATOM      7  N   UNL     1      -0.406  -6.542   1.686  0.00  0.00    -0.284 N 
ATOM      8  F   UNL     1       2.530  -2.077   2.619  0.00  0.00    -0.202 F 
ATOM      9  H   UNL     1      -0.963  -6.605   0.894  0.00  0.00    +0.155 HD
ENDROOT
BRANCH   1  14
ATOM     10  C   UNL     1       0.412   1.418  -0.529  0.00  0.00    +0.084 C 
ATOM     11  C   UNL     1       0.563  -0.078  -0.430  0.00  0.00    +0.084 A 
ATOM     12  N   UNL     1       0.617  -0.903  -1.441  0.00  0.00    -0.349 N 
ATOM     13  C   UNL     1       0.753  -2.155  -0.992  0.00  0.00    +0.112 A 
ATOM     14  C   UNL     1       0.785  -2.108   0.369  0.00  0.00    +0.088 A 
ATOM     15  N   UNL     1       0.669  -0.780   0.717  0.00  0.00    -0.325 N 
ATOM     16  H   UNL     1       0.566  -0.647  -2.376  0.00  0.00    +0.166 HD
BRANCH  15  17
ATOM     17  C   UNL     1       0.659  -0.233   2.076  0.00  0.00    +0.083 C 
ATOM     18  C   UNL     1       1.711   0.872   2.189  0.00  0.00    +0.030 C 
ATOM     19  C   UNL     1      -0.724   0.345   2.384  0.00  0.00    +0.030 C 
ENDBRANCH  15  17
ENDBRANCH   1  14
BRANCH   7  20
ATOM     20  C   UNL     1      -0.357  -7.600   2.589  0.00  0.00    +0.034 A 
ATOM     21  C   UNL     1      -0.206  -7.346   3.949  0.00  0.00    +0.024 A 
ATOM     22  C   UNL     1      -0.157  -8.391   4.845  0.00  0.00    +0.015 A 
ATOM     23  C   UNL     1      -0.259  -9.707   4.386  0.00  0.00    +0.037 A 
ATOM     24  C   UNL     1      -0.410  -9.959   3.019  0.00  0.00    +0.015 A 
ATOM     25  C   UNL     1      -0.464  -8.910   2.130  0.00  0.00    +0.024 A 
BRANCH  23  26
ATOM     26  C   UNL     1      -0.206 -10.829   5.343  0.00  0.00    +0.247 C 
ATOM     27  O   UNL     1      -0.429 -11.963   4.964  0.00  0.00    -0.270 OA
ATOM     28  N   UNL     1       0.091 -10.598   6.637  0.00  0.00    -0.299 N 
ATOM     29  C   UNL     1       0.250  -9.274   7.256  0.00  0.00    +0.106 C 
ATOM     30  C   UNL     1       0.556  -9.501   8.752  0.00  0.00    +0.005 C 
ATOM     31  C   UNL     1      -0.006 -10.924   9.009  0.00  0.00    -0.050 C 
ATOM     32  C   UNL     1       0.302 -11.630   7.668  0.00  0.00    +0.093 C 
BRANCH  31  33
ATOM     33  N   UNL     1       0.695 -11.574  10.124  0.00  0.00    +0.379 N 
ATOM     34  C   UNL     1       0.526 -10.772  11.343  0.00  0.00    -0.096 C 
ATOM     35  C   UNL     1       0.137 -12.915  10.339  0.00  0.00    -0.096 C 
ATOM     36  H   UNL     1       1.677 -11.649   9.905  0.00  0.00    -0.082 HD
ENDBRANCH  31  33
ENDBRANCH  23  26
ENDBRANCH   7  20
TORSDOF 5
