REMARK  Name = CHEMBL191519
REMARK  8 active torsions:
REMARK  status: ('A' for Active; 'I' for Inactive)
REMARK    1  A    between atoms: C_1  and  C_2
REMARK    2  A    between atoms: C_2  and  C_3
REMARK    3  A    between atoms: C_7  and  C_11
REMARK    4  A    between atoms: C_14  and  O_19
REMARK    5  A    between atoms: C_15  and  O_17
REMARK    6  A    between atoms: O_17  and  C_18
REMARK    7  A    between atoms: O_19  and  C_20
REMARK    8  A    between atoms: N_21  and  C_23
REMARK                            x       y       z     vdW  Elec       q    Type
REMARK                         _______ _______ _______ _____ _____    ______ ____
ROOT
ATOM      1  C   UNL     1       0.741  -0.459   1.246  0.00  0.00    +0.078 A 
ATOM      2  C   UNL     1       2.112  -0.793   1.291  0.00  0.00    +0.108 A 
ATOM      3  C   UNL     1       2.375  -1.279   2.588  0.00  0.00    +0.171 A 
ATOM      4  N   UNL     1       3.611  -1.666   2.892  0.00  0.00    -0.208 NA
ATOM      5  C   UNL     1       4.578  -1.596   1.991  0.00  0.00    +0.166 A 
ATOM      6  N   UNL     1       4.372  -1.143   0.757  0.00  0.00    -0.189 NA
ATOM      7  C   UNL     1       3.173  -0.737   0.368  0.00  0.00    +0.285 A 
ATOM      8  O   UNL     1       2.972  -0.278  -0.889  0.00  0.00    -0.265 OA
ATOM      9  N   UNL     1       1.192  -1.228   3.270  0.00  0.00    -0.211 N 
ATOM     10  N   UNL     1       0.214  -0.714   2.410  0.00  0.00    -0.169 NA
ENDROOT
BRANCH   9  11
ATOM     11  C   UNL     1       0.993  -1.619   4.601  0.00  0.00    +0.104 A 
ATOM     12  C   UNL     1       1.785  -1.084   5.609  0.00  0.00    +0.069 A 
ATOM     13  C   UNL     1       1.587  -1.471   6.921  0.00  0.00    +0.042 A 
ATOM     14  C   UNL     1       0.600  -2.391   7.231  0.00  0.00    +0.044 A 
ATOM     15  C   UNL     1      -0.191  -2.925   6.229  0.00  0.00    +0.042 A 
ATOM     16  C   UNL     1      -0.001  -2.537   4.916  0.00  0.00    +0.069 A 
ATOM     17 CL   UNL     1      -0.998  -3.202   3.661  0.00  0.00    -0.081 Cl
ATOM     18 CL   UNL     1       0.354  -2.875   8.880  0.00  0.00    -0.083 Cl
ATOM     19 CL   UNL     1       3.024   0.069   5.222  0.00  0.00    -0.081 Cl
ENDBRANCH   9  11
BRANCH   5  20
ATOM     20  C   UNL     1       5.941  -2.037   2.372  0.00  0.00    +0.023 A 
ATOM     21  C   UNL     1       6.210  -2.416   3.686  0.00  0.00    +0.015 A 
ATOM     22  C   UNL     1       7.479  -2.827   4.039  0.00  0.00    +0.050 A 
ATOM     23  C   UNL     1       8.489  -2.864   3.089  0.00  0.00    +0.162 A 
ATOM     24  C   UNL     1       8.225  -2.487   1.774  0.00  0.00    +0.162 A 
ATOM     25  C   UNL     1       6.954  -2.079   1.414  0.00  0.00    +0.061 A 
BRANCH  24  26
ATOM     26  O   UNL     1       9.216  -2.524   0.844  0.00  0.00    -0.491 OA
ATOM     27  C   UNL     1       8.875  -2.123  -0.484  0.00  0.00    +0.277 C 
ENDBRANCH  24  26
BRANCH  23  28
ATOM     28  O   UNL     1       9.737  -3.269   3.441  0.00  0.00    -0.491 OA
ATOM     29  C   UNL     1       9.937  -3.642   4.806  0.00  0.00    +0.277 C 
ENDBRANCH  23  28
ENDBRANCH   5  20
BRANCH   1  31
ATOM     30  C   UNL     1       0.080   1.630   0.086  0.00  0.00    +0.010 C 
ATOM     31  C   UNL     1       0.011   0.102   0.053  0.00  0.00    +0.055 C 
ENDBRANCH   1  31
TORSDOF 5
