REMARK  Name = CHEMBL139527
REMARK  5 active torsions:
REMARK  status: ('A' for Active; 'I' for Inactive)
REMARK    1  A    between atoms: N_8  and  N_11
REMARK    2  A    between atoms: N_11  and  S_12
REMARK    3  A    between atoms: S_12  and  C_15
REMARK    4  A    between atoms: C_18  and  N_21
REMARK    5  A    between atoms: C_22  and  C_23
REMARK                            x       y       z     vdW  Elec       q    Type
REMARK                         _______ _______ _______ _____ _____    ______ ____
ROOT
ATOM      1  C   UNL     1       3.827  -6.422   0.727  0.00  0.00    +0.068 A 
ATOM      2  C   UNL     1       3.151  -7.345   1.504  0.00  0.00    +0.027 A 
ATOM      3  C   UNL     1       3.082  -8.665   1.111  0.00  0.00    +0.029 A 
ATOM      4  C   UNL     1       3.697  -9.069  -0.076  0.00  0.00    +0.064 A 
ATOM      5  C   UNL     1       4.378  -8.132  -0.857  0.00  0.00    +0.029 A 
ATOM      6  C   UNL     1       4.434  -6.814  -0.453  0.00  0.00    +0.027 A 
ENDROOT
BRANCH   1   7
ATOM      7  S   UNL     1       3.909  -4.737   1.237  0.00  0.00    -0.037 S 
ATOM      8  O   UNL     1       5.057  -4.179   0.613  0.00  0.00    -0.189 OA
ATOM      9  O   UNL     1       3.730  -4.731   2.647  0.00  0.00    -0.189 OA
BRANCH   7  10
ATOM     10  N   UNL     1       2.595  -3.965   0.590  0.00  0.00    +0.508 NA
BRANCH  10  18
ATOM     11  C   UNL     1      -0.031   0.950   2.755  0.00  0.00    +0.000 A 
ATOM     12  C   UNL     1       0.340   1.767   1.702  0.00  0.00    +0.001 A 
ATOM     13  C   UNL     1       0.973   1.232   0.595  0.00  0.00    +0.008 A 
ATOM     14  C   UNL     1       1.231  -0.131   0.552  0.00  0.00    -0.019 A 
ATOM     15  C   UNL     1       0.855  -0.954   1.619  0.00  0.00    -0.026 A 
ATOM     16  C   UNL     1       0.226  -0.411   2.715  0.00  0.00    +0.005 A 
ATOM     17  C   UNL     1       1.158  -2.425   1.522  0.00  0.00    +0.102 C 
ATOM     18  N   UNL     1       2.417  -2.627   0.801  0.00  0.00    -0.446 NA
ATOM     19  C   UNL     1       2.443  -1.972  -0.424  0.00  0.00    +0.035 C 
ATOM     20  C   UNL     1       1.903  -0.772  -0.600  0.00  0.00    +0.020 C 
ATOM     21  H   UNL     1       3.177  -2.284   1.370  0.00  0.00    +0.106 HD
ENDBRANCH  10  18
ENDBRANCH   7  10
ENDBRANCH   1   7
BRANCH   4  22
ATOM     22  N   UNL     1       3.634 -10.377  -0.473  0.00  0.00    -0.255 NA
ATOM     23  C   UNL     1       3.357 -10.671  -1.719  0.00  0.00    +0.125 C 
BRANCH  23  24
ATOM     24  C   UNL     1       3.291 -12.025  -2.130  0.00  0.00    +0.068 A 
ATOM     25  C   UNL     1       3.000 -12.524  -3.488  0.00  0.00    +0.028 A 
ATOM     26  C   UNL     1       3.045 -13.924  -3.402  0.00  0.00    +0.051 A 
ATOM     27  C   UNL     1       2.805 -14.680  -4.550  0.00  0.00    +0.028 A 
ATOM     28  C   UNL     1       2.530 -14.093  -5.743  0.00  0.00    +0.031 A 
ATOM     29  C   UNL     1       2.476 -12.685  -5.871  0.00  0.00    +0.079 A 
ATOM     30  C   UNL     1       2.719 -11.929  -4.706  0.00  0.00    +0.049 A 
ATOM     31  S   UNL     1       2.555 -10.267  -5.303  0.00  0.00    -0.075 S 
ATOM     32  C   UNL     1       2.206 -10.627  -6.910  0.00  0.00    +0.157 A 
ATOM     33  N   UNL     1       2.221 -11.927  -6.958  0.00  0.00    -0.247 NA
ATOM     34  N   UNL     1       3.341 -14.262  -2.094  0.00  0.00    -0.322 N 
ATOM     35  H   UNL     1       3.431 -15.169  -1.764  0.00  0.00    +0.169 HD
ATOM     36  C   UNL     1       3.493 -13.144  -1.337  0.00  0.00    +0.258 A 
ATOM     37  O   UNL     1       3.792 -13.126  -0.018  0.00  0.00    -0.267 OA
ENDBRANCH  23  24
ENDBRANCH   4  22
TORSDOF 5
