REMARK  Name = CHEMBL424469
REMARK  5 active torsions:
REMARK  status: ('A' for Active; 'I' for Inactive)
REMARK    1  A    between atoms: C_3  and  S_24
REMARK    2  A    between atoms: C_6  and  N_7
REMARK    3  A    between atoms: N_8  and  C_9
REMARK    4  A    between atoms: C_22  and  O_23
REMARK    5  A    between atoms: S_24  and  N_27
REMARK                            x       y       z     vdW  Elec       q    Type
REMARK                         _______ _______ _______ _____ _____    ______ ____
ROOT
ATOM      1  C   UNL     1       0.113  -2.534  -0.240  0.00  0.00    +0.156 A 
ATOM      2  C   UNL     1       0.304  -3.990  -0.366  0.00  0.00    +0.058 A 
ATOM      3  C   UNL     1       1.637  -4.241  -0.019  0.00  0.00    +0.054 A 
ATOM      4  C   UNL     1       2.122  -5.551  -0.045  0.00  0.00    +0.028 A 
ATOM      5  C   UNL     1       1.315  -6.586  -0.404  0.00  0.00    +0.034 A 
ATOM      6  C   UNL     1      -0.026  -6.359  -0.757  0.00  0.00    +0.113 A 
ATOM      7  C   UNL     1      -0.533  -5.050  -0.736  0.00  0.00    +0.097 A 
ATOM      8  N   UNL     1      -1.847  -5.143  -1.120  0.00  0.00    -0.256 N 
ATOM      9  N   UNL     1      -2.098  -6.502  -1.360  0.00  0.00    -0.067 NA
ATOM     10  N   UNL     1      -1.025  -7.177  -1.143  0.00  0.00    -0.130 NA
ATOM     11  H   UNL     1      -2.479  -4.412  -1.208  0.00  0.00    +0.191 HD
ATOM     12  N   UNL     1       2.228  -3.031   0.299  0.00  0.00    -0.324 N 
ATOM     13  H   UNL     1       3.151  -2.923   0.574  0.00  0.00    +0.169 HD
ATOM     14  C   UNL     1       1.334  -2.016   0.165  0.00  0.00    +0.219 A 
ENDROOT
BRANCH   1  16
ATOM     15  N   UNL     1      -1.515  -1.081   0.441  0.00  0.00    -0.149 NA
ATOM     16  N   UNL     1      -1.022  -1.843  -0.476  0.00  0.00    -0.143 NA
BRANCH  15  22
ATOM     17  C   UNL     1      -0.615  -2.035   2.446  0.00  0.00    +0.031 A 
ATOM     18  C   UNL     1       0.049  -1.872   3.644  0.00  0.00    +0.030 A 
ATOM     19  C   UNL     1       0.476  -0.616   4.038  0.00  0.00    +0.105 A 
ATOM     20  C   UNL     1       0.239   0.486   3.234  0.00  0.00    +0.030 A 
ATOM     21  C   UNL     1      -0.424   0.338   2.034  0.00  0.00    +0.031 A 
ATOM     22  C   UNL     1      -0.857  -0.927   1.630  0.00  0.00    +0.086 A 
BRANCH  19  23
ATOM     23  S   UNL     1       1.323  -0.418   5.570  0.00  0.00    +0.056 S 
ATOM     24  O   UNL     1       1.137   0.934   5.965  0.00  0.00    -0.153 OA
ATOM     25  O   UNL     1       0.939  -1.512   6.391  0.00  0.00    -0.153 OA
BRANCH  23  26
ATOM     26  N   UNL     1       2.940  -0.602   5.262  0.00  0.00    -0.204 NA
ATOM     27  H   UNL     1       3.244  -0.784   4.359  0.00  0.00    +0.144 HD
ATOM     28  H   UNL     1       3.583  -0.528   5.985  0.00  0.00    +0.144 HD
ENDBRANCH  23  26
ENDBRANCH  19  23
ENDBRANCH  15  22
ENDBRANCH   1  16
BRANCH  14  29
ATOM     29  O   UNL     1       1.593  -0.708   0.394  0.00  0.00    -0.492 OA
ATOM     30  H   UNL     1       1.531  -0.451   1.324  0.00  0.00    +0.294 HD
ENDBRANCH  14  29
TORSDOF 5
