REMARK  Name = CHEMBL362004
REMARK  1 active torsions:
REMARK  status: ('A' for Active; 'I' for Inactive)
REMARK    1  A    between atoms: C_11  and  C_15
REMARK                            x       y       z     vdW  Elec       q    Type
REMARK                         _______ _______ _______ _____ _____    ______ ____
ROOT
ATOM      1  C   UNL     1      -0.017   1.402   0.010  0.00  0.00    +0.014 A 
ATOM      2  C   UNL     1       1.115   2.138   0.003  0.00  0.00    +0.031 A 
ATOM      3  C   UNL     1       2.418   1.479  -0.013  0.00  0.00    +0.095 A 
ATOM      4  C   UNL     1       2.465   0.009  -0.021  0.00  0.00    +0.045 A 
ATOM      5  C   UNL     1       3.796  -0.341  -0.036  0.00  0.00    +0.115 A 
ATOM      6  N   UNL     1       4.520   0.790  -0.037  0.00  0.00    -0.284 N 
ATOM      7  N   UNL     1       3.668   1.900  -0.023  0.00  0.00    -0.174 NA
ATOM      8  H   UNL     1       5.489   0.831  -0.046  0.00  0.00    +0.188 HD
ATOM      9  C   UNL     1       1.201  -0.723  -0.013  0.00  0.00    +0.077 A 
ATOM     10  C   UNL     1       0.002  -0.004   0.002  0.00  0.00    +0.033 A 
ATOM     11  C   UNL     1      -1.040  -1.040   0.006  0.00  0.00    +0.154 A 
ATOM     12  N   UNL     1      -0.411  -2.197  -0.006  0.00  0.00    -0.168 NA
ATOM     13  H   UNL     1       1.503  -2.771  -0.028  0.00  0.00    +0.189 HD
ATOM     14  N   UNL     1       0.863  -2.042  -0.017  0.00  0.00    -0.276 N 
ENDROOT
BRANCH  11  15
ATOM     15  C   UNL     1      -2.499  -0.827   0.021  0.00  0.00    +0.262 C 
ATOM     16  O   UNL     1      -2.948   0.303   0.032  0.00  0.00    -0.269 OA
ATOM     17  N   UNL     1      -3.334  -1.885   0.024  0.00  0.00    -0.324 N 
ATOM     18  H   UNL     1      -2.976  -2.786   0.015  0.00  0.00    +0.145 HD
ATOM     19  H   UNL     1      -4.294  -1.744   0.034  0.00  0.00    +0.145 HD
ENDBRANCH  11  15
TORSDOF 1
