REMARK  Name = CHEMBL272217
REMARK  8 active torsions:
REMARK  status: ('A' for Active; 'I' for Inactive)
REMARK    1  A    between atoms: C_5  and  O_7
REMARK    2  A    between atoms: O_7  and  C_8
REMARK    3  A    between atoms: C_8  and  C_9
REMARK    4  A    between atoms: C_9  and  C_10
REMARK    5  A    between atoms: N_17  and  N_18
REMARK    6  A    between atoms: N_18  and  C_19
REMARK    7  A    between atoms: C_22  and  S_25
REMARK    8  A    between atoms: S_25  and  N_28
REMARK                            x       y       z     vdW  Elec       q    Type
REMARK                         _______ _______ _______ _____ _____    ______ ____
ROOT
ATOM      1  C   UNL     1      -0.017   1.379   0.010  0.00  0.00    +0.005 A 
ATOM      2  C   UNL     1       1.161   2.100   0.002  0.00  0.00    +0.024 A 
ATOM      3  C   UNL     1       2.386   1.440  -0.013  0.00  0.00    +0.047 A 
ATOM      4  C   UNL     1       2.405   0.040  -0.021  0.00  0.00    +0.070 A 
ATOM      5  C   UNL     1       1.212  -0.681  -0.014  0.00  0.00    +0.132 A 
ATOM      6  C   UNL     1       0.002  -0.004   0.002  0.00  0.00    +0.046 A 
ATOM      7  C   UNL     1       3.831  -0.358  -0.037  0.00  0.00    +0.156 C 
ATOM      8  N   UNL     1       4.321  -1.577  -0.049  0.00  0.00    -0.177 NA
ATOM      9  C   UNL     1       4.581   0.910  -0.038  0.00  0.00    +0.269 C 
ATOM     10  O   UNL     1       5.793   1.025  -0.050  0.00  0.00    -0.268 OA
ATOM     11  N   UNL     1       3.692   1.917  -0.024  0.00  0.00    -0.279 N 
ATOM     12  H   UNL     1       3.930   2.857  -0.021  0.00  0.00    +0.155 HD
ENDROOT
BRANCH   8  13
ATOM     13  N   UNL     1       5.598  -1.759  -0.063  0.00  0.00    -0.237 N 
ATOM     14  H   UNL     1       6.197  -0.996  -0.064  0.00  0.00    +0.174 HD
BRANCH  13  15
ATOM     15  C   UNL     1       6.119  -3.054  -0.075  0.00  0.00    +0.048 A 
ATOM     16  C   UNL     1       5.262  -4.149  -0.079  0.00  0.00    +0.026 A 
ATOM     17  C   UNL     1       5.781  -5.428  -0.092  0.00  0.00    +0.030 A 
ATOM     18  C   UNL     1       7.150  -5.621  -0.101  0.00  0.00    +0.105 A 
ATOM     19  C   UNL     1       8.005  -4.534  -0.097  0.00  0.00    +0.030 A 
ATOM     20  C   UNL     1       7.494  -3.252  -0.090  0.00  0.00    +0.026 A 
BRANCH  18  21
ATOM     21  S   UNL     1       7.807  -7.256  -0.116  0.00  0.00    +0.056 S 
ATOM     22  O   UNL     1       9.117  -7.172   0.428  0.00  0.00    -0.153 OA
ATOM     23  O   UNL     1       6.806  -8.101   0.434  0.00  0.00    -0.153 OA
BRANCH  21  24
ATOM     24  N   UNL     1       7.981  -7.699  -1.702  0.00  0.00    -0.204 NA
ATOM     25  H   UNL     1       7.732  -7.082  -2.408  0.00  0.00    +0.144 HD
ATOM     26  H   UNL     1       8.333  -8.575  -1.925  0.00  0.00    +0.144 HD
ENDBRANCH  21  24
ENDBRANCH  18  21
ENDBRANCH  13  15
ENDBRANCH   8  13
BRANCH   5  27
ATOM     27  O   UNL     1       1.234  -2.039  -0.021  0.00  0.00    -0.491 OA
BRANCH  27  28
ATOM     28  C   UNL     1      -0.028  -2.709  -0.013  0.00  0.00    +0.233 C 
BRANCH  28  29
ATOM     29  C   UNL     1       0.198  -4.223  -0.024  0.00  0.00    +0.076 C 
BRANCH  29  30
ATOM     30  C   UNL     1      -1.133  -4.929  -0.015  0.00  0.00    -0.041 A 
ATOM     31  C   UNL     1      -1.751  -5.263   1.181  0.00  0.00    +0.023 A 
ATOM     32  C   UNL     1      -2.971  -5.911   1.150  0.00  0.00    +0.111 A 
ATOM     33  N   UNL     1      -3.547  -6.211   0.002  0.00  0.00    -0.263 NA
ATOM     34  C   UNL     1      -2.989  -5.909  -1.154  0.00  0.00    +0.111 A 
ATOM     35  C   UNL     1      -1.772  -5.255  -1.201  0.00  0.00    +0.023 A 
ENDBRANCH  29  30
ENDBRANCH  28  29
ENDBRANCH  27  28
ENDBRANCH   5  27
TORSDOF 8
