REMARK  Name = CHEMBL151551
REMARK  6 active torsions:
REMARK  status: ('A' for Active; 'I' for Inactive)
REMARK    1  A    between atoms: C_1  and  O_2
REMARK    2  A    between atoms: O_2  and  C_3
REMARK    3  A    between atoms: C_6  and  C_9
REMARK    4  A    between atoms: C_19  and  N_23
REMARK    5  A    between atoms: C_24  and  C_26
REMARK    6  A    between atoms: C_26  and  N_27
REMARK                            x       y       z     vdW  Elec       q    Type
REMARK                         _______ _______ _______ _____ _____    ______ ____
ROOT
ATOM      1  C   UNL     1       2.518  -2.507  -4.364  0.00  0.00    +0.077 A 
ATOM      2  C   UNL     1       2.018  -3.580  -5.090  0.00  0.00    +0.075 A 
ATOM      3  C   UNL     1       3.012  -3.885  -6.122  0.00  0.00    +0.105 A 
ATOM      4  N   UNL     1       3.999  -3.037  -5.977  0.00  0.00    -0.173 NA
ATOM      5  N   UNL     1       3.722  -2.176  -4.911  0.00  0.00    -0.276 N 
ATOM      6  H   UNL     1       4.297  -1.457  -4.606  0.00  0.00    +0.189 HD
ATOM      7  C   UNL     1       2.498  -5.032  -6.912  0.00  0.00    +0.015 A 
ATOM      8  C   UNL     1       3.030  -5.718  -7.996  0.00  0.00    +0.011 A 
ATOM      9  C   UNL     1       2.336  -6.774  -8.563  0.00  0.00    +0.002 A 
ATOM     10  C   UNL     1       1.109  -7.157  -8.061  0.00  0.00    +0.024 A 
ATOM     11  C   UNL     1       0.556  -6.484  -6.976  0.00  0.00    +0.045 A 
ATOM     12  C   UNL     1       1.248  -5.415  -6.393  0.00  0.00    +0.053 A 
ATOM     13  C   UNL     1       0.913  -4.534  -5.256  0.00  0.00    +0.200 C 
ATOM     14  O   UNL     1      -0.096  -4.589  -4.579  0.00  0.00    -0.286 OA
ENDROOT
BRANCH   1  18
ATOM     15  C   UNL     1       0.638  -0.603  -1.067  0.00  0.00    +0.120 A 
ATOM     16  C   UNL     1       1.212   0.163  -2.075  0.00  0.00    +0.046 A 
ATOM     17  C   UNL     1       1.823  -0.450  -3.146  0.00  0.00    +0.013 A 
ATOM     18  C   UNL     1       1.865  -1.846  -3.219  0.00  0.00    +0.001 A 
ATOM     19  C   UNL     1       1.287  -2.612  -2.203  0.00  0.00    +0.013 A 
ATOM     20  C   UNL     1       0.682  -1.990  -1.133  0.00  0.00    +0.046 A 
BRANCH  15  22
ATOM     21  C   UNL     1       0.027   1.435  -0.008  0.00  0.00    +0.277 C 
ATOM     22  O   UNL     1       0.037   0.006  -0.013  0.00  0.00    -0.495 OA
ENDBRANCH  15  22
ENDBRANCH   1  18
BRANCH  11  23
ATOM     23  N   UNL     1      -0.682  -6.872  -6.471  0.00  0.00    -0.286 N 
ATOM     24  C   UNL     1      -1.637  -7.328  -7.306  0.00  0.00    +0.201 C 
ATOM     25  O   UNL     1      -1.392  -7.478  -8.484  0.00  0.00    -0.278 OA
ATOM     26  H   UNL     1      -0.857  -6.815  -5.519  0.00  0.00    +0.155 HD
BRANCH  24  27
ATOM     27  C   UNL     1      -3.010  -7.652  -6.774  0.00  0.00    +0.019 C 
BRANCH  27  28
ATOM     28  N   UNL     1      -3.861  -8.126  -7.874  0.00  0.00    +0.386 N 
ATOM     29  C   UNL     1      -4.025  -7.050  -8.852  0.00  0.00    -0.067 C 
ATOM     30  C   UNL     1      -4.581  -7.618 -10.164  0.00  0.00    +0.050 C 
ATOM     31  S   UNL     1      -6.222  -8.330  -9.826  0.00  0.00    -0.164 S 
ATOM     32  C   UNL     1      -5.907  -9.384  -8.375  0.00  0.00    +0.050 C 
ATOM     33  C   UNL     1      -5.153  -8.551  -7.332  0.00  0.00    -0.067 C 
ATOM     34  H   UNL     1      -3.415  -8.913  -8.321  0.00  0.00    -0.081 HD
ENDBRANCH  27  28
ENDBRANCH  24  27
ENDBRANCH  11  23
TORSDOF 5
