REMARK  Name = CHEMBL515001
REMARK  7 active torsions:
REMARK  status: ('A' for Active; 'I' for Inactive)
REMARK    1  A    between atoms: C_1  and  C_2
REMARK    2  A    between atoms: C_5  and  C_10
REMARK    3  A    between atoms: N_6  and  C_7
REMARK    4  A    between atoms: C_7  and  C_8
REMARK    5  A    between atoms: C_7  and  C_9
REMARK    6  A    between atoms: N_16  and  C_17
REMARK    7  A    between atoms: C_20  and  N_23
REMARK                            x       y       z     vdW  Elec       q    Type
REMARK                         _______ _______ _______ _____ _____    ______ ____
ROOT
ATOM      1  C   UNL     1       0.157  -3.418   1.650  0.00  0.00    +0.129 A 
ATOM      2  C   UNL     1       0.733  -3.297   2.923  0.00  0.00    +0.169 A 
ATOM      3  C   UNL     1       0.804  -4.424   3.722  0.00  0.00    +0.155 A 
ATOM      4  N   UNL     1       0.331  -5.574   3.265  0.00  0.00    -0.220 NA
ATOM      5  C   UNL     1      -0.209  -5.659   2.058  0.00  0.00    +0.220 A 
ATOM      6  N   UNL     1      -0.303  -4.607   1.261  0.00  0.00    -0.210 NA
ATOM      7  N   UNL     1      -0.691  -6.883   1.621  0.00  0.00    -0.284 N 
ATOM      8  F   UNL     1       1.207  -2.108   3.357  0.00  0.00    -0.202 F 
ATOM      9  H   UNL     1      -1.017  -6.979   0.712  0.00  0.00    +0.155 HD
ENDROOT
BRANCH   1  14
ATOM     10  C   UNL     1      -0.626   1.246  -0.092  0.00  0.00    +0.084 C 
ATOM     11  C   UNL     1      -0.283  -0.219  -0.008  0.00  0.00    +0.084 A 
ATOM     12  N   UNL     1       0.109  -0.965  -1.007  0.00  0.00    -0.349 N 
ATOM     13  C   UNL     1       0.326  -2.211  -0.577  0.00  0.00    +0.112 A 
ATOM     14  C   UNL     1       0.056  -2.246   0.757  0.00  0.00    +0.088 A 
ATOM     15  N   UNL     1      -0.327  -0.970   1.111  0.00  0.00    -0.325 N 
ATOM     16  H   UNL     1       0.225  -0.660  -1.921  0.00  0.00    +0.166 HD
BRANCH  15  17
ATOM     17  C   UNL     1      -0.711  -0.516   2.450  0.00  0.00    +0.083 C 
ATOM     18  C   UNL     1       0.160   0.675   2.854  0.00  0.00    +0.030 C 
ATOM     19  C   UNL     1      -2.182  -0.093   2.442  0.00  0.00    +0.030 C 
ENDBRANCH  15  17
ENDBRANCH   1  14
BRANCH   7  20
ATOM     20  C   UNL     1      -0.709  -7.981   2.490  0.00  0.00    +0.034 A 
ATOM     21  C   UNL     1      -0.954  -7.790   3.844  0.00  0.00    +0.025 A 
ATOM     22  C   UNL     1      -0.971  -8.873   4.702  0.00  0.00    +0.025 A 
ATOM     23  C   UNL     1      -0.743 -10.151   4.210  0.00  0.00    +0.030 A 
ATOM     24  C   UNL     1      -0.499 -10.342   2.856  0.00  0.00    +0.025 A 
ATOM     25  C   UNL     1      -0.487  -9.260   1.998  0.00  0.00    +0.025 A 
BRANCH  23  26
ATOM     26  N   UNL     1      -0.760 -11.248   5.079  0.00  0.00    -0.326 N 
ATOM     27  C   UNL     1      -0.395 -12.594   4.608  0.00  0.00    +0.133 C 
ATOM     28  C   UNL     1       0.647 -13.176   5.570  0.00  0.00    +0.178 C 
ATOM     29  O   UNL     1       0.155 -13.084   6.909  0.00  0.00    -0.377 OA
ATOM     30  C   UNL     1      -0.065 -11.746   7.361  0.00  0.00    +0.178 C 
ATOM     31  C   UNL     1      -1.138 -11.089   6.492  0.00  0.00    +0.133 C 
ENDBRANCH  23  26
ENDBRANCH   7  20
TORSDOF 4
