REMARK  Name = CHEMBL339948
REMARK  6 active torsions:
REMARK  status: ('A' for Active; 'I' for Inactive)
REMARK    1  A    between atoms: C_1  and  N_2
REMARK    2  A    between atoms: N_19  and  C_20
REMARK    3  A    between atoms: C_20  and  C_21
REMARK    4  A    between atoms: C_21  and  C_22
REMARK    5  A    between atoms: C_21  and  O_24
REMARK    6  A    between atoms: C_22  and  O_23
REMARK                            x       y       z     vdW  Elec       q    Type
REMARK                         _______ _______ _______ _____ _____    ______ ____
ROOT
ATOM      1  C   UNL     1      -0.285   1.464   0.049  0.00  0.00    +0.149 C 
ATOM      2  N   UNL     1      -0.337  -0.001   0.052  0.00  0.00    -0.341 N 
ATOM      3  C   UNL     1      -0.577  -0.784  -1.062  0.00  0.00    +0.050 A 
ATOM      4  C   UNL     1      -0.821  -0.469  -2.395  0.00  0.00    +0.026 A 
ATOM      5  C   UNL     1      -1.032  -1.474  -3.314  0.00  0.00    +0.002 A 
ATOM      6  C   UNL     1      -1.004  -2.805  -2.924  0.00  0.00    +0.001 A 
ATOM      7  C   UNL     1      -0.765  -3.138  -1.609  0.00  0.00    +0.010 A 
ATOM      8  C   UNL     1      -0.549  -2.131  -0.668  0.00  0.00    +0.008 A 
ATOM      9  C   UNL     1      -0.273  -2.139   0.778  0.00  0.00    +0.022 A 
ATOM     10  C   UNL     1      -0.146  -0.795   1.166  0.00  0.00    +0.075 A 
ATOM     11  C   UNL     1       0.128  -0.477   2.502  0.00  0.00    +0.075 A 
ATOM     12  C   UNL     1       0.278  -1.503   3.449  0.00  0.00    +0.022 A 
ATOM     13  C   UNL     1       0.554  -0.844   4.736  0.00  0.00    +0.008 A 
ATOM     14  C   UNL     1       0.791  -1.319   6.026  0.00  0.00    +0.010 A 
ATOM     15  C   UNL     1       1.024  -0.429   7.051  0.00  0.00    +0.001 A 
ATOM     16  C   UNL     1       1.023   0.936   6.804  0.00  0.00    +0.002 A 
ATOM     17  C   UNL     1       0.790   1.420   5.535  0.00  0.00    +0.026 A 
ATOM     18  C   UNL     1       0.553   0.537   4.486  0.00  0.00    +0.050 A 
ATOM     19  N   UNL     1       0.296   0.736   3.142  0.00  0.00    -0.336 N 
ATOM     20  C   UNL     1       0.155  -2.843   3.063  0.00  0.00    +0.060 A 
ATOM     21  C   UNL     1      -0.128  -3.162   1.723  0.00  0.00    +0.060 A 
ATOM     22  C   UNL     1      -0.193  -4.633   1.662  0.00  0.00    +0.252 C 
ATOM     23  O   UNL     1      -0.406  -5.293   0.664  0.00  0.00    -0.270 OA
ATOM     24  N   UNL     1       0.026  -5.124   2.895  0.00  0.00    -0.248 N 
ATOM     25  C   UNL     1       0.250  -4.130   3.774  0.00  0.00    +0.252 C 
ATOM     26  O   UNL     1       0.478  -4.270   4.960  0.00  0.00    -0.270 OA
ATOM     27  H   UNL     1       0.034  -6.068   3.118  0.00  0.00    +0.158 HD
ENDROOT
BRANCH  19  28
ATOM     28  C   UNL     1       0.214   2.045   2.490  0.00  0.00    +0.156 C 
BRANCH  28  29
ATOM     29  C   UNL     1      -1.234   2.537   2.514  0.00  0.00    +0.159 C 
BRANCH  29  30
ATOM     30  O   UNL     1      -1.639   2.762   3.865  0.00  0.00    -0.388 OA
ATOM     31  H   UNL     1      -1.107   3.421   4.331  0.00  0.00    +0.210 HD
ENDBRANCH  29  30
BRANCH  29  32
ATOM     32  C   UNL     1      -1.342   3.843   1.725  0.00  0.00    +0.188 C 
BRANCH  32  33
ATOM     33  O   UNL     1      -2.712   4.241   1.648  0.00  0.00    -0.392 OA
ATOM     34  H   UNL     1      -2.856   5.064   1.160  0.00  0.00    +0.210 HD
ENDBRANCH  32  33
ENDBRANCH  29  32
ENDBRANCH  28  29
ENDBRANCH  19  28
TORSDOF 5
