REMARK  Name = CHEMBL192440
REMARK  7 active torsions:
REMARK  status: ('A' for Active; 'I' for Inactive)
REMARK    1  A    between atoms: C_1  and  C_2
REMARK    2  A    between atoms: C_2  and  C_3
REMARK    3  A    between atoms: C_2  and  C_21
REMARK    4  A    between atoms: C_6  and  N_9
REMARK    5  A    between atoms: C_10  and  C_15
REMARK    6  A    between atoms: N_23  and  C_24
REMARK    7  A    between atoms: C_26  and  C_30
REMARK                            x       y       z     vdW  Elec       q    Type
REMARK                         _______ _______ _______ _____ _____    ______ ____
ROOT
ATOM      1  C   UNL     1       0.708  -0.490  -1.238  0.00  0.00    -0.036 A 
ATOM      2  C   UNL     1       0.101  -0.358  -2.473  0.00  0.00    +0.006 A 
ATOM      3  C   UNL     1       0.745  -0.802  -3.611  0.00  0.00    +0.024 A 
ATOM      4  C   UNL     1       2.003  -1.382  -3.514  0.00  0.00    +0.037 A 
ATOM      5  C   UNL     1       2.610  -1.513  -2.272  0.00  0.00    +0.024 A 
ATOM      6  C   UNL     1       1.963  -1.062  -1.138  0.00  0.00    +0.006 A 
ENDROOT
BRANCH   4   7
ATOM      7  N   UNL     1       2.658  -1.834  -4.665  0.00  0.00    -0.264 N 
ATOM      8  C   UNL     1       2.172  -1.616  -6.033  0.00  0.00    +0.112 C 
ATOM      9  C   UNL     1       3.387  -1.882  -6.949  0.00  0.00    +0.037 C 
ATOM     10  C   UNL     1       4.235  -2.838  -6.078  0.00  0.00    +0.098 C 
ATOM     11  C   UNL     1       3.815  -2.517  -4.661  0.00  0.00    +0.220 C 
ATOM     12  O   UNL     1       4.431  -2.833  -3.665  0.00  0.00    -0.275 OA
BRANCH   8  13
ATOM     13  C   UNL     1       1.696  -0.196  -6.198  0.00  0.00    -0.027 A 
ATOM     14  C   UNL     1       2.404   0.842  -5.622  0.00  0.00    +0.005 A 
ATOM     15  C   UNL     1       1.967   2.144  -5.773  0.00  0.00    +0.000 A 
ATOM     16  C   UNL     1       0.822   2.409  -6.501  0.00  0.00    +0.000 A 
ATOM     17  C   UNL     1       0.114   1.371  -7.078  0.00  0.00    +0.000 A 
ATOM     18  C   UNL     1       0.553   0.069  -6.931  0.00  0.00    +0.005 A 
ENDBRANCH   8  13
ENDBRANCH   4   7
BRANCH   1  20
ATOM     19  C   UNL     1      -0.273   1.496  -0.122  0.00  0.00    +0.022 C 
ATOM     20  C   UNL     1       0.002  -0.004   0.002  0.00  0.00    +0.102 C 
BRANCH  20  21
ATOM     21  C   UNL     1      -1.302  -0.743   0.161  0.00  0.00    +0.225 C 
ATOM     22  O   UNL     1      -1.626  -1.581  -0.653  0.00  0.00    -0.275 OA
ATOM     23  N   UNL     1      -2.107  -0.472   1.207  0.00  0.00    -0.270 N 
ATOM     24  H   UNL     1      -1.847   0.199   1.857  0.00  0.00    +0.156 HD
BRANCH  23  25
ATOM     25  C   UNL     1      -3.314  -1.155   1.353  0.00  0.00    +0.121 A 
ATOM     26  C   UNL     1      -3.800  -2.115   0.520  0.00  0.00    +0.068 A 
ATOM     27  C   UNL     1      -5.032  -2.539   1.028  0.00  0.00    +0.068 A 
ATOM     28  N   UNL     1      -5.279  -1.864   2.122  0.00  0.00    -0.177 NA
ATOM     29  H   UNL     1      -4.129  -0.371   3.095  0.00  0.00    +0.190 HD
ATOM     30  N   UNL     1      -4.210  -0.989   2.352  0.00  0.00    -0.264 N 
BRANCH  27  31
ATOM     31  C   UNL     1      -5.922  -3.592   0.420  0.00  0.00    +0.040 C 
ATOM     32  C   UNL     1      -5.657  -3.987  -1.034  0.00  0.00    +0.010 C 
ATOM     33  C   UNL     1      -6.889  -3.151  -0.680  0.00  0.00    +0.010 C 
ENDBRANCH  27  31
ENDBRANCH  23  25
ENDBRANCH  20  21
ENDBRANCH   1  20
TORSDOF 6
