REMARK  Name = CHEMBL129475
REMARK  10 active torsions:
REMARK  status: ('A' for Active; 'I' for Inactive)
REMARK    1  A    between atoms: C_1  and  C_2
REMARK    2  A    between atoms: C_2  and  C_3
REMARK    3  A    between atoms: C_2  and  C_4
REMARK    4  A    between atoms: C_2  and  C_5
REMARK    5  A    between atoms: C_8  and  C_10
REMARK    6  A    between atoms: C_10  and  S_11
REMARK    7  A    between atoms: S_11  and  C_12
REMARK    8  A    between atoms: C_18  and  O_20
REMARK    9  A    between atoms: O_20  and  C_21
REMARK   10  A    between atoms: C_21  and  C_22
REMARK                            x       y       z     vdW  Elec       q    Type
REMARK                         _______ _______ _______ _____ _____    ______ ____
ROOT
ATOM      1  C   UNL     1       1.190  -4.819  -5.598  0.00  0.00    +0.067 A 
ATOM      2  C   UNL     1       1.371  -6.127  -5.932  0.00  0.00    +0.135 A 
ATOM      3  N   UNL     1       1.132  -6.524  -7.168  0.00  0.00    -0.232 NA
ATOM      4  C   UNL     1       0.719  -5.678  -8.093  0.00  0.00    +0.168 A 
ATOM      5  S   UNL     1       0.640  -4.152  -7.164  0.00  0.00    -0.046 S 
ATOM      6  N   UNL     1       0.420  -5.912  -9.433  0.00  0.00    -0.230 N 
ATOM      7  C   UNL     1       0.542  -7.153  -9.944  0.00  0.00    +0.406 C 
ATOM      8  O   UNL     1       0.913  -8.068  -9.236  0.00  0.00    -0.226 OA
ATOM      9  H   UNL     1       0.124  -5.181  -9.998  0.00  0.00    +0.160 HD
ENDROOT
BRANCH   1  10
ATOM     10  S   UNL     1       1.424  -4.009  -4.051  0.00  0.00    -0.107 S 
BRANCH  10  11
ATOM     11  C   UNL     1       0.974  -2.284  -4.386  0.00  0.00    +0.170 C 
BRANCH  11  15
ATOM     12  C   UNL     1       0.707  -0.490  -1.238  0.00  0.00    +0.131 A 
ATOM     13  C   UNL     1       1.979  -0.232  -1.585  0.00  0.00    +0.156 A 
ATOM     14  N   UNL     1       2.215  -0.849  -2.757  0.00  0.00    -0.221 NA
ATOM     15  C   UNL     1       1.132  -1.470  -3.128  0.00  0.00    +0.206 A 
ATOM     16  O   UNL     1       0.183  -1.270  -2.203  0.00  0.00    -0.443 OA
BRANCH  12  18
ATOM     17  C   UNL     1      -0.019   1.526   0.010  0.00  0.00    +0.019 C 
ATOM     18  C   UNL     1       0.002  -0.004   0.002  0.00  0.00    +0.022 C 
ATOM     19  C   UNL     1       0.742  -0.511   1.242  0.00  0.00    +0.019 C 
ATOM     20  C   UNL     1      -1.433  -0.534   0.013  0.00  0.00    +0.019 C 
ENDBRANCH  12  18
ENDBRANCH  11  15
ENDBRANCH  10  11
ENDBRANCH   1  10
BRANCH   7  21
ATOM     21  O   UNL     1       0.253  -7.379 -11.239  0.00  0.00    -0.445 OA
BRANCH  21  22
ATOM     22  C   UNL     1       0.405  -8.718 -11.714  0.00  0.00    +0.269 C 
BRANCH  22  23
ATOM     23  C   UNL     1       0.040  -8.778 -13.175  0.00  0.00    -0.010 A 
ATOM     24  C   UNL     1      -1.266  -9.033 -13.550  0.00  0.00    +0.007 A 
ATOM     25  C   UNL     1      -1.602  -9.088 -14.890  0.00  0.00    +0.000 A 
ATOM     26  C   UNL     1      -0.631  -8.888 -15.854  0.00  0.00    +0.000 A 
ATOM     27  C   UNL     1       0.674  -8.632 -15.479  0.00  0.00    +0.000 A 
ATOM     28  C   UNL     1       1.009  -8.573 -14.139  0.00  0.00    +0.007 A 
ENDBRANCH  22  23
ENDBRANCH  21  22
ENDBRANCH   7  21
TORSDOF 7
