REMARK  Name = CHEMBL411887
REMARK  6 active torsions:
REMARK  status: ('A' for Active; 'I' for Inactive)
REMARK    1  A    between atoms: C_1  and  C_2
REMARK    2  A    between atoms: C_2  and  N_18
REMARK    3  A    between atoms: C_6  and  C_13
REMARK    4  A    between atoms: N_18  and  C_19
REMARK    5  A    between atoms: C_22  and  S_25
REMARK    6  A    between atoms: S_25  and  N_28
REMARK                            x       y       z     vdW  Elec       q    Type
REMARK                         _______ _______ _______ _____ _____    ______ ____
ROOT
ATOM      1  C   UNL     1      -0.453   1.663  -0.487  0.00  0.00    +0.061 C 
ATOM      2  C   UNL     1      -0.112   0.245  -0.106  0.00  0.00    +0.018 C 
ATOM      3  C   UNL     1       0.185  -0.060   1.191  0.00  0.00    +0.063 C 
ATOM      4  C   UNL     1       0.094   0.831   2.371  0.00  0.00    +0.010 A 
ATOM      5  C   UNL     1      -0.291   2.155   2.534  0.00  0.00    +0.022 A 
ATOM      6  C   UNL     1      -0.270   2.727   3.804  0.00  0.00    +0.020 A 
ATOM      7  C   UNL     1       0.138   1.965   4.903  0.00  0.00    +0.013 A 
ATOM      8  C   UNL     1       0.519   0.652   4.739  0.00  0.00    +0.024 A 
ATOM      9  C   UNL     1       0.502   0.068   3.474  0.00  0.00    +0.042 A 
ATOM     10  N   UNL     1       0.832  -1.211   3.045  0.00  0.00    -0.281 N 
ATOM     11  C   UNL     1       0.659  -1.345   1.720  0.00  0.00    +0.250 C 
ATOM     12  O   UNL     1       0.863  -2.355   1.069  0.00  0.00    -0.270 OA
ATOM     13  H   UNL     1       1.143  -1.920   3.630  0.00  0.00    +0.155 HD
ENDROOT
BRANCH   6  14
ATOM     14  C   UNL     1      -0.677   4.136   3.990  0.00  0.00    +0.155 A 
ATOM     15  C   UNL     1      -0.701   4.824   5.160  0.00  0.00    +0.160 A 
ATOM     16  N   UNL     1      -1.129   6.067   4.890  0.00  0.00    -0.224 NA
ATOM     17  C   UNL     1      -1.365   6.163   3.611  0.00  0.00    +0.308 A 
ATOM     18  O   UNL     1      -1.090   4.989   3.027  0.00  0.00    -0.442 OA
ENDBRANCH   6  14
BRANCH   2  19
ATOM     19  N   UNL     1      -0.101  -0.731  -1.055  0.00  0.00    -0.317 N 
ATOM     20  H   UNL     1      -0.707  -1.485  -0.983  0.00  0.00    +0.152 HD
BRANCH  19  21
ATOM     21  C   UNL     1       0.784  -0.647  -2.133  0.00  0.00    +0.031 A 
ATOM     22  C   UNL     1       1.766   0.336  -2.153  0.00  0.00    +0.025 A 
ATOM     23  C   UNL     1       2.640   0.416  -3.220  0.00  0.00    +0.030 A 
ATOM     24  C   UNL     1       2.538  -0.481  -4.268  0.00  0.00    +0.105 A 
ATOM     25  C   UNL     1       1.561  -1.460  -4.251  0.00  0.00    +0.030 A 
ATOM     26  C   UNL     1       0.688  -1.549  -3.185  0.00  0.00    +0.025 A 
BRANCH  24  27
ATOM     27  S   UNL     1       3.654  -0.374  -5.627  0.00  0.00    +0.056 S 
ATOM     28  O   UNL     1       3.004  -0.984  -6.734  0.00  0.00    -0.153 OA
ATOM     29  O   UNL     1       4.124   0.966  -5.663  0.00  0.00    -0.153 OA
BRANCH  27  30
ATOM     30  N   UNL     1       4.960  -1.325  -5.263  0.00  0.00    -0.204 NA
ATOM     31  H   UNL     1       5.458  -1.757  -5.975  0.00  0.00    +0.144 HD
ATOM     32  H   UNL     1       5.227  -1.450  -4.339  0.00  0.00    +0.144 HD
ENDBRANCH  27  30
ENDBRANCH  24  27
ENDBRANCH  19  21
ENDBRANCH   2  19
TORSDOF 5
