REMARK  Name = CHEMBL254269
REMARK  9 active torsions:
REMARK  status: ('A' for Active; 'I' for Inactive)
REMARK    1  A    between atoms: C_1  and  C_2
REMARK    2  A    between atoms: C_5  and  S_16
REMARK    3  A    between atoms: C_7  and  C_8
REMARK    4  A    between atoms: N_10  and  C_11
REMARK    5  A    between atoms: N_10  and  C_12
REMARK    6  A    between atoms: C_12  and  C_13
REMARK    7  A    between atoms: C_13  and  N_14
REMARK    8  A    between atoms: N_14  and  C_15
REMARK    9  A    between atoms: S_16  and  C_17
REMARK                            x       y       z     vdW  Elec       q    Type
REMARK                         _______ _______ _______ _____ _____    ______ ____
ROOT
ATOM      1  C   UNL     1       0.110   1.450  -0.015  0.00  0.00    +0.044 C 
ATOM      2  C   UNL     1       0.075  -0.056   0.002  0.00  0.00    -0.038 A 
ATOM      3  C   UNL     1      -0.023  -0.758  -1.183  0.00  0.00    +0.005 A 
ATOM      4  C   UNL     1      -0.056  -2.139  -1.172  0.00  0.00    +0.015 A 
ATOM      5  C   UNL     1       0.011  -2.832   0.032  0.00  0.00    +0.014 A 
ATOM      6  C   UNL     1       0.110  -2.136   1.228  0.00  0.00    +0.028 A 
ATOM      7  C   UNL     1       0.149  -0.742   1.216  0.00  0.00    +0.041 A 
ENDROOT
BRANCH   7   8
ATOM      8  C   UNL     1       0.261   0.008   2.486  0.00  0.00    +0.247 C 
ATOM      9  O   UNL     1       1.131   0.846   2.622  0.00  0.00    -0.270 OA
ATOM     10  N   UNL     1      -0.602  -0.238   3.492  0.00  0.00    -0.302 N 
ATOM     11  C   UNL     1      -1.729  -1.150   3.284  0.00  0.00    +0.132 C 
BRANCH  10  12
ATOM     12  C   UNL     1      -0.413   0.408   4.793  0.00  0.00    +0.089 C 
BRANCH  12  13
ATOM     13  C   UNL     1      -1.164   1.740   4.816  0.00  0.00    -0.064 C 
BRANCH  13  14
ATOM     14  N   UNL     1      -0.974   2.388   6.121  0.00  0.00    +0.378 N 
ATOM     15  C   UNL     1      -1.696   3.667   6.143  0.00  0.00    -0.100 C 
ATOM     16  H   UNL     1      -1.331   1.788   6.849  0.00  0.00    -0.086 HD
ATOM     17  H   UNL     1       0.009   2.553   6.274  0.00  0.00    -0.086 HD
ENDBRANCH  13  14
ENDBRANCH  12  13
ENDBRANCH  10  12
ENDBRANCH   7   8
BRANCH   5  18
ATOM     18  S   UNL     1      -0.033  -4.594   0.039  0.00  0.00    -0.081 S 
BRANCH  18  19
ATOM     19  C   UNL     1       1.666  -5.061   0.071  0.00  0.00    +0.071 A 
ATOM     20  C   UNL     1       2.228  -6.299  -0.010  0.00  0.00    +0.135 A 
ATOM     21  N   UNL     1       3.542  -6.423   0.034  0.00  0.00    -0.232 NA
ATOM     22  C   UNL     1       4.327  -5.367   0.155  0.00  0.00    +0.164 A 
ATOM     23  S   UNL     1       3.128  -4.042   0.210  0.00  0.00    -0.045 S 
ATOM     24  N   UNL     1       5.714  -5.304   0.218  0.00  0.00    -0.279 N 
ATOM     25  C   UNL     1       6.472  -6.457   0.045  0.00  0.00    +0.126 A 
ATOM     26  C   UNL     1       7.852  -6.408   0.216  0.00  0.00    +0.044 A 
ATOM     27  C   UNL     1       8.594  -7.562   0.041  0.00  0.00    +0.006 A 
ATOM     28  C   UNL     1       7.928  -8.732  -0.299  0.00  0.00    +0.035 A 
ATOM     29  C   UNL     1       6.555  -8.710  -0.453  0.00  0.00    +0.108 A 
ATOM     30  N   UNL     1       5.873  -7.594  -0.275  0.00  0.00    -0.225 NA
ATOM     31 BR   UNL     1       5.642 -10.300  -0.916  0.00  0.00    -0.029 Br
ATOM     32  H   UNL     1       6.154  -4.455   0.383  0.00  0.00    +0.155 HD
ENDBRANCH  18  19
ENDBRANCH   5  18
TORSDOF 6
