REMARK  Name = CHEMBL462192
REMARK  8 active torsions:
REMARK  status: ('A' for Active; 'I' for Inactive)
REMARK    1  A    between atoms: C_1  and  C_2
REMARK    2  A    between atoms: C_5  and  C_10
REMARK    3  A    between atoms: N_6  and  C_7
REMARK    4  A    between atoms: C_7  and  C_8
REMARK    5  A    between atoms: C_7  and  C_9
REMARK    6  A    between atoms: N_16  and  C_17
REMARK    7  A    between atoms: C_20  and  C_23
REMARK    8  A    between atoms: N_29  and  C_32
REMARK                            x       y       z     vdW  Elec       q    Type
REMARK                         _______ _______ _______ _____ _____    ______ ____
ROOT
ATOM      1  C   UNL     1       0.700  -3.952   0.437  0.00  0.00    +0.129 A 
ATOM      2  C   UNL     1       1.767  -4.329   1.264  0.00  0.00    +0.169 A 
ATOM      3  C   UNL     1       1.761  -5.601   1.808  0.00  0.00    +0.155 A 
ATOM      4  N   UNL     1       0.755  -6.418   1.533  0.00  0.00    -0.220 NA
ATOM      5  C   UNL     1      -0.241  -6.036   0.747  0.00  0.00    +0.220 A 
ATOM      6  N   UNL     1      -0.280  -4.828   0.210  0.00  0.00    -0.210 NA
ATOM      7  N   UNL     1      -1.273  -6.925   0.486  0.00  0.00    -0.284 N 
ATOM      8  F   UNL     1       2.777  -3.470   1.525  0.00  0.00    -0.202 F 
ATOM      9  H   UNL     1      -1.969  -6.687  -0.147  0.00  0.00    +0.155 HD
ENDROOT
BRANCH   1  14
ATOM     10  C   UNL     1       1.006   1.035  -0.223  0.00  0.00    +0.086 C 
ATOM     11  C   UNL     1       0.789  -0.437  -0.464  0.00  0.00    +0.107 A 
ATOM     12  N   UNL     1       0.407  -0.973  -1.593  0.00  0.00    -0.240 NA
ATOM     13  C   UNL     1       0.316  -2.299  -1.451  0.00  0.00    +0.140 A 
ATOM     14  C   UNL     1       0.658  -2.606  -0.169  0.00  0.00    +0.090 A 
ATOM     15  N   UNL     1       0.963  -1.413   0.450  0.00  0.00    -0.324 N 
BRANCH  15  16
ATOM     16  C   UNL     1       1.393  -1.239   1.840  0.00  0.00    +0.083 C 
ATOM     17  C   UNL     1       2.731  -0.497   1.871  0.00  0.00    +0.030 C 
ATOM     18  C   UNL     1       0.342  -0.427   2.600  0.00  0.00    +0.030 C 
ENDBRANCH  15  16
ENDBRANCH   1  14
BRANCH   7  19
ATOM     19  C   UNL     1      -1.311  -8.157   1.132  0.00  0.00    +0.034 A 
ATOM     20  C   UNL     1      -0.860  -8.268   2.444  0.00  0.00    +0.024 A 
ATOM     21  C   UNL     1      -0.896  -9.485   3.085  0.00  0.00    +0.015 A 
ATOM     22  C   UNL     1      -1.387 -10.611   2.417  0.00  0.00    +0.037 A 
ATOM     23  C   UNL     1      -1.840 -10.496   1.100  0.00  0.00    +0.015 A 
ATOM     24  C   UNL     1      -1.806  -9.275   0.466  0.00  0.00    +0.024 A 
BRANCH  22  25
ATOM     25  C   UNL     1      -1.426 -11.918   3.102  0.00  0.00    +0.247 C 
ATOM     26  O   UNL     1      -1.688 -11.975   4.288  0.00  0.00    -0.270 OA
ATOM     27  N   UNL     1      -1.172 -13.047   2.412  0.00  0.00    -0.299 N 
ATOM     28  C   UNL     1      -0.728 -12.940   1.008  0.00  0.00    +0.106 C 
ATOM     29  C   UNL     1       0.398 -13.945   0.704  0.00  0.00    +0.000 C 
ATOM     30  C   UNL     1       1.344 -14.012   1.883  0.00  0.00    -0.078 C 
ATOM     31  N   UNL     1       0.936 -15.101   2.767  0.00  0.00    +0.379 N 
ATOM     32  C   UNL     1      -0.017 -14.748   3.747  0.00  0.00    -0.060 C 
ATOM     33  C   UNL     1      -1.338 -14.323   3.077  0.00  0.00    +0.089 C 
ATOM     34  C   UNL     1       2.131 -15.618   3.447  0.00  0.00    -0.096 C 
ATOM     35  H   UNL     1       0.551 -15.843   2.201  0.00  0.00    -0.082 HD
ENDBRANCH  22  25
ENDBRANCH   7  19
TORSDOF 4
