REMARK  Name = CHEMBL143147
REMARK  6 active torsions:
REMARK  status: ('A' for Active; 'I' for Inactive)
REMARK    1  A    between atoms: C_1  and  C_2
REMARK    2  A    between atoms: C_2  and  C_3
REMARK    3  A    between atoms: C_2  and  N_4
REMARK    4  A    between atoms: N_15  and  C_16
REMARK    5  A    between atoms: C_19  and  N_22
REMARK    6  A    between atoms: N_25  and  C_28
REMARK                            x       y       z     vdW  Elec       q    Type
REMARK                         _______ _______ _______ _____ _____    ______ ____
ROOT
ATOM      1  N   UNL     1      -0.970  -1.261   0.383  0.00  0.00    -0.290 N 
ATOM      2  C   UNL     1      -1.417  -1.447   1.638  0.00  0.00    +0.253 A 
ATOM      3  O   UNL     1      -1.164  -0.610   2.487  0.00  0.00    -0.268 OA
ATOM      4  C   UNL     1      -2.171  -2.582   1.998  0.00  0.00    +0.071 A 
ATOM      5  C   UNL     1      -2.466  -3.529   1.069  0.00  0.00    +0.018 A 
ATOM      6  C   UNL     1      -1.984  -3.334  -0.295  0.00  0.00    +0.036 A 
ATOM      7  C   UNL     1      -1.238  -2.175  -0.603  0.00  0.00    +0.149 A 
ATOM      8  N   UNL     1      -0.808  -2.005  -1.847  0.00  0.00    -0.196 NA
ATOM      9  C   UNL     1      -1.082  -2.906  -2.779  0.00  0.00    +0.221 A 
ATOM     10  N   UNL     1      -1.785  -4.004  -2.526  0.00  0.00    -0.222 NA
ATOM     11  C   UNL     1      -2.242  -4.260  -1.313  0.00  0.00    +0.126 A 
ATOM     12  N   UNL     1      -0.618  -2.696  -4.063  0.00  0.00    -0.284 N 
ATOM     13  H   UNL     1      -0.035  -1.943  -4.251  0.00  0.00    +0.155 HD
ENDROOT
BRANCH  12  14
ATOM     14  C   UNL     1      -0.989  -3.569  -5.094  0.00  0.00    +0.034 A 
ATOM     15  C   UNL     1      -2.283  -4.071  -5.146  0.00  0.00    +0.025 A 
ATOM     16  C   UNL     1      -2.648  -4.932  -6.162  0.00  0.00    +0.025 A 
ATOM     17  C   UNL     1      -1.723  -5.295  -7.131  0.00  0.00    +0.030 A 
ATOM     18  C   UNL     1      -0.429  -4.792  -7.079  0.00  0.00    +0.025 A 
ATOM     19  C   UNL     1      -0.065  -3.927  -6.066  0.00  0.00    +0.025 A 
BRANCH  17  20
ATOM     20  N   UNL     1      -2.093  -6.167  -8.161  0.00  0.00    -0.327 N 
ATOM     21  C   UNL     1      -1.100  -6.657  -9.129  0.00  0.00    +0.120 C 
ATOM     22  C   UNL     1      -1.202  -8.184  -9.200  0.00  0.00    +0.103 C 
ATOM     23  N   UNL     1      -2.591  -8.567  -9.487  0.00  0.00    -0.302 NA
ATOM     24  C   UNL     1      -3.493  -8.148  -8.406  0.00  0.00    +0.103 C 
ATOM     25  C   UNL     1      -3.484  -6.624  -8.299  0.00  0.00    +0.120 C 
ATOM     26  C   UNL     1      -2.699 -10.011  -9.734  0.00  0.00    +0.105 C 
ENDBRANCH  17  20
ENDBRANCH  12  14
BRANCH   1  28
ATOM     27  C   UNL     1      -1.030   1.184   0.359  0.00  0.00    +0.031 C 
ATOM     28  C   UNL     1      -0.192  -0.062   0.064  0.00  0.00    +0.086 C 
ATOM     29  C   UNL     1       1.078  -0.036   0.918  0.00  0.00    +0.031 C 
ENDBRANCH   1  28
TORSDOF 3
