REMARK  Name = CHEMBL87735
REMARK  7 active torsions:
REMARK  status: ('A' for Active; 'I' for Inactive)
REMARK    1  A    between atoms: C_4  and  O_7
REMARK    2  A    between atoms: O_7  and  C_8
REMARK    3  A    between atoms: C_14  and  N_19
REMARK    4  A    between atoms: C_15  and  O_18
REMARK    5  A    between atoms: N_20  and  C_21
REMARK    6  A    between atoms: C_24  and  S_27
REMARK    7  A    between atoms: S_27  and  N_30
REMARK                            x       y       z     vdW  Elec       q    Type
REMARK                         _______ _______ _______ _____ _____    ______ ____
ROOT
ATOM      1  C   UNL     1       7.822  -3.556   1.825  0.00  0.00    +0.140 A 
ATOM      2  C   UNL     1       7.968  -4.770   2.473  0.00  0.00    +0.047 A 
ATOM      3  C   UNL     1       8.452  -5.872   1.786  0.00  0.00    +0.006 A 
ATOM      4  C   UNL     1       8.794  -5.777   0.453  0.00  0.00    +0.026 A 
ATOM      5  C   UNL     1       8.656  -4.565  -0.217  0.00  0.00    +0.055 A 
ATOM      6  C   UNL     1       8.160  -3.450   0.474  0.00  0.00    +0.073 A 
ATOM      7  C   UNL     1       8.127  -2.344  -0.501  0.00  0.00    +0.158 A 
ATOM      8  C   UNL     1       8.593  -2.867  -1.698  0.00  0.00    +0.219 A 
ATOM      9  N   UNL     1       8.913  -4.178  -1.520  0.00  0.00    -0.324 N 
ATOM     10  H   UNL     1       9.260  -4.761  -2.212  0.00  0.00    +0.169 HD
ENDROOT
BRANCH   8  11
ATOM     11  O   UNL     1       8.722  -2.180  -2.856  0.00  0.00    -0.492 OA
ATOM     12  H   UNL     1       9.555  -1.696  -2.935  0.00  0.00    +0.294 HD
ENDBRANCH   8  11
BRANCH   7  13
ATOM     13  N   UNL     1       7.724  -1.077  -0.275  0.00  0.00    -0.143 NA
ATOM     14  N   UNL     1       6.869  -0.521  -1.065  0.00  0.00    -0.149 NA
BRANCH  14  15
ATOM     15  C   UNL     1       6.470  -1.166  -2.203  0.00  0.00    +0.086 A 
ATOM     16  C   UNL     1       5.756  -2.364  -2.117  0.00  0.00    +0.031 A 
ATOM     17  C   UNL     1       5.356  -3.009  -3.269  0.00  0.00    +0.030 A 
ATOM     18  C   UNL     1       5.661  -2.472  -4.507  0.00  0.00    +0.105 A 
ATOM     19  C   UNL     1       6.367  -1.286  -4.600  0.00  0.00    +0.030 A 
ATOM     20  C   UNL     1       6.769  -0.627  -3.457  0.00  0.00    +0.031 A 
BRANCH  18  21
ATOM     21  S   UNL     1       5.146  -3.304  -5.973  0.00  0.00    +0.056 S 
ATOM     22  O   UNL     1       6.025  -2.884  -7.008  0.00  0.00    -0.153 OA
ATOM     23  O   UNL     1       4.976  -4.671  -5.626  0.00  0.00    -0.153 OA
BRANCH  21  24
ATOM     24  N   UNL     1       3.645  -2.724  -6.364  0.00  0.00    -0.204 NA
ATOM     25  H   UNL     1       3.226  -2.049  -5.808  0.00  0.00    +0.144 HD
ATOM     26  H   UNL     1       3.184  -3.061  -7.148  0.00  0.00    +0.144 HD
ENDBRANCH  21  24
ENDBRANCH  18  21
ENDBRANCH  14  15
ENDBRANCH   7  13
BRANCH   1  27
ATOM     27  O   UNL     1       7.348  -2.475   2.498  0.00  0.00    -0.455 OA
BRANCH  27  31
ATOM     28  C   UNL     1       6.773  -2.826   6.568  0.00  0.00    +0.000 A 
ATOM     29  C   UNL     1       8.050  -2.667   6.063  0.00  0.00    +0.004 A 
ATOM     30  C   UNL     1       8.246  -2.549   4.701  0.00  0.00    +0.046 A 
ATOM     31  C   UNL     1       7.159  -2.591   3.839  0.00  0.00    +0.128 A 
ATOM     32  C   UNL     1       5.878  -2.750   4.349  0.00  0.00    +0.046 A 
ATOM     33  C   UNL     1       5.689  -2.868   5.712  0.00  0.00    +0.004 A 
ENDBRANCH  27  31
ENDBRANCH   1  27
TORSDOF 7
