REMARK  Name = CHEMBL363077
REMARK  6 active torsions:
REMARK  status: ('A' for Active; 'I' for Inactive)
REMARK    1  A    between atoms: C_1  and  O_2
REMARK    2  A    between atoms: O_2  and  C_3
REMARK    3  A    between atoms: C_6  and  C_9
REMARK    4  A    between atoms: C_19  and  N_23
REMARK    5  A    between atoms: N_26  and  N_27
REMARK    6  A    between atoms: C_28  and  C_30
REMARK                            x       y       z     vdW  Elec       q    Type
REMARK                         _______ _______ _______ _____ _____    ______ ____
ROOT
ATOM      1  C   UNL     1      -4.983  -2.612   0.040  0.00  0.00    +0.077 A 
ATOM      2  C   UNL     1      -5.334  -3.692   0.838  0.00  0.00    +0.075 A 
ATOM      3  C   UNL     1      -6.723  -4.022   0.508  0.00  0.00    +0.105 A 
ATOM      4  N   UNL     1      -7.116  -3.178  -0.413  0.00  0.00    -0.173 NA
ATOM      5  N   UNL     1      -6.072  -2.297  -0.716  0.00  0.00    -0.276 N 
ATOM      6  H   UNL     1      -6.117  -1.577  -1.364  0.00  0.00    +0.189 HD
ATOM      7  C   UNL     1      -7.120  -5.177   1.351  0.00  0.00    +0.015 A 
ATOM      8  C   UNL     1      -8.312  -5.885   1.444  0.00  0.00    +0.011 A 
ATOM      9  C   UNL     1      -8.427  -6.944   2.329  0.00  0.00    +0.002 A 
ATOM     10  C   UNL     1      -7.363  -7.310   3.127  0.00  0.00    +0.024 A 
ATOM     11  C   UNL     1      -6.160  -6.616   3.051  0.00  0.00    +0.046 A 
ATOM     12  C   UNL     1      -6.030  -5.542   2.161  0.00  0.00    +0.053 A 
ATOM     13  C   UNL     1      -4.896  -4.641   1.871  0.00  0.00    +0.200 C 
ATOM     14  O   UNL     1      -3.798  -4.678   2.393  0.00  0.00    -0.286 OA
ENDROOT
BRANCH   1  18
ATOM     15  C   UNL     1      -1.222  -0.642  -0.021  0.00  0.00    +0.120 A 
ATOM     16  C   UNL     1      -2.394   0.104   0.001  0.00  0.00    +0.046 A 
ATOM     17  C   UNL     1      -3.616  -0.531   0.021  0.00  0.00    +0.013 A 
ATOM     18  C   UNL     1      -3.676  -1.927   0.018  0.00  0.00    +0.001 A 
ATOM     19  C   UNL     1      -2.495  -2.674  -0.004  0.00  0.00    +0.013 A 
ATOM     20  C   UNL     1      -1.277  -2.030  -0.029  0.00  0.00    +0.046 A 
BRANCH  15  22
ATOM     21  C   UNL     1      -0.035   1.417  -0.030  0.00  0.00    +0.277 C 
ATOM     22  O   UNL     1      -0.019  -0.012  -0.040  0.00  0.00    -0.495 OA
ENDBRANCH  15  22
ENDBRANCH   1  18
BRANCH  11  23
ATOM     23  N   UNL     1      -5.088  -6.986   3.859  0.00  0.00    -0.268 N 
ATOM     24  C   UNL     1      -4.999  -8.248   4.324  0.00  0.00    +0.320 C 
ATOM     25  O   UNL     1      -5.797  -9.089   3.957  0.00  0.00    -0.251 OA
ATOM     26  N   UNL     1      -4.026  -8.578   5.196  0.00  0.00    -0.218 N 
ATOM     27  H   UNL     1      -4.405  -6.337   4.087  0.00  0.00    +0.156 HD
ATOM     28  H   UNL     1      -3.962  -9.486   5.531  0.00  0.00    +0.174 HD
BRANCH  26  29
ATOM     29  N   UNL     1      -3.107  -7.610   5.619  0.00  0.00    -0.229 N 
ATOM     30  C   UNL     1      -2.133  -7.940   6.491  0.00  0.00    +0.262 C 
ATOM     31  O   UNL     1      -2.054  -9.078   6.911  0.00  0.00    -0.269 OA
ATOM     32  H   UNL     1      -3.170  -6.701   5.284  0.00  0.00    +0.173 HD
BRANCH  30  33
ATOM     33  C   UNL     1      -1.163  -6.917   6.938  0.00  0.00    +0.056 A 
ATOM     34  C   UNL     1      -0.144  -7.249   7.839  0.00  0.00    +0.016 A 
ATOM     35  C   UNL     1       0.739  -6.256   8.225  0.00  0.00    +0.020 A 
ATOM     36  C   UNL     1       0.588  -4.979   7.713  0.00  0.00    +0.111 A 
ATOM     37  N   UNL     1      -0.383  -4.696   6.865  0.00  0.00    -0.263 NA
ATOM     38  C   UNL     1      -1.244  -5.608   6.463  0.00  0.00    +0.123 A 
ENDBRANCH  30  33
ENDBRANCH  26  29
ENDBRANCH  11  23
TORSDOF 5
