REMARK  Name = CHEMBL260163
REMARK  3 active torsions:
REMARK  status: ('A' for Active; 'I' for Inactive)
REMARK    1  A    between atoms: C_3  and  O_23
REMARK    2  A    between atoms: C_6  and  C_7
REMARK    3  A    between atoms: C_18  and  C_20
REMARK                            x       y       z     vdW  Elec       q    Type
REMARK                         _______ _______ _______ _____ _____    ______ ____
ROOT
ATOM      1  C   UNL     1      -1.271  -0.764   0.011  0.00  0.00    -0.016 A 
ATOM      2  C   UNL     1      -2.492  -0.078   0.021  0.00  0.00    +0.009 A 
ATOM      3  C   UNL     1      -3.670  -0.762   0.029  0.00  0.00    +0.014 A 
ATOM      4  C   UNL     1      -3.665  -2.162   0.027  0.00  0.00    +0.042 A 
ATOM      5  C   UNL     1      -2.442  -2.861   0.017  0.00  0.00    +0.068 A 
ATOM      6  C   UNL     1      -1.246  -2.152   0.003  0.00  0.00    +0.036 A 
ATOM      7  N   UNL     1      -2.750  -4.198   0.017  0.00  0.00    -0.275 N 
ATOM      8  H   UNL     1      -2.105  -4.923   0.012  0.00  0.00    +0.189 HD
ATOM      9  N   UNL     1      -4.140  -4.349   0.028  0.00  0.00    -0.157 NA
ATOM     10  C   UNL     1      -4.718  -3.178   0.034  0.00  0.00    +0.154 A 
ATOM     11  N   UNL     1      -6.097  -2.938   0.045  0.00  0.00    -0.268 N 
ATOM     12  C   UNL     1      -6.961  -3.972   0.051  0.00  0.00    +0.221 C 
ATOM     13  O   UNL     1      -6.544  -5.111   0.046  0.00  0.00    -0.275 OA
ATOM     14  H   UNL     1      -6.430  -2.027   0.049  0.00  0.00    +0.156 HD
ENDROOT
BRANCH   1  20
ATOM     15  C   UNL     1      -0.017   1.390   0.010  0.00  0.00    +0.012 A 
ATOM     16  C   UNL     1       1.169   2.094   0.002  0.00  0.00    +0.046 A 
ATOM     17  C   UNL     1       2.380   1.416  -0.013  0.00  0.00    +0.117 A 
ATOM     18  C   UNL     1       2.402   0.028  -0.021  0.00  0.00    +0.046 A 
ATOM     19  C   UNL     1       1.220  -0.682  -0.014  0.00  0.00    +0.012 A 
ATOM     20  C   UNL     1       0.002  -0.004   0.002  0.00  0.00    -0.018 A 
BRANCH  17  21
ATOM     21  O   UNL     1       3.547   2.113  -0.021  0.00  0.00    -0.507 OA
ATOM     22  H   UNL     1       3.893   2.310   0.861  0.00  0.00    +0.292 HD
ENDBRANCH  17  21
ENDBRANCH   1  20
BRANCH  12  23
ATOM     23  C   UNL     1      -8.446  -3.713   0.063  0.00  0.00    +0.075 C 
ATOM     24  C   UNL     1      -9.216  -4.081   1.332  0.00  0.00    +0.013 C 
ATOM     25  C   UNL     1      -9.374  -4.929   0.069  0.00  0.00    +0.013 C 
ENDBRANCH  12  23
TORSDOF 3
