REMARK  Name = CHEMBL178179
REMARK  9 active torsions:
REMARK  status: ('A' for Active; 'I' for Inactive)
REMARK    1  A    between atoms: C_1  and  N_2
REMARK    2  A    between atoms: N_2  and  C_3
REMARK    3  A    between atoms: N_2  and  S_4
REMARK    4  A    between atoms: S_4  and  C_7
REMARK    5  A    between atoms: C_10  and  N_13
REMARK    6  A    between atoms: N_13  and  C_14
REMARK    7  A    between atoms: C_22  and  C_23
REMARK    8  A    between atoms: N_28  and  C_29
REMARK    9  A    between atoms: C_32  and  N_35
REMARK                            x       y       z     vdW  Elec       q    Type
REMARK                         _______ _______ _______ _____ _____    ______ ____
ROOT
ATOM      1  C   UNL     1       6.384  -2.747  -2.701  0.00  0.00    +0.130 A 
ATOM      2  C   UNL     1       5.804  -3.773  -2.014  0.00  0.00    +0.087 A 
ATOM      3  C   UNL     1       6.565  -4.913  -1.709  0.00  0.00    +0.125 A 
ATOM      4  N   UNL     1       7.830  -4.988  -2.085  0.00  0.00    -0.213 NA
ATOM      5  C   UNL     1       8.408  -3.984  -2.760  0.00  0.00    +0.163 A 
ATOM      6  N   UNL     1       7.697  -2.857  -3.082  0.00  0.00    -0.200 N 
ATOM      7  N   UNL     1       8.553  -2.001  -3.784  0.00  0.00    -0.171 NA
ATOM      8  C   UNL     1       9.729  -2.572  -3.894  0.00  0.00    +0.141 A 
ATOM      9  C   UNL     1       9.690  -3.809  -3.262  0.00  0.00    +0.020 A 
ATOM     10  N   UNL     1       5.988  -5.963  -1.012  0.00  0.00    -0.326 N 
ATOM     11  H   UNL     1       5.060  -5.909  -0.736  0.00  0.00    +0.148 HD
ENDROOT
BRANCH  10  12
ATOM     12  C   UNL     1       6.780  -7.153  -0.693  0.00  0.00    +0.072 C 
ATOM     13  C   UNL     1       6.751  -8.118  -1.880  0.00  0.00    +0.020 C 
ATOM     14  C   UNL     1       7.578  -9.361  -1.547  0.00  0.00    -0.014 C 
ATOM     15  C   UNL     1       6.989 -10.051  -0.315  0.00  0.00    -0.075 C 
ATOM     16  C   UNL     1       7.018  -9.086   0.872  0.00  0.00    -0.014 C 
ATOM     17  C   UNL     1       6.191  -7.842   0.539  0.00  0.00    +0.020 C 
BRANCH  15  18
ATOM     18  N   UNL     1       7.783 -11.244   0.005  0.00  0.00    +0.380 N 
ATOM     19  H   UNL     1       8.736 -10.973   0.195  0.00  0.00    -0.090 HD
ATOM     20  H   UNL     1       7.394 -11.699   0.818  0.00  0.00    -0.090 HD
ATOM     21  H   UNL     1       7.764 -11.881  -0.778  0.00  0.00    -0.090 HD
ENDBRANCH  15  18
ENDBRANCH  10  12
BRANCH   9  22
ATOM     22  C   UNL     1      10.829  -4.790  -3.156  0.00  0.00    +0.024 C 
ATOM     23  C   UNL     1      12.036  -4.126  -2.460  0.00  0.00    +0.008 C 
ATOM     24  C   UNL     1      13.267  -4.705  -3.200  0.00  0.00    +0.001 C 
ATOM     25  C   UNL     1      12.782  -4.772  -4.670  0.00  0.00    +0.001 C 
ATOM     26  C   UNL     1      11.304  -5.200  -4.561  0.00  0.00    +0.008 C 
ENDBRANCH   9  22
BRANCH   1  27
ATOM     27  N   UNL     1       5.658  -1.615  -3.013  0.00  0.00    -0.299 N 
ATOM     28  H   UNL     1       4.845  -1.690  -3.537  0.00  0.00    +0.154 HD
BRANCH  27  32
ATOM     29  C   UNL     1       6.958   2.119  -1.704  0.00  0.00    +0.106 A 
ATOM     30  C   UNL     1       7.601   0.974  -1.271  0.00  0.00    +0.030 A 
ATOM     31  C   UNL     1       7.172  -0.266  -1.703  0.00  0.00    +0.025 A 
ATOM     32  C   UNL     1       6.094  -0.362  -2.573  0.00  0.00    +0.032 A 
ATOM     33  C   UNL     1       5.450   0.790  -3.006  0.00  0.00    +0.025 A 
ATOM     34  C   UNL     1       5.880   2.027  -2.566  0.00  0.00    +0.030 A 
BRANCH  29  35
ATOM     35  S   UNL     1       7.507   3.699  -1.150  0.00  0.00    +0.060 S 
ATOM     36  O   UNL     1       7.080   4.642  -2.124  0.00  0.00    -0.153 OA
ATOM     37  O   UNL     1       8.872   3.548  -0.782  0.00  0.00    -0.153 OA
BRANCH  35  39
ATOM     38  C   UNL     1       7.224   3.643   1.539  0.00  0.00    +0.131 C 
ATOM     39  N   UNL     1       6.678   4.046   0.241  0.00  0.00    -0.183 NA
ATOM     40  C   UNL     1       5.399   4.757   0.173  0.00  0.00    +0.131 C 
ENDBRANCH  35  39
ENDBRANCH  29  35
ENDBRANCH  27  32
ENDBRANCH   1  27
TORSDOF 7
