REMARK  Name = CHEMBL83190
REMARK  6 active torsions:
REMARK  status: ('A' for Active; 'I' for Inactive)
REMARK    1  A    between atoms: C_4  and  C_7
REMARK    2  A    between atoms: C_7  and  N_8
REMARK    3  A    between atoms: N_8  and  S_9
REMARK    4  A    between atoms: S_9  and  C_12
REMARK    5  A    between atoms: C_15  and  N_18
REMARK    6  A    between atoms: C_19  and  C_20
REMARK                            x       y       z     vdW  Elec       q    Type
REMARK                         _______ _______ _______ _____ _____    ______ ____
ROOT
ATOM      1  C   UNL     1       6.827  -1.425   0.900  0.00  0.00    +0.105 A 
ATOM      2  C   UNL     1       7.131  -1.750  -0.411  0.00  0.00    +0.030 A 
ATOM      3  C   UNL     1       8.282  -1.264  -0.996  0.00  0.00    +0.029 A 
ATOM      4  C   UNL     1       9.141  -0.443  -0.262  0.00  0.00    +0.064 A 
ATOM      5  C   UNL     1       8.828  -0.119   1.060  0.00  0.00    +0.029 A 
ATOM      6  C   UNL     1       7.671  -0.608   1.631  0.00  0.00    +0.030 A 
ENDROOT
BRANCH   1   7
ATOM      7  S   UNL     1       5.355  -2.050   1.639  0.00  0.00    +0.059 S 
ATOM      8  O   UNL     1       5.570  -2.042   3.043  0.00  0.00    -0.153 OA
ATOM      9  O   UNL     1       5.013  -3.232   0.927  0.00  0.00    -0.153 OA
BRANCH   7  10
ATOM     10  N   UNL     1       4.152  -0.952   1.338  0.00  0.00    -0.186 NA
ATOM     11  H   UNL     1       3.739  -0.472   2.072  0.00  0.00    +0.148 HD
BRANCH  10  12
ATOM     12  C   UNL     1       3.711  -0.707  -0.038  0.00  0.00    +0.141 C 
BRANCH  12  16
ATOM     13  C   UNL     1      -0.017   1.378   0.010  0.00  0.00    +0.000 A 
ATOM     14  C   UNL     1       1.171   2.086   0.002  0.00  0.00    +0.000 A 
ATOM     15  C   UNL     1       2.377   1.411  -0.013  0.00  0.00    +0.005 A 
ATOM     16  C   UNL     1       2.396   0.029  -0.020  0.00  0.00    -0.032 A 
ATOM     17  C   UNL     1       1.208  -0.679  -0.012  0.00  0.00    +0.005 A 
ATOM     18  C   UNL     1       0.002  -0.004   0.002  0.00  0.00    +0.000 A 
ENDBRANCH  12  16
ENDBRANCH  10  12
ENDBRANCH   7  10
ENDBRANCH   1   7
BRANCH   4  19
ATOM     19  N   UNL     1      10.284   0.043  -0.836  0.00  0.00    -0.255 NA
ATOM     20  C   UNL     1      10.611   1.301  -0.682  0.00  0.00    +0.125 C 
BRANCH  20  21
ATOM     21  C   UNL     1      11.795   1.804  -1.276  0.00  0.00    +0.068 A 
ATOM     22  C   UNL     1      12.308   3.186  -1.195  0.00  0.00    +0.028 A 
ATOM     23  C   UNL     1      13.500   3.199  -1.936  0.00  0.00    +0.051 A 
ATOM     24  C   UNL     1      14.218   4.390  -2.039  0.00  0.00    +0.028 A 
ATOM     25  C   UNL     1      13.791   5.532  -1.441  0.00  0.00    +0.031 A 
ATOM     26  C   UNL     1      12.595   5.560  -0.686  0.00  0.00    +0.079 A 
ATOM     27  C   UNL     1      11.875   4.352  -0.587  0.00  0.00    +0.049 A 
ATOM     28  S   UNL     1      10.491   4.828   0.415  0.00  0.00    -0.075 S 
ATOM     29  C   UNL     1      10.900   6.446   0.628  0.00  0.00    +0.157 A 
ATOM     30  N   UNL     1      12.016   6.585  -0.026  0.00  0.00    -0.247 NA
ATOM     31  N   UNL     1      13.706   1.925  -2.434  0.00  0.00    -0.322 N 
ATOM     32  H   UNL     1      14.461   1.662  -2.982  0.00  0.00    +0.169 HD
ATOM     33  C   UNL     1      12.705   1.094  -2.044  0.00  0.00    +0.258 A 
ATOM     34  O   UNL     1      12.610  -0.219  -2.357  0.00  0.00    -0.267 OA
ENDBRANCH  20  21
ENDBRANCH   4  19
TORSDOF 6
