REMARK  Name = CHEMBL445945
REMARK  4 active torsions:
REMARK  status: ('A' for Active; 'I' for Inactive)
REMARK    1  A    between atoms: C_10  and  N_11
REMARK    2  A    between atoms: N_11  and  C_12
REMARK    3  A    between atoms: C_15  and  S_18
REMARK    4  A    between atoms: S_18  and  N_21
REMARK                            x       y       z     vdW  Elec       q    Type
REMARK                         _______ _______ _______ _____ _____    ______ ____
ROOT
ATOM      1  C   UNL     1      -0.016   1.387   0.073  0.00  0.00    +0.020 A 
ATOM      2  C   UNL     1       1.160   2.085   0.046  0.00  0.00    +0.012 A 
ATOM      3  C   UNL     1       2.362   1.360   0.023  0.00  0.00    +0.010 A 
ATOM      4  C   UNL     1       2.311  -0.056   0.029  0.00  0.00    +0.072 A 
ATOM      5  C   UNL     1       3.514  -0.785   0.006  0.00  0.00    +0.030 A 
ATOM      6  C   UNL     1       4.711  -0.143  -0.021  0.00  0.00    +0.026 A 
ATOM      7  C   UNL     1       4.787   1.256  -0.027  0.00  0.00    +0.042 A 
ATOM      8  C   UNL     1       3.615   2.008  -0.005  0.00  0.00    +0.019 A 
ATOM      9  C   UNL     1       4.024   3.428  -0.019  0.00  0.00    +0.060 C 
ATOM     10  C   UNL     1       3.206   4.536  -0.004  0.00  0.00    +0.085 C 
ATOM     11  C   UNL     1       5.492   3.402  -0.050  0.00  0.00    +0.250 C 
ATOM     12  O   UNL     1       6.227   4.373  -0.069  0.00  0.00    -0.270 OA
ATOM     13  N   UNL     1       5.880   2.115  -0.052  0.00  0.00    -0.281 N 
ATOM     14  N   UNL     1       1.129  -0.678   0.055  0.00  0.00    -0.255 NA
ATOM     15  C   UNL     1       0.003  -0.004   0.077  0.00  0.00    +0.111 A 
ATOM     16  H   UNL     1       6.804   1.823  -0.070  0.00  0.00    +0.155 HD
ENDROOT
BRANCH  10  17
ATOM     17  N   UNL     1       3.748   5.779   0.100  0.00  0.00    -0.320 N 
ATOM     18  H   UNL     1       4.710   5.886   0.164  0.00  0.00    +0.152 HD
BRANCH  17  19
ATOM     19  C   UNL     1       2.917   6.904   0.115  0.00  0.00    +0.031 A 
ATOM     20  C   UNL     1       1.539   6.752   0.030  0.00  0.00    +0.025 A 
ATOM     21  C   UNL     1       0.722   7.865   0.045  0.00  0.00    +0.030 A 
ATOM     22  C   UNL     1       1.274   9.129   0.145  0.00  0.00    +0.105 A 
ATOM     23  C   UNL     1       2.646   9.284   0.230  0.00  0.00    +0.030 A 
ATOM     24  C   UNL     1       3.468   8.174   0.221  0.00  0.00    +0.025 A 
BRANCH  22  25
ATOM     25  S   UNL     1       0.227  10.547   0.163  0.00  0.00    +0.056 S 
ATOM     26  O   UNL     1       1.016  11.640  -0.286  0.00  0.00    -0.153 OA
ATOM     27  O   UNL     1      -0.982  10.167  -0.479  0.00  0.00    -0.153 OA
BRANCH  25  28
ATOM     28  N   UNL     1      -0.152  10.855   1.745  0.00  0.00    -0.204 NA
ATOM     29  H   UNL     1       0.199  10.286   2.448  0.00  0.00    +0.144 HD
ATOM     30  H   UNL     1      -0.726  11.604   1.969  0.00  0.00    +0.144 HD
ENDBRANCH  25  28
ENDBRANCH  22  25
ENDBRANCH  17  19
ENDBRANCH  10  17
TORSDOF 4
