REMARK  Name = CHEMBL122264
REMARK  4 active torsions:
REMARK  status: ('A' for Active; 'I' for Inactive)
REMARK    1  A    between atoms: C_4  and  N_7
REMARK    2  A    between atoms: C_12  and  O_14
REMARK    3  A    between atoms: O_14  and  C_15
REMARK    4  A    between atoms: C_15  and  C_16
REMARK                            x       y       z     vdW  Elec       q    Type
REMARK                         _______ _______ _______ _____ _____    ______ ____
ROOT
ATOM      1  N   UNL     1       3.621  -0.650  -0.036  0.00  0.00    -0.283 N 
ATOM      2  C   UNL     1       3.644  -2.033   0.060  0.00  0.00    +0.225 A 
ATOM      3  N   UNL     1       4.813  -2.647   0.149  0.00  0.00    -0.195 NA
ATOM      4  C   UNL     1       4.874  -3.970   0.244  0.00  0.00    +0.167 A 
ATOM      5  C   UNL     1       3.680  -4.712   0.249  0.00  0.00    +0.169 A 
ATOM      6  C   UNL     1       2.465  -4.018   0.152  0.00  0.00    +0.248 A 
ATOM      7  N   UNL     1       2.494  -2.695   0.066  0.00  0.00    -0.177 NA
ATOM      8  N   UNL     1       4.024  -6.020   0.354  0.00  0.00    -0.229 NA
ATOM      9  C   UNL     1       5.319  -6.125   0.412  0.00  0.00    +0.199 A 
ATOM     10  N   UNL     1       5.890  -4.887   0.348  0.00  0.00    -0.329 N 
ATOM     11  H   UNL     1       6.840  -4.691   0.372  0.00  0.00    +0.168 HD
ATOM     12  H   UNL     1       4.451  -0.155  -0.123  0.00  0.00    +0.155 HD
ENDROOT
BRANCH   1  16
ATOM     13  C   UNL     1      -0.014   1.382   0.045  0.00  0.00    +0.000 A 
ATOM     14  C   UNL     1       0.148   0.228   0.790  0.00  0.00    +0.002 A 
ATOM     15  C   UNL     1       1.352  -0.449   0.765  0.00  0.00    +0.023 A 
ATOM     16  C   UNL     1       2.400   0.032  -0.009  0.00  0.00    +0.034 A 
ATOM     17  C   UNL     1       2.234   1.191  -0.756  0.00  0.00    +0.023 A 
ATOM     18  C   UNL     1       1.027   1.863  -0.727  0.00  0.00    +0.002 A 
ENDBRANCH   1  16
BRANCH   6  19
ATOM     19  O   UNL     1       1.286  -4.685   0.151  0.00  0.00    -0.475 OA
BRANCH  19  20
ATOM     20  C   UNL     1       0.096  -3.899   0.049  0.00  0.00    +0.234 C 
BRANCH  20  21
ATOM     21  C   UNL     1      -1.126  -4.820   0.065  0.00  0.00    +0.027 C 
ATOM     22  C   UNL     1      -1.115  -5.703  -1.185  0.00  0.00    +0.007 C 
ATOM     23  C   UNL     1      -2.337  -6.623  -1.169  0.00  0.00    +0.000 C 
ATOM     24  C   UNL     1      -3.612  -5.778  -1.153  0.00  0.00    +0.000 C 
ATOM     25  C   UNL     1      -3.623  -4.895   0.097  0.00  0.00    +0.000 C 
ATOM     26  C   UNL     1      -2.401  -3.974   0.081  0.00  0.00    +0.007 C 
ENDBRANCH  20  21
ENDBRANCH  19  20
ENDBRANCH   6  19
TORSDOF 4
