REMARK  Name = CHEMBL490481
REMARK  5 active torsions:
REMARK  status: ('A' for Active; 'I' for Inactive)
REMARK    1  A    between atoms: C_3  and  C_6
REMARK    2  A    between atoms: C_6  and  C_7
REMARK    3  A    between atoms: C_10  and  C_13
REMARK    4  A    between atoms: C_13  and  C_14
REMARK    5  A    between atoms: C_19  and  C_23
REMARK                            x       y       z     vdW  Elec       q    Type
REMARK                         _______ _______ _______ _____ _____    ______ ____
ROOT
ATOM      1  C   UNL     1       5.627   2.469   5.409  0.00  0.00    +0.131 C 
ENDROOT
BRANCH   1   2
ATOM      2  C   UNL     1       4.536   2.063   6.366  0.00  0.00    +0.223 C 
ATOM      3  O   UNL     1       3.467   1.679   5.939  0.00  0.00    -0.275 OA
ATOM      4  N   UNL     1       4.747   2.127   7.695  0.00  0.00    -0.269 N 
ATOM      5  C   UNL     1       3.732   1.749   8.585  0.00  0.00    +0.147 A 
ATOM      6  C   UNL     1       2.456   1.282   8.230  0.00  0.00    +0.068 A 
ATOM      7  C   UNL     1       1.776   1.026   9.371  0.00  0.00    +0.041 A 
ATOM      8  N   UNL     1       2.587   1.317  10.410  0.00  0.00    -0.280 N 
ATOM      9  H   UNL     1       2.362   1.229  11.350  0.00  0.00    +0.189 HD
ATOM     10  N   UNL     1       3.810   1.764   9.895  0.00  0.00    -0.158 NA
ATOM     11  H   UNL     1       5.601   2.434   8.036  0.00  0.00    +0.156 HD
BRANCH   7  12
ATOM     12  C   UNL     1       0.364   0.508   9.465  0.00  0.00    +0.037 C 
ATOM     13  C   UNL     1      -0.488   0.988  10.642  0.00  0.00    +0.010 C 
ATOM     14  C   UNL     1       0.038  -0.448  10.614  0.00  0.00    +0.010 C 
ENDBRANCH   7  12
ENDBRANCH   1   2
BRANCH   1  18
ATOM     15  C   UNL     1       4.247   2.008   1.393  0.00  0.00    -0.043 A 
ATOM     16  C   UNL     1       4.061   3.208   2.054  0.00  0.00    +0.004 A 
ATOM     17  C   UNL     1       4.507   3.357   3.354  0.00  0.00    +0.004 A 
ATOM     18  C   UNL     1       5.139   2.306   3.992  0.00  0.00    -0.039 A 
ATOM     19  C   UNL     1       5.325   1.107   3.331  0.00  0.00    +0.004 A 
ATOM     20  C   UNL     1       4.875   0.956   2.033  0.00  0.00    +0.004 A 
BRANCH  15  21
ATOM     21  C   UNL     1       3.761   1.845  -0.024  0.00  0.00    +0.077 C 
BRANCH  21  24
ATOM     22  C   UNL     1      -0.016   1.351   0.009  0.00  0.00    +0.008 A 
ATOM     23  C   UNL     1       1.183   2.038   0.002  0.00  0.00    +0.011 A 
ATOM     24  C   UNL     1       2.343   1.336  -0.013  0.00  0.00    -0.006 A 
ATOM     25  S   UNL     1       1.754  -0.349  -0.017  0.00  0.00    -0.101 S 
ATOM     26  C   UNL     1       0.002  -0.004   0.002  0.00  0.00    +0.045 A 
ENDBRANCH  21  24
ENDBRANCH  15  21
ENDBRANCH   1  18
TORSDOF 5
