REMARK  Name = CHEMBL1094400
REMARK  3 active torsions:
REMARK  status: ('A' for Active; 'I' for Inactive)
REMARK    1  A    between atoms: C_4  and  N_7
REMARK    2  A    between atoms: C_16  and  C_25
REMARK    3  A    between atoms: N_18  and  C_19
REMARK                            x       y       z     vdW  Elec       q    Type
REMARK                         _______ _______ _______ _____ _____    ______ ____
ROOT
ATOM      1  N   UNL     1       3.583  -0.669   0.147  0.00  0.00    -0.284 N 
ATOM      2  C   UNL     1       3.619  -2.052   0.226  0.00  0.00    +0.220 A 
ATOM      3  N   UNL     1       2.479  -2.727   0.261  0.00  0.00    -0.222 NA
ATOM      4  C   UNL     1       2.462  -4.049   0.353  0.00  0.00    +0.120 A 
ATOM      5  C   UNL     1       3.661  -4.735   0.404  0.00  0.00    -0.001 A 
ATOM      6  C   UNL     1       4.847  -3.989   0.336  0.00  0.00    +0.098 A 
ATOM      7  N   UNL     1       4.793  -2.668   0.260  0.00  0.00    -0.212 NA
ATOM      8  C   UNL     1       6.114  -4.739   0.304  0.00  0.00    +0.097 A 
ATOM      9  C   UNL     1       6.112  -6.096   0.061  0.00  0.00    +0.013 A 
ATOM     10  C   UNL     1       7.450  -6.489   0.110  0.00  0.00    +0.151 A 
ATOM     11  N   UNL     1       8.169  -5.401   0.345  0.00  0.00    -0.161 NA
ATOM     12  N   UNL     1       7.404  -4.366   0.448  0.00  0.00    -0.230 N 
ATOM     13  C   UNL     1       4.853  -6.868  -0.205  0.00  0.00    +0.044 C 
ATOM     14  C   UNL     1       3.686  -6.228   0.549  0.00  0.00    +0.043 C 
ATOM     15  H   UNL     1       4.406  -0.159   0.201  0.00  0.00    +0.155 HD
ENDROOT
BRANCH   1  19
ATOM     16  C   UNL     1      -0.059   1.297  -0.318  0.00  0.00    +0.000 A 
ATOM     17  C   UNL     1       0.929   1.854   0.473  0.00  0.00    +0.002 A 
ATOM     18  C   UNL     1       2.138   1.204   0.630  0.00  0.00    +0.023 A 
ATOM     19  C   UNL     1       2.360  -0.009  -0.008  0.00  0.00    +0.034 A 
ATOM     20  C   UNL     1       1.365  -0.566  -0.802  0.00  0.00    +0.023 A 
ATOM     21  C   UNL     1       0.159   0.089  -0.955  0.00  0.00    +0.002 A 
ENDBRANCH   1  19
BRANCH  12  22
ATOM     22  C   UNL     1       7.845  -3.057   0.673  0.00  0.00    +0.066 A 
ATOM     23  C   UNL     1       7.176  -2.244   1.580  0.00  0.00    +0.028 A 
ATOM     24  C   UNL     1       7.614  -0.953   1.801  0.00  0.00    +0.002 A 
ATOM     25  C   UNL     1       8.716  -0.469   1.120  0.00  0.00    +0.000 A 
ATOM     26  C   UNL     1       9.384  -1.276   0.216  0.00  0.00    +0.002 A 
ATOM     27  C   UNL     1       8.954  -2.569  -0.005  0.00  0.00    +0.028 A 
ENDBRANCH  12  22
BRANCH  10  28
ATOM     28  C   UNL     1       7.967  -7.862  -0.065  0.00  0.00    +0.262 C 
ATOM     29  O   UNL     1       7.198  -8.779  -0.276  0.00  0.00    -0.269 OA
ATOM     30  N   UNL     1       9.292  -8.097   0.009  0.00  0.00    -0.324 N 
ATOM     31  H   UNL     1       9.906  -7.365   0.177  0.00  0.00    +0.145 HD
ATOM     32  H   UNL     1       9.632  -8.998  -0.106  0.00  0.00    +0.145 HD
ENDBRANCH  10  28
TORSDOF 3
