REMARK  Name = CHEMBL150261
REMARK  5 active torsions:
REMARK  status: ('A' for Active; 'I' for Inactive)
REMARK    1  A    between atoms: C_4  and  C_7
REMARK    2  A    between atoms: C_7  and  N_8
REMARK    3  A    between atoms: N_15  and  C_16
REMARK    4  A    between atoms: C_19  and  N_22
REMARK    5  A    between atoms: N_23  and  C_26
REMARK                            x       y       z     vdW  Elec       q    Type
REMARK                         _______ _______ _______ _____ _____    ______ ____
ROOT
ATOM      1  N   UNL     1       4.152  -0.952   1.338  0.00  0.00    -0.323 N 
ATOM      2  C   UNL     1       5.342  -1.618   1.575  0.00  0.00    +0.152 A 
ATOM      3  C   UNL     1       5.776  -1.866   2.889  0.00  0.00    +0.148 A 
ATOM      4  C   UNL     1       6.991  -2.546   3.071  0.00  0.00    +0.167 A 
ATOM      5  N   UNL     1       7.686  -2.928   2.004  0.00  0.00    -0.195 NA
ATOM      6  C   UNL     1       7.241  -2.674   0.784  0.00  0.00    +0.219 A 
ATOM      7  N   UNL     1       6.095  -2.040   0.566  0.00  0.00    -0.197 NA
ATOM      8  N   UNL     1       7.993  -3.088  -0.302  0.00  0.00    -0.311 N 
ATOM      9  N   UNL     1       7.167  -2.650   4.428  0.00  0.00    -0.312 N 
ATOM     10  C   UNL     1       6.096  -2.054   5.026  0.00  0.00    +0.202 A 
ATOM     11  N   UNL     1       5.281  -1.595   4.122  0.00  0.00    -0.231 NA
ATOM     12  H   UNL     1       3.610  -0.648   2.082  0.00  0.00    +0.148 HD
ATOM     13  H   UNL     1       8.831  -3.556  -0.162  0.00  0.00    +0.149 HD
ENDROOT
BRANCH   8  14
ATOM     14  C   UNL     1       7.524  -2.819  -1.664  0.00  0.00    +0.073 C 
ATOM     15  C   UNL     1       6.558  -3.924  -2.098  0.00  0.00    +0.021 C 
ATOM     16  C   UNL     1       6.067  -3.643  -3.519  0.00  0.00    -0.014 C 
ATOM     17  C   UNL     1       7.263  -3.607  -4.473  0.00  0.00    -0.075 C 
ATOM     18  C   UNL     1       8.229  -2.503  -4.040  0.00  0.00    -0.014 C 
ATOM     19  C   UNL     1       8.719  -2.784  -2.618  0.00  0.00    +0.021 C 
BRANCH  17  20
ATOM     20  N   UNL     1       6.792  -3.337  -5.839  0.00  0.00    +0.380 N 
ATOM     21  H   UNL     1       6.317  -2.447  -5.861  0.00  0.00    -0.090 HD
ATOM     22  H   UNL     1       7.580  -3.314  -6.468  0.00  0.00    -0.090 HD
ATOM     23  H   UNL     1       6.155  -4.066  -6.125  0.00  0.00    -0.090 HD
ENDBRANCH  17  20
ENDBRANCH   8  14
BRANCH   9  24
ATOM     24  C   UNL     1       8.299  -3.285   5.109  0.00  0.00    +0.090 C 
ATOM     25  C   UNL     1       8.980  -2.275   6.055  0.00  0.00    +0.025 C 
ATOM     26  C   UNL     1       8.339  -2.557   7.436  0.00  0.00    +0.002 C 
ATOM     27  C   UNL     1       8.197  -4.099   7.439  0.00  0.00    +0.002 C 
ATOM     28  C   UNL     1       7.801  -4.444   5.989  0.00  0.00    +0.025 C 
ENDBRANCH   9  24
BRANCH   1  29
ATOM     29  C   UNL     1       3.711  -0.707  -0.038  0.00  0.00    +0.138 C 
BRANCH  29  33
ATOM     30  C   UNL     1      -0.017   1.378   0.010  0.00  0.00    +0.000 A 
ATOM     31  C   UNL     1       1.171   2.086   0.002  0.00  0.00    +0.000 A 
ATOM     32  C   UNL     1       2.377   1.411  -0.013  0.00  0.00    +0.005 A 
ATOM     33  C   UNL     1       2.396   0.029  -0.020  0.00  0.00    -0.030 A 
ATOM     34  C   UNL     1       1.208  -0.679  -0.012  0.00  0.00    +0.005 A 
ATOM     35  C   UNL     1       0.002  -0.004   0.002  0.00  0.00    +0.000 A 
ENDBRANCH  29  33
ENDBRANCH   1  29
TORSDOF 5
