REMARK  Name = CHEMBL1077107
REMARK  9 active torsions:
REMARK  status: ('A' for Active; 'I' for Inactive)
REMARK    1  A    between atoms: C_1  and  C_2
REMARK    2  A    between atoms: C_3  and  C_30
REMARK    3  A    between atoms: C_4  and  C_22
REMARK    4  A    between atoms: N_8  and  N_9
REMARK    5  A    between atoms: C_13  and  C_14
REMARK    6  A    between atoms: C_25  and  O_29
REMARK    7  A    between atoms: C_27  and  O_28
REMARK    8  A    between atoms: N_32  and  C_33
REMARK    9  A    between atoms: C_37  and  N_39
REMARK                            x       y       z     vdW  Elec       q    Type
REMARK                         _______ _______ _______ _____ _____    ______ ____
ROOT
ATOM      1  C   UNL     1       0.458   0.982  -1.330  0.00  0.00    +0.061 C 
ATOM      2  C   UNL     1       0.413  -0.523  -1.383  0.00  0.00    +0.018 C 
ATOM      3  C   UNL     1      -0.709  -1.132  -1.800  0.00  0.00    +0.058 C 
ATOM      4  C   UNL     1      -0.831  -2.633  -1.842  0.00  0.00    +0.167 C 
ATOM      5  N   UNL     1       0.510  -3.227  -1.727  0.00  0.00    -0.205 NA
ATOM      6  C   UNL     1       1.386  -2.609  -0.849  0.00  0.00    +0.221 C 
ATOM      7  N   UNL     1       1.521  -1.240  -1.008  0.00  0.00    -0.288 N 
ATOM      8  N   UNL     1       2.049  -3.280   0.071  0.00  0.00    -0.138 NA
ATOM      9  H   UNL     1       2.372  -0.801  -0.856  0.00  0.00    +0.155 HD
ENDROOT
BRANCH   8  10
ATOM     10  N   UNL     1       2.985  -2.623   0.880  0.00  0.00    -0.139 N 
ATOM     11  C   UNL     1       2.599  -1.696   1.744  0.00  0.00    +0.278 C 
ATOM     12  O   UNL     1       1.428  -1.384   1.868  0.00  0.00    -0.267 OA
ATOM     13  C   UNL     1       3.662  -1.063   2.549  0.00  0.00    +0.082 C 
ATOM     14  C   UNL     1       3.546  -0.062   3.532  0.00  0.00    +0.066 C 
ATOM     15  S   UNL     1       5.048  -1.840   1.996  0.00  0.00    -0.059 S 
ATOM     16  C   UNL     1       4.297  -2.924   0.797  0.00  0.00    +0.142 C 
ATOM     17  S   UNL     1       5.060  -4.073  -0.218  0.00  0.00    -0.025 S 
BRANCH  14  18
ATOM     18  C   UNL     1       2.292   0.340   3.968  0.00  0.00    +0.129 A 
ATOM     19  C   UNL     1       2.018   1.417   4.840  0.00  0.00    +0.049 A 
ATOM     20  C   UNL     1       0.643   1.454   5.000  0.00  0.00    +0.042 A 
ATOM     21  C   UNL     1       0.115   0.425   4.242  0.00  0.00    +0.195 A 
ATOM     22  O   UNL     1       1.111  -0.225   3.630  0.00  0.00    -0.463 OA
ENDBRANCH  14  18
ENDBRANCH   8  10
BRANCH   4  23
ATOM     23  C   UNL     1      -1.458  -3.051  -3.147  0.00  0.00    +0.021 A 
ATOM     24  C   UNL     1      -0.659  -3.325  -4.240  0.00  0.00    +0.013 A 
ATOM     25  C   UNL     1      -1.231  -3.709  -5.438  0.00  0.00    +0.046 A 
ATOM     26  C   UNL     1      -2.610  -3.820  -5.545  0.00  0.00    +0.120 A 
ATOM     27  C   UNL     1      -3.414  -3.546  -4.450  0.00  0.00    +0.091 A 
ATOM     28  C   UNL     1      -2.837  -3.166  -3.248  0.00  0.00    +0.126 A 
BRANCH  28  29
ATOM     29  O   UNL     1      -3.622  -2.902  -2.170  0.00  0.00    -0.506 OA
ATOM     30  H   UNL     1      -3.958  -1.996  -2.140  0.00  0.00    +0.292 HD
ENDBRANCH  28  29
BRANCH  26  31
ATOM     31  O   UNL     1      -3.172  -4.197  -6.724  0.00  0.00    -0.507 OA
ATOM     32  H   UNL     1      -3.285  -5.153  -6.817  0.00  0.00    +0.292 HD
ENDBRANCH  26  31
ENDBRANCH   4  23
BRANCH   3  33
ATOM     33  C   UNL     1      -1.809  -0.340  -2.212  0.00  0.00    +0.248 C 
ATOM     34  O   UNL     1      -2.041  -0.189  -3.397  0.00  0.00    -0.270 OA
ATOM     35  N   UNL     1      -2.600   0.246  -1.291  0.00  0.00    -0.282 N 
ATOM     36  H   UNL     1      -2.376   0.184  -0.349  0.00  0.00    +0.155 HD
BRANCH  35  37
ATOM     37  C   UNL     1      -3.744   0.943  -1.693  0.00  0.00    +0.036 A 
ATOM     38  C   UNL     1      -4.462   0.519  -2.804  0.00  0.00    +0.023 A 
ATOM     39  C   UNL     1      -5.591   1.210  -3.198  0.00  0.00    +0.004 A 
ATOM     40  C   UNL     1      -6.007   2.321  -2.488  0.00  0.00    +0.033 A 
ATOM     41  C   UNL     1      -5.294   2.745  -1.382  0.00  0.00    +0.128 A 
ATOM     42  C   UNL     1      -4.167   2.056  -0.979  0.00  0.00    +0.056 A 
BRANCH  41  43
ATOM     43  N   UNL     1      -5.743   3.936  -0.625  0.00  0.00    +0.056 N 
ATOM     44  O   UNL     1      -6.821   4.590  -1.005  0.00  0.00    -0.126 OA
ATOM     45  O   UNL     1      -5.064   4.340   0.429  0.00  0.00    -0.126 OA
ENDBRANCH  41  43
ENDBRANCH  35  37
ENDBRANCH   3  33
TORSDOF 8
