REMARK  Name = CHEMBL78959
REMARK  7 active torsions:
REMARK  status: ('A' for Active; 'I' for Inactive)
REMARK    1  A    between atoms: C_1  and  C_2
REMARK    2  A    between atoms: C_2  and  C_3
REMARK    3  A    between atoms: C_3  and  C_4
REMARK    4  A    between atoms: C_4  and  O_5
REMARK    5  A    between atoms: O_5  and  C_6
REMARK    6  A    between atoms: C_7  and  C_15
REMARK    7  A    between atoms: C_15  and  C_17
REMARK                            x       y       z     vdW  Elec       q    Type
REMARK                         _______ _______ _______ _____ _____    ______ ____
ROOT
ATOM      1  C   UNL     1      -2.912  -3.900   0.009  0.00  0.00    +0.145 A 
ATOM      2  C   UNL     1      -3.003  -4.614  -1.193  0.00  0.00    +0.085 A 
ATOM      3  C   UNL     1      -3.168  -6.011  -1.171  0.00  0.00    +0.128 A 
ATOM      4  N   UNL     1      -3.242  -6.690  -0.059  0.00  0.00    -0.233 NA
ATOM      5  C   UNL     1      -3.165  -6.091   1.144  0.00  0.00    +0.185 A 
ATOM      6  N   UNL     1      -3.210  -6.525   2.388  0.00  0.00    -0.154 NA
ATOM      7  N   UNL     1      -3.077  -5.438   3.259  0.00  0.00    -0.282 N 
ATOM      8  C   UNL     1      -2.946  -4.305   2.558  0.00  0.00    +0.118 A 
ATOM      9  C   UNL     1      -2.986  -4.633   1.216  0.00  0.00    +0.081 A 
ATOM     10  H   UNL     1      -3.079  -5.497   4.227  0.00  0.00    +0.188 HD
ENDROOT
BRANCH   2  11
ATOM     11  C   UNL     1      -2.926  -3.903  -2.478  0.00  0.00    +0.223 C 
ATOM     12  O   UNL     1      -2.784  -2.694  -2.497  0.00  0.00    -0.284 OA
BRANCH  11  13
ATOM     13  C   UNL     1      -3.022  -4.653  -3.741  0.00  0.00    +0.148 A 
ATOM     14  N   UNL     1      -3.182  -5.957  -3.935  0.00  0.00    -0.244 NA
ATOM     15  C   UNL     1      -3.240  -6.402  -5.163  0.00  0.00    +0.119 A 
ATOM     16  C   UNL     1      -3.136  -5.531  -6.203  0.00  0.00    +0.067 A 
ATOM     17  S   UNL     1      -2.960  -4.051  -5.420  0.00  0.00    -0.072 S 
ENDBRANCH  11  13
ENDBRANCH   2  11
BRANCH   1  18
ATOM     18  O   UNL     1      -2.753  -2.558   0.015  0.00  0.00    -0.490 OA
BRANCH  18  19
ATOM     19  C   UNL     1      -1.413  -2.063   0.004  0.00  0.00    +0.229 C 
BRANCH  19  20
ATOM     20  C   UNL     1      -1.433  -0.534   0.013  0.00  0.00    +0.041 C 
BRANCH  20  22
ATOM     21  C   UNL     1      -0.019   1.526   0.010  0.00  0.00    +0.004 C 
ATOM     22  C   UNL     1       0.002  -0.004   0.002  0.00  0.00    -0.000 C 
ENDBRANCH  20  22
ENDBRANCH  19  20
ENDBRANCH  18  19
ENDBRANCH   1  18
TORSDOF 6
