REMARK  Name = CHEMBL192440
REMARK  6 active torsions:
REMARK  status: ('A' for Active; 'I' for Inactive)
REMARK    1  A    between atoms: C_1  and  C_2
REMARK    2  A    between atoms: C_2  and  C_3
REMARK    3  A    between atoms: C_2  and  C_21
REMARK    4  A    between atoms: C_6  and  N_9
REMARK    5  A    between atoms: C_10  and  C_15
REMARK    6  A    between atoms: C_26  and  C_30
REMARK                            x       y       z     vdW  Elec       q    Type
REMARK                         _______ _______ _______ _____ _____    ______ ____
ROOT
ATOM      1  C   UNL     1       0.731  -0.503   1.223  0.00  0.00    -0.036 A 
ATOM      2  C   UNL     1       2.102  -0.351   1.318  0.00  0.00    +0.006 A 
ATOM      3  C   UNL     1       2.773  -0.808   2.436  0.00  0.00    +0.024 A 
ATOM      4  C   UNL     1       2.069  -1.419   3.465  0.00  0.00    +0.037 A 
ATOM      5  C   UNL     1       0.692  -1.570   3.366  0.00  0.00    +0.024 A 
ATOM      6  C   UNL     1       0.026  -1.107   2.248  0.00  0.00    +0.006 A 
ENDROOT
BRANCH   4   7
ATOM      7  N   UNL     1       2.746  -1.883   4.598  0.00  0.00    -0.264 N 
ATOM      8  C   UNL     1       4.170  -1.649   4.866  0.00  0.00    +0.112 C 
ATOM      9  C   UNL     1       4.360  -1.942   6.371  0.00  0.00    +0.037 C 
ATOM     10  C   UNL     1       3.197  -2.922   6.650  0.00  0.00    +0.098 C 
ATOM     11  C   UNL     1       2.174  -2.596   5.584  0.00  0.00    +0.220 C 
ATOM     12  O   UNL     1       1.009  -2.931   5.614  0.00  0.00    -0.275 OA
BRANCH   8  13
ATOM     13  C   UNL     1       4.529  -0.217   4.564  0.00  0.00    -0.027 A 
ATOM     14  C   UNL     1       3.659   0.801   4.910  0.00  0.00    +0.005 A 
ATOM     15  C   UNL     1       3.988   2.115   4.633  0.00  0.00    +0.000 A 
ATOM     16  C   UNL     1       5.187   2.411   4.011  0.00  0.00    +0.000 A 
ATOM     17  C   UNL     1       6.056   1.393   3.666  0.00  0.00    +0.000 A 
ATOM     18  C   UNL     1       5.729   0.080   3.947  0.00  0.00    +0.005 A 
ENDBRANCH   8  13
ENDBRANCH   4   7
BRANCH   1  20
ATOM     19  C   UNL     1       0.224   1.502  -0.144  0.00  0.00    +0.022 C 
ATOM     20  C   UNL     1       0.002  -0.004   0.002  0.00  0.00    +0.102 C 
BRANCH  20  21
ATOM     21  C   UNL     1       0.528  -0.711  -1.221  0.00  0.00    +0.225 C 
ATOM     22  O   UNL     1       1.408  -1.538  -1.112  0.00  0.00    -0.275 OA
ATOM     23  N   UNL     1       0.020  -0.423  -2.436  0.00  0.00    -0.268 N 
ATOM     24  C   UNL     1       0.509  -1.080  -3.573  0.00  0.00    +0.147 A 
ATOM     25  C   UNL     1       1.517  -2.058  -3.591  0.00  0.00    +0.068 A 
ATOM     26  C   UNL     1       1.699  -2.441  -4.875  0.00  0.00    +0.041 A 
ATOM     27  N   UNL     1       0.843  -1.736  -5.644  0.00  0.00    -0.280 N 
ATOM     28  H   UNL     1       0.753  -1.804  -6.607  0.00  0.00    +0.189 HD
ATOM     29  N   UNL     1       0.102  -0.892  -4.806  0.00  0.00    -0.158 NA
ATOM     30  H   UNL     1      -0.684   0.239  -2.523  0.00  0.00    +0.156 HD
BRANCH  26  31
ATOM     31  C   UNL     1       2.684  -3.473  -5.361  0.00  0.00    +0.037 C 
ATOM     32  C   UNL     1       3.316  -3.253  -6.738  0.00  0.00    +0.010 C 
ATOM     33  C   UNL     1       2.265  -4.348  -6.544  0.00  0.00    +0.010 C 
ENDBRANCH  26  31
ENDBRANCH  20  21
ENDBRANCH   1  20
TORSDOF 5
