REMARK  Name = CHEMBL27275
REMARK  7 active torsions:
REMARK  status: ('A' for Active; 'I' for Inactive)
REMARK    1  A    between atoms: C_1  and  O_2
REMARK    2  A    between atoms: O_2  and  C_3
REMARK    3  A    between atoms: C_6  and  C_9
REMARK    4  A    between atoms: C_19  and  N_23
REMARK    5  A    between atoms: C_24  and  C_26
REMARK    6  A    between atoms: C_26  and  C_27
REMARK    7  A    between atoms: C_30  and  N_33
REMARK                            x       y       z     vdW  Elec       q    Type
REMARK                         _______ _______ _______ _____ _____    ______ ____
ROOT
ATOM      1  C   UNL     1       2.500  -2.486  -4.380  0.00  0.00    +0.077 A 
ATOM      2  C   UNL     1       2.002  -3.561  -5.105  0.00  0.00    +0.075 A 
ATOM      3  C   UNL     1       2.989  -3.854  -6.148  0.00  0.00    +0.105 A 
ATOM      4  N   UNL     1       3.970  -2.997  -6.009  0.00  0.00    -0.173 NA
ATOM      5  N   UNL     1       3.696  -2.143  -4.937  0.00  0.00    -0.276 N 
ATOM      6  H   UNL     1       4.267  -1.419  -4.636  0.00  0.00    +0.189 HD
ATOM      7  C   UNL     1       2.477  -5.003  -6.937  0.00  0.00    +0.015 A 
ATOM      8  C   UNL     1       3.005  -5.681  -8.028  0.00  0.00    +0.011 A 
ATOM      9  C   UNL     1       2.314  -6.741  -8.592  0.00  0.00    +0.002 A 
ATOM     10  C   UNL     1       1.096  -7.136  -8.079  0.00  0.00    +0.024 A 
ATOM     11  C   UNL     1       0.548  -6.472  -6.986  0.00  0.00    +0.045 A 
ATOM     12  C   UNL     1       1.236  -5.398  -6.407  0.00  0.00    +0.053 A 
ATOM     13  C   UNL     1       0.904  -4.524  -5.264  0.00  0.00    +0.200 C 
ATOM     14  O   UNL     1      -0.097  -4.590  -4.577  0.00  0.00    -0.286 OA
ENDROOT
BRANCH   1  18
ATOM     15  C   UNL     1       0.635  -0.609  -1.059  0.00  0.00    +0.120 A 
ATOM     16  C   UNL     1       1.193   0.165  -2.070  0.00  0.00    +0.046 A 
ATOM     17  C   UNL     1       1.799  -0.440  -3.149  0.00  0.00    +0.013 A 
ATOM     18  C   UNL     1       1.853  -1.834  -3.226  0.00  0.00    +0.001 A 
ATOM     19  C   UNL     1       1.291  -2.609  -2.208  0.00  0.00    +0.013 A 
ATOM     20  C   UNL     1       0.691  -1.996  -1.130  0.00  0.00    +0.046 A 
BRANCH  15  22
ATOM     21  C   UNL     1       0.017   1.420   0.012  0.00  0.00    +0.277 C 
ATOM     22  O   UNL     1       0.039  -0.009   0.003  0.00  0.00    -0.495 OA
ENDBRANCH  15  22
ENDBRANCH   1  18
BRANCH  11  23
ATOM     23  N   UNL     1      -0.682  -6.872  -6.471  0.00  0.00    -0.285 N 
ATOM     24  C   UNL     1      -1.109  -8.138  -6.652  0.00  0.00    +0.222 C 
ATOM     25  O   UNL     1      -0.380  -8.954  -7.175  0.00  0.00    -0.275 OA
ATOM     26  H   UNL     1      -1.232  -6.240  -5.982  0.00  0.00    +0.155 HD
BRANCH  24  27
ATOM     27  C   UNL     1      -2.490  -8.539  -6.204  0.00  0.00    +0.131 C 
BRANCH  27  28
ATOM     28  C   UNL     1      -2.718  -9.995  -6.519  0.00  0.00    -0.039 A 
ATOM     29  C   UNL     1      -3.252 -10.361  -7.740  0.00  0.00    +0.006 A 
ATOM     30  C   UNL     1      -3.462 -11.695  -8.032  0.00  0.00    +0.023 A 
ATOM     31  C   UNL     1      -3.136 -12.668  -7.097  0.00  0.00    +0.025 A 
ATOM     32  C   UNL     1      -2.599 -12.297  -5.870  0.00  0.00    +0.023 A 
ATOM     33  C   UNL     1      -2.387 -10.962  -5.588  0.00  0.00    +0.006 A 
BRANCH  31  34
ATOM     34  N   UNL     1      -3.347 -14.018  -7.388  0.00  0.00    -0.358 N 
ATOM     35  H   UNL     1      -3.722 -14.276  -8.245  0.00  0.00    +0.142 HD
ATOM     36  H   UNL     1      -3.119 -14.697  -6.734  0.00  0.00    +0.142 HD
ENDBRANCH  31  34
ENDBRANCH  27  28
ENDBRANCH  24  27
ENDBRANCH  11  23
TORSDOF 6
