REMARK  Name = CHEMBL232864
REMARK  10 active torsions:
REMARK  status: ('A' for Active; 'I' for Inactive)
REMARK    1  A    between atoms: C_1  and  C_2
REMARK    2  A    between atoms: C_7  and  C_10
REMARK    3  A    between atoms: C_10  and  C_11
REMARK    4  A    between atoms: C_14  and  S_26
REMARK    5  A    between atoms: N_15  and  N_16
REMARK    6  A    between atoms: C_17  and  C_19
REMARK    7  A    between atoms: S_26  and  C_27
REMARK    8  A    between atoms: C_27  and  C_28
REMARK    9  A    between atoms: N_30  and  N_31
REMARK   10  A    between atoms: C_32  and  C_33
REMARK                            x       y       z     vdW  Elec       q    Type
REMARK                         _______ _______ _______ _____ _____    ______ ____
ROOT
ATOM      1  C   UNL     1      -1.816  -3.801  -3.997  0.00  0.00    +0.158 A 
ATOM      2  N   UNL     1      -2.728  -4.731  -3.975  0.00  0.00    -0.132 NA
ATOM      3  N   UNL     1      -2.664  -5.438  -5.047  0.00  0.00    -0.121 NA
ATOM      4  C   UNL     1      -1.698  -4.993  -5.817  0.00  0.00    +0.209 A 
ATOM      5  N   UNL     1      -1.131  -3.931  -5.173  0.00  0.00    -0.218 N 
ENDROOT
BRANCH   5   6
ATOM      6  N   UNL     1      -0.065  -3.140  -5.623  0.00  0.00    -0.215 N 
ATOM      7  C   UNL     1      -0.282  -2.173  -6.536  0.00  0.00    +0.262 C 
ATOM      8  O   UNL     1      -1.415  -1.924  -6.901  0.00  0.00    -0.268 OA
ATOM      9  H   UNL     1       0.829  -3.288  -5.277  0.00  0.00    +0.176 HD
BRANCH   7  10
ATOM     10  C   UNL     1       0.857  -1.414  -7.095  0.00  0.00    +0.038 A 
ATOM     11  C   UNL     1       2.159  -1.701  -6.682  0.00  0.00    +0.014 A 
ATOM     12  C   UNL     1       3.218  -0.990  -7.207  0.00  0.00    +0.021 A 
ATOM     13  C   UNL     1       2.991   0.007  -8.141  0.00  0.00    +0.041 A 
ATOM     14  C   UNL     1       1.701   0.296  -8.553  0.00  0.00    +0.021 A 
ATOM     15  C   UNL     1       0.635  -0.412  -8.041  0.00  0.00    +0.014 A 
ATOM     16 CL   UNL     1       4.329   0.898  -8.797  0.00  0.00    -0.084 Cl
ENDBRANCH   7  10
ENDBRANCH   5   6
BRANCH   1  17
ATOM     17  C   UNL     1      -1.567  -2.770  -2.927  0.00  0.00    +0.134 C 
BRANCH  17  24
ATOM     18  C   UNL     1      -4.005   2.838  -7.049  0.00  0.00    +0.109 C 
ATOM     19  C   UNL     1      -3.946   1.997  -5.800  0.00  0.00    +0.216 C 
ATOM     20  O   UNL     1      -4.633   2.284  -4.843  0.00  0.00    -0.276 OA
ATOM     21  N   UNL     1      -3.129   0.926  -5.746  0.00  0.00    -0.265 N 
ATOM     22  C   UNL     1      -3.075   0.151  -4.594  0.00  0.00    +0.165 A 
ATOM     23  N   UNL     1      -2.341  -0.916  -4.361  0.00  0.00    -0.229 NA
ATOM     24  C   UNL     1      -2.403  -1.547  -3.203  0.00  0.00    +0.058 A 
ATOM     25  C   UNL     1      -3.254  -1.047  -2.274  0.00  0.00    +0.072 A 
ATOM     26  S   UNL     1      -3.926   0.352  -3.156  0.00  0.00    -0.060 S 
ATOM     27  H   UNL     1      -2.579   0.697  -6.512  0.00  0.00    +0.157 HD
ENDBRANCH  17  24
ENDBRANCH   1  17
BRANCH   4  28
ATOM     28  S   UNL     1      -1.228  -5.639  -7.387  0.00  0.00    -0.075 S 
BRANCH  28  29
ATOM     29  C   UNL     1      -2.374  -7.020  -7.654  0.00  0.00    +0.174 C 
BRANCH  29  30
ATOM     30  C   UNL     1      -2.076  -7.670  -8.981  0.00  0.00    +0.242 C 
ATOM     31  O   UNL     1      -1.179  -7.244  -9.678  0.00  0.00    -0.273 OA
ATOM     32  N   UNL     1      -2.807  -8.725  -9.393  0.00  0.00    -0.206 N 
ATOM     33  H   UNL     1      -3.524  -9.066  -8.836  0.00  0.00    +0.177 HD
BRANCH  32  34
ATOM     34  N   UNL     1      -2.530  -9.330 -10.626  0.00  0.00    -0.188 NA
ATOM     35  C   UNL     1      -3.233 -10.345 -11.023  0.00  0.00    +0.138 C 
BRANCH  35  36
ATOM     36  C   UNL     1      -2.942 -10.982 -12.322  0.00  0.00    -0.005 A 
ATOM     37  C   UNL     1      -1.907 -10.497 -13.124  0.00  0.00    +0.009 A 
ATOM     38  C   UNL     1      -1.640 -11.098 -14.337  0.00  0.00    +0.001 A 
ATOM     39  C   UNL     1      -2.396 -12.177 -14.759  0.00  0.00    +0.000 A 
ATOM     40  C   UNL     1      -3.423 -12.662 -13.970  0.00  0.00    +0.001 A 
ATOM     41  C   UNL     1      -3.697 -12.075 -12.752  0.00  0.00    +0.009 A 
ENDBRANCH  35  36
ENDBRANCH  32  34
ENDBRANCH  29  30
ENDBRANCH  28  29
ENDBRANCH   4  28
TORSDOF 9
