REMARK  Name = CHEMBL192440
REMARK  7 active torsions:
REMARK  status: ('A' for Active; 'I' for Inactive)
REMARK    1  A    between atoms: C_1  and  C_2
REMARK    2  A    between atoms: C_2  and  C_3
REMARK    3  A    between atoms: C_2  and  C_21
REMARK    4  A    between atoms: C_6  and  N_9
REMARK    5  A    between atoms: C_10  and  C_15
REMARK    6  A    between atoms: N_23  and  C_24
REMARK    7  A    between atoms: C_26  and  C_30
REMARK                            x       y       z     vdW  Elec       q    Type
REMARK                         _______ _______ _______ _____ _____    ______ ____
ROOT
ATOM      1  C   UNL     1      -1.412  -0.526   0.013  0.00  0.00    -0.036 A 
ATOM      2  C   UNL     1      -2.341  -0.019  -0.877  0.00  0.00    +0.006 A 
ATOM      3  C   UNL     1      -3.637  -0.495  -0.870  0.00  0.00    +0.024 A 
ATOM      4  C   UNL     1      -4.007  -1.484   0.032  0.00  0.00    +0.037 A 
ATOM      5  C   UNL     1      -3.072  -1.991   0.924  0.00  0.00    +0.024 A 
ATOM      6  C   UNL     1      -1.776  -1.514   0.909  0.00  0.00    +0.006 A 
ENDROOT
BRANCH   4   7
ATOM      7  N   UNL     1      -5.320  -1.968   0.042  0.00  0.00    -0.264 N 
ATOM      8  C   UNL     1      -6.344  -1.605  -0.945  0.00  0.00    +0.112 C 
ATOM      9  C   UNL     1      -7.449  -2.676  -0.805  0.00  0.00    +0.037 C 
ATOM     10  C   UNL     1      -7.255  -3.140   0.657  0.00  0.00    +0.098 C 
ATOM     11  C   UNL     1      -5.804  -2.829   0.954  0.00  0.00    +0.220 C 
ATOM     12  O   UNL     1      -5.171  -3.287   1.882  0.00  0.00    -0.275 OA
BRANCH   8  13
ATOM     13  C   UNL     1      -5.762  -1.636  -2.335  0.00  0.00    -0.027 A 
ATOM     14  C   UNL     1      -4.885  -2.642  -2.695  0.00  0.00    +0.005 A 
ATOM     15  C   UNL     1      -4.351  -2.669  -3.970  0.00  0.00    +0.000 A 
ATOM     16  C   UNL     1      -4.695  -1.692  -4.885  0.00  0.00    +0.000 A 
ATOM     17  C   UNL     1      -5.573  -0.686  -4.525  0.00  0.00    +0.000 A 
ATOM     18  C   UNL     1      -6.110  -0.661  -3.251  0.00  0.00    +0.005 A 
ENDBRANCH   8  13
ENDBRANCH   4   7
BRANCH   1  20
ATOM     19  C   UNL     1      -0.006   1.497   0.298  0.00  0.00    +0.022 C 
ATOM     20  C   UNL     1       0.002  -0.004   0.002  0.00  0.00    +0.102 C 
BRANCH  20  21
ATOM     21  C   UNL     1       0.617  -0.246  -1.352  0.00  0.00    +0.225 C 
ATOM     22  O   UNL     1      -0.030  -0.789  -2.223  0.00  0.00    -0.275 OA
ATOM     23  N   UNL     1       1.885   0.140  -1.596  0.00  0.00    -0.270 N 
ATOM     24  H   UNL     1       2.402   0.574  -0.899  0.00  0.00    +0.156 HD
BRANCH  23  25
ATOM     25  C   UNL     1       2.453  -0.084  -2.849  0.00  0.00    +0.121 A 
ATOM     26  C   UNL     1       1.847  -0.678  -3.913  0.00  0.00    +0.068 A 
ATOM     27  C   UNL     1       2.763  -0.704  -4.968  0.00  0.00    +0.068 A 
ATOM     28  N   UNL     1       3.875  -0.148  -4.561  0.00  0.00    -0.177 NA
ATOM     29  H   UNL     1       4.370   0.699  -2.680  0.00  0.00    +0.190 HD
ATOM     30  N   UNL     1       3.706   0.256  -3.231  0.00  0.00    -0.264 N 
BRANCH  27  31
ATOM     31  C   UNL     1       2.512  -1.274  -6.341  0.00  0.00    +0.040 C 
ATOM     32  C   UNL     1       1.312  -2.208  -6.509  0.00  0.00    +0.010 C 
ATOM     33  C   UNL     1       2.733  -2.775  -6.534  0.00  0.00    +0.010 C 
ENDBRANCH  27  31
ENDBRANCH  23  25
ENDBRANCH  20  21
ENDBRANCH   1  20
TORSDOF 6
