REMARK  Name = CHEMBL245336
REMARK  5 active torsions:
REMARK  status: ('A' for Active; 'I' for Inactive)
REMARK    1  A    between atoms: C_1  and  N_2
REMARK    2  A    between atoms: C_3  and  C_5
REMARK    3  A    between atoms: C_5  and  N_6
REMARK    4  A    between atoms: C_9  and  N_12
REMARK    5  A    between atoms: C_17  and  C_19
REMARK                            x       y       z     vdW  Elec       q    Type
REMARK                         _______ _______ _______ _____ _____    ______ ____
ROOT
ATOM      1  N   UNL     1       2.012  -4.515  -6.036  0.00  0.00    -0.311 N 
ATOM      2  C   UNL     1       2.015  -5.838  -6.447  0.00  0.00    +0.216 A 
ATOM      3  N   UNL     1       1.295  -6.724  -5.775  0.00  0.00    -0.221 NA
ATOM      4  C   UNL     1       1.271  -7.998  -6.136  0.00  0.00    +0.136 A 
ATOM      5  C   UNL     1       2.009  -8.406  -7.232  0.00  0.00    +0.085 A 
ATOM      6  C   UNL     1       2.761  -7.447  -7.923  0.00  0.00    +0.096 A 
ATOM      7  N   UNL     1       2.733  -6.182  -7.505  0.00  0.00    -0.213 NA
ATOM      8 CL   UNL     1       2.005 -10.066  -7.739  0.00  0.00    -0.080 Cl
ATOM      9  H   UNL     1       2.532  -3.855  -6.521  0.00  0.00    +0.149 HD
ENDROOT
BRANCH   6  10
ATOM     10  C   UNL     1       3.567  -7.831  -9.101  0.00  0.00    +0.027 A 
ATOM     11  C   UNL     1       3.158  -8.585 -10.154  0.00  0.00    +0.093 A 
ATOM     12  N   UNL     1       4.179  -8.726 -11.044  0.00  0.00    -0.360 N 
ATOM     13  H   UNL     1       4.125  -9.223 -11.875  0.00  0.00    +0.165 HD
ATOM     14  C   UNL     1       5.299  -8.060 -10.595  0.00  0.00    +0.047 A 
ATOM     15  C   UNL     1       4.969  -7.465  -9.365  0.00  0.00    +0.009 A 
ATOM     16  C   UNL     1       5.919  -6.714  -8.676  0.00  0.00    +0.010 A 
ATOM     17  C   UNL     1       7.180  -6.556  -9.208  0.00  0.00    +0.001 A 
ATOM     18  C   UNL     1       7.506  -7.140 -10.423  0.00  0.00    +0.002 A 
ATOM     19  C   UNL     1       6.580  -7.893 -11.112  0.00  0.00    +0.026 A 
ENDBRANCH   6  10
BRANCH   1  23
ATOM     20  N   UNL     1       0.964  -2.416  -2.535  0.00  0.00    +0.385 N 
ATOM     21  C   UNL     1       0.119  -2.195  -3.715  0.00  0.00    -0.076 C 
ATOM     22  C   UNL     1       0.873  -2.627  -4.974  0.00  0.00    +0.004 C 
ATOM     23  C   UNL     1       1.225  -4.113  -4.868  0.00  0.00    +0.070 C 
ATOM     24  C   UNL     1       2.043  -4.345  -3.595  0.00  0.00    +0.004 C 
ATOM     25  C   UNL     1       1.246  -3.849  -2.386  0.00  0.00    -0.076 C 
ATOM     26  H   UNL     1       1.832  -1.914  -2.646  0.00  0.00    -0.081 HD
BRANCH  20  27
ATOM     27  C   UNL     1       0.267  -1.929  -1.337  0.00  0.00    +0.019 C 
BRANCH  27  30
ATOM     28  C   UNL     1      -0.708   1.685  -0.536  0.00  0.00    +0.128 C 
ATOM     29  N   UNL     1      -0.532   0.234  -0.442  0.00  0.00    -0.320 N 
ATOM     30  C   UNL     1       0.086  -0.436  -1.434  0.00  0.00    +0.196 C 
ATOM     31  O   UNL     1       0.498   0.163  -2.405  0.00  0.00    -0.278 OA
ATOM     32  H   UNL     1      -0.861  -0.245   0.335  0.00  0.00    +0.148 HD
ENDBRANCH  27  30
ENDBRANCH  20  27
ENDBRANCH   1  23
TORSDOF 4
