REMARK  Name = CHEMBL364213
REMARK  2 active torsions:
REMARK  status: ('A' for Active; 'I' for Inactive)
REMARK    1  A    between atoms: C_9  and  N_11
REMARK    2  A    between atoms: C_18  and  C_20
REMARK                            x       y       z     vdW  Elec       q    Type
REMARK                         _______ _______ _______ _____ _____    ______ ____
ROOT
ATOM      1  N   UNL     1       1.206  -2.090  -0.021  0.00  0.00    -0.269 N 
ATOM      2  C   UNL     1       0.048  -2.772   0.088  0.00  0.00    +0.310 C 
ATOM      3  O   UNL     1      -1.010  -2.175   0.102  0.00  0.00    -0.252 OA
ATOM      4  N   UNL     1       0.065  -4.117   0.182  0.00  0.00    -0.248 N 
ATOM      5  C   UNL     1      -1.129  -4.820   0.294  0.00  0.00    +0.166 A 
ATOM      6  N   UNL     1      -2.356  -4.348   0.320  0.00  0.00    -0.233 NA
ATOM      7  C   UNL     1      -3.395  -5.155   0.432  0.00  0.00    +0.124 A 
ATOM      8  C   UNL     1      -3.137  -6.483   0.519  0.00  0.00    +0.014 A 
ATOM      9  S   UNL     1      -1.355  -6.483   0.423  0.00  0.00    -0.057 S 
ATOM     10  H   UNL     1       2.044  -2.569  -0.114  0.00  0.00    +0.156 HD
ATOM     11  H   UNL     1       0.909  -4.593   0.171  0.00  0.00    +0.158 HD
ENDROOT
BRANCH   1  20
ATOM     12  C   UNL     1       0.154   1.380   0.643  0.00  0.00    +0.002 A 
ATOM     13  C   UNL     1       1.148   2.108   0.061  0.00  0.00    +0.010 A 
ATOM     14  C   UNL     1       2.211   1.452  -0.577  0.00  0.00    +0.002 A 
ATOM     15  C   UNL     1       3.260   2.156  -1.191  0.00  0.00    +0.119 A 
ATOM     16  N   UNL     1       4.234   1.500  -1.777  0.00  0.00    -0.263 NA
ATOM     17  C   UNL     1       4.282   0.176  -1.821  0.00  0.00    +0.111 A 
ATOM     18  C   UNL     1       3.314  -0.598  -1.256  0.00  0.00    +0.030 A 
ATOM     19  C   UNL     1       2.238   0.033  -0.610  0.00  0.00    +0.006 A 
ATOM     20  C   UNL     1       1.198  -0.694   0.000  0.00  0.00    +0.043 A 
ATOM     21  C   UNL     1       0.171  -0.011   0.618  0.00  0.00    +0.024 A 
ENDBRANCH   1  20
BRANCH   8  22
ATOM     22  C   UNL     1      -4.093  -7.641   0.653  0.00  0.00    +0.027 C 
ATOM     23  C   UNL     1      -3.577  -8.761   1.572  0.00  0.00    +0.009 C 
ATOM     24  C   UNL     1      -4.164  -9.757   0.557  0.00  0.00    +0.001 C 
ATOM     25  C   UNL     1      -3.999  -8.653  -0.502  0.00  0.00    +0.009 C 
ENDBRANCH   8  22
TORSDOF 2
