REMARK  Name = CHEMBL571722
REMARK  8 active torsions:
REMARK  status: ('A' for Active; 'I' for Inactive)
REMARK    1  A    between atoms: C_1  and  C_2
REMARK    2  A    between atoms: C_7  and  C_8
REMARK    3  A    between atoms: CA_10  and  C_14
REMARK    4  A    between atoms: N_16  and  CA_17
REMARK    5  A    between atoms: CA_17  and  C_19
REMARK    6  A    between atoms: CA_17  and  C_21
REMARK    7  A    between atoms: C_19  and  O_20
REMARK    8  A    between atoms: N_28  and  C_29
REMARK                            x       y       z     vdW  Elec       q    Type
REMARK                         _______ _______ _______ _____ _____    ______ ____
ROOT
ATOM      1  C   UNL     1       0.627  -0.029   2.450  0.00  0.00    +0.019 A 
ATOM      2  C   UNL     1       0.183  -0.433   3.725  0.00  0.00    +0.042 A 
ATOM      3  CA  UNL     1       0.633   0.496   4.620  0.00  0.00    +0.102 A 
ATOM      4  N   UNL     1       1.338   1.454   3.927  0.00  0.00    -0.356 N 
ATOM      5  H   UNL     1       1.768   2.230   4.319  0.00  0.00    +0.165 HD
ATOM      6  C   UNL     1       1.342   1.137   2.618  0.00  0.00    +0.093 A 
ENDROOT
BRANCH   1  13
ATOM      7  C   UNL     1       0.243   1.500  -0.010  0.00  0.00    +0.047 C 
ATOM      8  C   UNL     1       0.193  -0.006  -0.013  0.00  0.00    -0.006 A 
ATOM      9  C   UNL     1      -0.031  -0.704  -1.185  0.00  0.00    +0.120 A 
ATOM     10  N   UNL     1      -0.069  -2.027  -1.154  0.00  0.00    -0.222 NA
ATOM     11  C   UNL     1       0.104  -2.688  -0.018  0.00  0.00    +0.220 A 
ATOM     12  N   UNL     1       0.321  -2.060   1.126  0.00  0.00    -0.214 NA
ATOM     13  C   UNL     1       0.378  -0.730   1.169  0.00  0.00    +0.080 A 
ATOM     14  N   UNL     1       0.057  -4.072  -0.030  0.00  0.00    -0.281 N 
ATOM     15  H   UNL     1       0.094  -4.566   0.805  0.00  0.00    +0.155 HD
BRANCH  14  16
ATOM     16  C   UNL     1      -0.046  -4.760  -1.246  0.00  0.00    +0.079 A 
ATOM     17  C   UNL     1       0.533  -4.234  -2.392  0.00  0.00    +0.027 A 
ATOM     18  C   UNL     1       0.432  -4.912  -3.592  0.00  0.00    +0.006 A 
ATOM     19  C   UNL     1      -0.246  -6.114  -3.655  0.00  0.00    +0.049 A 
ATOM     20  C   UNL     1      -0.829  -6.648  -2.513  0.00  0.00    +0.164 A 
ATOM     21  C   UNL     1      -0.724  -5.975  -1.304  0.00  0.00    +0.183 A 
ATOM     22  O   UNL     1      -1.277  -6.487  -0.170  0.00  0.00    -0.483 OA
ATOM     23  C   UNL     1      -2.262  -7.512  -0.341  0.00  0.00    +0.270 C 
ATOM     24  C   UNL     1      -1.727  -8.526  -1.362  0.00  0.00    +0.270 C 
ATOM     25  O   UNL     1      -1.496  -7.832  -2.596  0.00  0.00    -0.485 OA
ENDBRANCH  14  16
ENDBRANCH   1  13
BRANCH   3  26
ATOM     26  C   UNL     1       0.403   0.476   6.069  0.00  0.00    +0.261 C 
ATOM     27  O   UNL     1      -0.239  -0.426   6.571  0.00  0.00    -0.269 OA
ATOM     28  N   UNL     1       0.905   1.459   6.844  0.00  0.00    -0.301 N 
ATOM     29  H   UNL     1       1.417   2.179   6.444  0.00  0.00    +0.150 HD
BRANCH  28  30
ATOM     30  CA  UNL     1       0.676   1.439   8.291  0.00  0.00    +0.129 C 
BRANCH  30  31
ATOM     31  C   UNL     1       1.771   2.209   8.983  0.00  0.00    -0.024 A 
ATOM     32  C   UNL     1       2.240   3.388   8.434  0.00  0.00    +0.005 A 
ATOM     33  C   UNL     1       3.244   4.095   9.069  0.00  0.00    +0.002 A 
ATOM     34  C   UNL     1       3.781   3.623  10.252  0.00  0.00    +0.020 A 
ATOM     35  C   UNL     1       3.312   2.443  10.801  0.00  0.00    +0.041 A 
ATOM     36  C   UNL     1       2.302   1.739  10.169  0.00  0.00    +0.025 A 
ATOM     37 CL   UNL     1       3.985   1.850  12.287  0.00  0.00    -0.084 Cl
ENDBRANCH  30  31
BRANCH  30  38
ATOM     38  C   UNL     1      -0.676   2.084   8.602  0.00  0.00    +0.182 C 
BRANCH  38  39
ATOM     39  O   UNL     1      -0.638   3.467   8.244  0.00  0.00    -0.393 OA
ATOM     40  H   UNL     1      -1.464   3.941   8.414  0.00  0.00    +0.209 HD
ENDBRANCH  38  39
ENDBRANCH  30  38
ENDBRANCH  28  30
ENDBRANCH   3  26
TORSDOF 7
