REMARK  Name = CHEMBL332575
REMARK  0 active torsions:
REMARK  status: ('A' for Active; 'I' for Inactive)
REMARK                            x       y       z     vdW  Elec       q    Type
REMARK                         _______ _______ _______ _____ _____    ______ ____
ROOT
ATOM      1  C   UNL     1      -0.016   1.360   0.009  0.00  0.00    +0.001 A 
ATOM      2  C   UNL     1       1.169   2.084   0.002  0.00  0.00    +0.001 A 
ATOM      3  C   UNL     1       2.378   1.447  -0.046  0.00  0.00    +0.009 A 
ATOM      4  C   UNL     1       2.434   0.054  -0.113  0.00  0.00    -0.009 A 
ATOM      5  C   UNL     1       1.229  -0.683  -0.013  0.00  0.00    -0.017 A 
ATOM      6  C   UNL     1       0.002  -0.004   0.002  0.00  0.00    +0.008 A 
ATOM      7  C   UNL     1       1.272  -2.092   0.097  0.00  0.00    +0.009 A 
ATOM      8  C   UNL     1       2.445  -2.756   0.080  0.00  0.00    +0.011 A 
ATOM      9  C   UNL     1       3.673  -2.080  -0.089  0.00  0.00    +0.007 A 
ATOM     10  C   UNL     1       3.693  -0.675  -0.271  0.00  0.00    +0.005 A 
ATOM     11  C   UNL     1       4.894  -0.045  -0.631  0.00  0.00    +0.058 A 
ATOM     12  C   UNL     1       6.098  -0.772  -0.591  0.00  0.00    +0.060 A 
ATOM     13  C   UNL     1       6.092  -2.146  -0.316  0.00  0.00    +0.021 A 
ATOM     14  C   UNL     1       4.882  -2.807  -0.066  0.00  0.00    +0.056 A 
ATOM     15  N   UNL     1       5.149  -4.137   0.167  0.00  0.00    -0.354 N 
ATOM     16  H   UNL     1       4.481  -4.808   0.374  0.00  0.00    +0.166 HD
ATOM     17  C   UNL     1       6.505  -4.381   0.062  0.00  0.00    +0.048 A 
ATOM     18  C   UNL     1       7.149  -3.169  -0.236  0.00  0.00    +0.008 A 
ATOM     19  C   UNL     1       8.533  -3.135  -0.394  0.00  0.00    +0.010 A 
ATOM     20  C   UNL     1       9.266  -4.295  -0.262  0.00  0.00    +0.001 A 
ATOM     21  C   UNL     1       8.631  -5.493   0.030  0.00  0.00    +0.002 A 
ATOM     22  C   UNL     1       7.263  -5.540   0.192  0.00  0.00    +0.026 A 
ATOM     23  C   UNL     1       7.172   0.204  -0.864  0.00  0.00    +0.252 C 
ATOM     24  O   UNL     1       8.365  -0.023  -0.836  0.00  0.00    -0.270 OA
ATOM     25  N   UNL     1       6.607   1.386  -1.161  0.00  0.00    -0.248 N 
ATOM     26  C   UNL     1       5.264   1.292  -1.126  0.00  0.00    +0.252 C 
ATOM     27  O   UNL     1       4.507   2.170  -1.490  0.00  0.00    -0.270 OA
ATOM     28  H   UNL     1       7.095   2.197  -1.371  0.00  0.00    +0.158 HD
ENDROOT
TORSDOF 0
