REMARK  Name = CHEMBL381565
REMARK  7 active torsions:
REMARK  status: ('A' for Active; 'I' for Inactive)
REMARK    1  A    between atoms: C_1  and  C_2
REMARK    2  A    between atoms: C_2  and  C_3
REMARK    3  A    between atoms: C_3  and  C_4
REMARK    4  A    between atoms: C_4  and  N_5
REMARK    5  A    between atoms: C_17  and  C_19
REMARK    6  A    between atoms: C_19  and  C_20
REMARK    7  A    between atoms: C_23  and  N_26
REMARK                            x       y       z     vdW  Elec       q    Type
REMARK                         _______ _______ _______ _____ _____    ______ ____
ROOT
ATOM      1  N   UNL     1      -2.787  -2.571  -0.049  0.00  0.00    -0.299 N 
ATOM      2  C   UNL     1      -3.015  -3.899  -0.039  0.00  0.00    +0.303 C 
ATOM      3  O   UNL     1      -2.081  -4.676  -0.039  0.00  0.00    -0.253 OA
ATOM      4  N   UNL     1      -4.280  -4.366  -0.030  0.00  0.00    -0.275 N 
ATOM      5  C   UNL     1      -4.699  -5.772  -0.013  0.00  0.00    +0.150 C 
ATOM      6  C   UNL     1      -6.207  -5.795  -0.008  0.00  0.00    +0.034 A 
ATOM      7  C   UNL     1      -6.674  -4.530  -0.020  0.00  0.00    +0.060 A 
ATOM      8  N   UNL     1      -8.025  -4.586  -0.014  0.00  0.00    -0.278 N 
ATOM      9  N   UNL     1      -8.403  -5.934   0.002  0.00  0.00    -0.158 NA
ATOM     10  H   UNL     1      -8.627  -3.825  -0.020  0.00  0.00    +0.189 HD
ATOM     11  C   UNL     1      -7.313  -6.664   0.006  0.00  0.00    +0.152 A 
ATOM     12  N   UNL     1      -7.261  -8.064   0.020  0.00  0.00    -0.268 N 
ATOM     13  C   UNL     1      -8.402  -8.781   0.032  0.00  0.00    +0.223 C 
ATOM     14  O   UNL     1      -9.474  -8.215   0.030  0.00  0.00    -0.275 OA
ATOM     15  C   UNL     1      -5.512  -3.568  -0.028  0.00  0.00    +0.164 C 
ATOM     16  H   UNL     1      -3.533  -1.951  -0.049  0.00  0.00    +0.150 HD
ATOM     17  H   UNL     1      -6.403  -8.518   0.022  0.00  0.00    +0.156 HD
ENDROOT
BRANCH   1  18
ATOM     18  C   UNL     1      -1.413  -2.064  -0.058  0.00  0.00    +0.106 C 
BRANCH  18  19
ATOM     19  C   UNL     1      -1.434  -0.534  -0.068  0.00  0.00    +0.018 C 
BRANCH  19  21
ATOM     20  C   UNL     1      -0.019   1.526  -0.087  0.00  0.00    +0.004 C 
ATOM     21  C   UNL     1       0.002  -0.004  -0.078  0.00  0.00    -0.002 C 
ENDBRANCH  19  21
ENDBRANCH  18  19
ENDBRANCH   1  18
BRANCH  13  22
ATOM     22  C   UNL     1      -8.345 -10.287   0.048  0.00  0.00    +0.131 C 
BRANCH  22  23
ATOM     23  C   UNL     1      -9.746 -10.842   0.059  0.00  0.00    -0.039 A 
ATOM     24  C   UNL     1     -10.385 -11.079   1.262  0.00  0.00    +0.006 A 
ATOM     25  C   UNL     1     -11.669 -11.587   1.276  0.00  0.00    +0.024 A 
ATOM     26  C   UNL     1     -12.319 -11.861   0.079  0.00  0.00    +0.036 A 
ATOM     27  C   UNL     1     -11.675 -11.622  -1.128  0.00  0.00    +0.024 A 
ATOM     28  C   UNL     1     -10.392 -11.109  -1.135  0.00  0.00    +0.006 A 
BRANCH  26  29
ATOM     29  N   UNL     1     -13.620 -12.377   0.090  0.00  0.00    -0.271 N 
ATOM     30  C   UNL     1     -14.434 -12.593  -1.112  0.00  0.00    +0.114 C 
ATOM     31  C   UNL     1     -15.566 -13.550  -0.675  0.00  0.00    +0.029 C 
ATOM     32  C   UNL     1     -15.656 -13.261   0.841  0.00  0.00    +0.098 C 
ATOM     33  C   UNL     1     -14.281 -12.743   1.201  0.00  0.00    +0.220 C 
ATOM     34  O   UNL     1     -13.841 -12.668   2.328  0.00  0.00    -0.275 OA
ENDBRANCH  26  29
ENDBRANCH  22  23
ENDBRANCH  13  22
TORSDOF 6
