REMARK  Name = CHEMBL205197
REMARK  14 active torsions:
REMARK  status: ('A' for Active; 'I' for Inactive)
REMARK    1  A    between atoms: C_1  and  C_2
REMARK    2  A    between atoms: C_2  and  C_4
REMARK    3  A    between atoms: C_2  and  N_31
REMARK    4  A    between atoms: N_6  and  C_7
REMARK    5  A    between atoms: C_7  and  C_9
REMARK    6  A    between atoms: C_7  and  C_13
REMARK    7  A    between atoms: C_9  and  C_10
REMARK    8  A    between atoms: C_10  and  C_11
REMARK    9  A    between atoms: C_10  and  C_12
REMARK   10  A    between atoms: N_15  and  C_16
REMARK   11  A    between atoms: C_22  and  C_24
REMARK   12  A    between atoms: C_32  and  C_34
REMARK   13  A    between atoms: C_37  and  C_40
REMARK   14  A    between atoms: C_40  and  N_41
REMARK                            x       y       z     vdW  Elec       q    Type
REMARK                         _______ _______ _______ _____ _____    ______ ____
ROOT
ATOM      1  C   UNL     1       0.399  -0.654   1.234  0.00  0.00    +0.234 C 
ATOM      2  O   UNL     1       0.102  -1.637   1.880  0.00  0.00    -0.274 OA
ATOM      3  N   UNL     1       1.575  -0.034   1.453  0.00  0.00    -0.302 N 
ATOM      4  H   UNL     1       1.846   0.707   0.888  0.00  0.00    +0.150 HD
ENDROOT
BRANCH   1   6
ATOM      5  C   UNL     1      -0.945   1.308   0.535  0.00  0.00    +0.038 C 
ATOM      6  C   UNL     1      -0.547  -0.127   0.186  0.00  0.00    +0.156 C 
BRANCH   6   7
ATOM      7  N   UNL     1      -1.744  -0.970   0.141  0.00  0.00    -0.300 N 
ATOM      8  C   UNL     1      -2.479  -1.037  -0.986  0.00  0.00    +0.245 C 
ATOM      9  O   UNL     1      -2.148  -0.399  -1.966  0.00  0.00    -0.270 OA
ATOM     10  H   UNL     1      -2.009  -1.479   0.924  0.00  0.00    +0.150 HD
BRANCH   8  11
ATOM     11  C   UNL     1      -3.688  -1.887  -1.032  0.00  0.00    +0.037 A 
ATOM     12  C   UNL     1      -4.074  -2.617   0.094  0.00  0.00    +0.013 A 
ATOM     13  C   UNL     1      -5.204  -3.408   0.045  0.00  0.00    +0.006 A 
ATOM     14  C   UNL     1      -5.952  -3.479  -1.116  0.00  0.00    -0.028 A 
ATOM     15  C   UNL     1      -5.575  -2.759  -2.235  0.00  0.00    +0.006 A 
ATOM     16  C   UNL     1      -4.451  -1.959  -2.198  0.00  0.00    +0.013 A 
BRANCH  14  17
ATOM     17  C   UNL     1      -7.184  -4.346  -1.162  0.00  0.00    +0.151 C 
BRANCH  17  18
ATOM     18  N   UNL     1      -8.350  -3.560  -0.748  0.00  0.00    -0.354 N 
ATOM     19  C   UNL     1      -9.530  -4.113  -0.713  0.00  0.00    +0.166 C 
ATOM     20  N   UNL     1      -9.680  -5.433  -1.065  0.00  0.00    -0.372 N 
ATOM     21  N   UNL     1     -10.623  -3.375  -0.325  0.00  0.00    -0.372 N 
ATOM     22  H   UNL     1      -8.909  -5.954  -1.338  0.00  0.00    +0.159 HD
ATOM     23  H   UNL     1     -10.559  -5.845  -1.039  0.00  0.00    +0.159 HD
ATOM     24  H   UNL     1     -10.517  -2.444  -0.077  0.00  0.00    +0.159 HD
ATOM     25  H   UNL     1     -11.501  -3.787  -0.299  0.00  0.00    +0.159 HD
ATOM     26  H   UNL     1      -8.243  -2.628  -0.500  0.00  0.00    +0.163 HD
ENDBRANCH  17  18
ENDBRANCH  14  17
ENDBRANCH   8  11
ENDBRANCH   6   7
ENDBRANCH   1   6
BRANCH   3  27
ATOM     27  C   UNL     1       2.446  -0.478   2.545  0.00  0.00    +0.159 C 
BRANCH  27  28
ATOM     28  C   UNL     1       3.263   0.686   3.042  0.00  0.00    +0.234 C 
ATOM     29  O   UNL     1       3.403   1.670   2.345  0.00  0.00    -0.274 OA
ATOM     30  N   UNL     1       3.838   0.635   4.259  0.00  0.00    -0.310 N 
ATOM     31  H   UNL     1       3.786  -0.177   4.787  0.00  0.00    +0.149 HD
BRANCH  30  32
ATOM     32  C   UNL     1       4.543   1.807   4.786  0.00  0.00    +0.080 C 
ATOM     33  C   UNL     1       5.983   1.812   4.268  0.00  0.00    +0.023 C 
ATOM     34  C   UNL     1       6.718   3.035   4.818  0.00  0.00    +0.002 C 
ATOM     35  C   UNL     1       6.727   2.980   6.347  0.00  0.00    +0.001 C 
ATOM     36  C   UNL     1       5.287   2.975   6.865  0.00  0.00    +0.010 C 
ATOM     37  C   UNL     1       4.552   1.752   6.315  0.00  0.00    +0.039 C 
BRANCH  37  38
ATOM     38  C   UNL     1       3.134   1.747   6.826  0.00  0.00    -0.041 A 
ATOM     39  C   UNL     1       2.289   2.800   6.529  0.00  0.00    +0.004 A 
ATOM     40  C   UNL     1       0.988   2.796   6.997  0.00  0.00    +0.002 A 
ATOM     41  C   UNL     1       0.531   1.739   7.762  0.00  0.00    +0.020 A 
ATOM     42  C   UNL     1       1.376   0.685   8.059  0.00  0.00    +0.041 A 
ATOM     43  C   UNL     1       2.677   0.686   7.585  0.00  0.00    +0.024 A 
ATOM     44 CL   UNL     1       0.804  -0.643   9.019  0.00  0.00    -0.084 Cl
ENDBRANCH  37  38
ENDBRANCH  30  32
ENDBRANCH  27  28
BRANCH  27  45
ATOM     45  C   UNL     1       3.381  -1.577   2.037  0.00  0.00    +0.034 C 
BRANCH  45  46
ATOM     46  C   UNL     1       4.197  -2.133   3.205  0.00  0.00    -0.015 C 
ATOM     47  C   UNL     1       3.267  -2.863   4.176  0.00  0.00    +0.007 C 
ATOM     48  C   UNL     1       5.248  -3.110   2.674  0.00  0.00    +0.007 C 
ENDBRANCH  45  46
ENDBRANCH  27  45
ENDBRANCH   3  27
TORSDOF 11
