REMARK  Name = CHEMBL16364
REMARK  6 active torsions:
REMARK  status: ('A' for Active; 'I' for Inactive)
REMARK    1  A    between atoms: C_1  and  C_2
REMARK    2  A    between atoms: C_2  and  C_3
REMARK    3  A    between atoms: C_2  and  C_4
REMARK    4  A    between atoms: C_2  and  N_5
REMARK    5  A    between atoms: C_9  and  C_20
REMARK    6  A    between atoms: C_14  and  C_16
REMARK                            x       y       z     vdW  Elec       q    Type
REMARK                         _______ _______ _______ _____ _____    ______ ____
ROOT
ATOM      1  N   UNL     1       0.688  -0.476  -1.203  0.00  0.00    -0.324 N 
ATOM      2  C   UNL     1       2.001  -0.124  -1.432  0.00  0.00    +0.131 A 
ATOM      3  C   UNL     1       2.680  -0.566  -2.594  0.00  0.00    +0.041 A 
ATOM      4  C   UNL     1       2.062  -1.371  -3.557  0.00  0.00    +0.025 A 
ATOM      5  C   UNL     1       2.768  -1.764  -4.656  0.00  0.00    +0.056 A 
ATOM      6  C   UNL     1       4.093  -1.377  -4.832  0.00  0.00    +0.014 A 
ATOM      7  C   UNL     1       4.724  -0.593  -3.912  0.00  0.00    +0.029 A 
ATOM      8  C   UNL     1       4.029  -0.170  -2.771  0.00  0.00    +0.077 A 
ATOM      9  N   UNL     1       4.601   0.603  -1.835  0.00  0.00    -0.224 NA
ATOM     10  C   UNL     1       3.923   0.982  -0.779  0.00  0.00    +0.236 A 
ATOM     11  N   UNL     1       2.660   0.641  -0.573  0.00  0.00    -0.209 NA
ATOM     12  H   UNL     1       0.218  -1.037  -1.840  0.00  0.00    +0.148 HD
ENDROOT
BRANCH   1  14
ATOM     13  C   UNL     1      -0.019   1.526   0.010  0.00  0.00    +0.031 C 
ATOM     14  C   UNL     1       0.002  -0.004   0.002  0.00  0.00    +0.025 C 
ATOM     15  C   UNL     1       0.742  -0.511   1.242  0.00  0.00    +0.031 C 
ATOM     16  C   UNL     1      -1.433  -0.534   0.013  0.00  0.00    +0.031 C 
ENDBRANCH   1  14
BRANCH  10  17
ATOM     17  C   UNL     1       4.610   1.849   0.244  0.00  0.00    +0.452 C 
ATOM     18  F   UNL     1       5.784   2.376  -0.304  0.00  0.00    -0.163 F 
ATOM     19  F   UNL     1       3.759   2.895   0.617  0.00  0.00    -0.163 F 
ATOM     20  F   UNL     1       4.925   1.081   1.371  0.00  0.00    -0.163 F 
ENDBRANCH  10  17
BRANCH   5  21
ATOM     21  C   UNL     1       2.103  -2.631  -5.694  0.00  0.00    +0.417 C 
ATOM     22  F   UNL     1       1.496  -1.821  -6.660  0.00  0.00    -0.166 F 
ATOM     23  F   UNL     1       3.063  -3.445  -6.306  0.00  0.00    -0.166 F 
ATOM     24  F   UNL     1       1.134  -3.432  -5.082  0.00  0.00    -0.166 F 
ENDBRANCH   5  21
TORSDOF 3
