REMARK  Name = CHEMBL115319
REMARK  2 active torsions:
REMARK  status: ('A' for Active; 'I' for Inactive)
REMARK    1  A    between atoms: C_6  and  C_7
REMARK    2  A    between atoms: C_12  and  C_16
REMARK                            x       y       z     vdW  Elec       q    Type
REMARK                         _______ _______ _______ _____ _____    ______ ____
ROOT
ATOM      1  C   UNL     1      -1.266  -0.763   0.010  0.00  0.00    +0.249 C 
ATOM      2  O   UNL     1      -2.328  -0.172   0.023  0.00  0.00    -0.270 OA
ATOM      3  N   UNL     1      -1.244  -2.111   0.003  0.00  0.00    -0.265 N 
ATOM      4  C   UNL     1      -2.446  -2.830   0.010  0.00  0.00    +0.147 A 
ATOM      5  C   UNL     1      -3.738  -2.279   0.020  0.00  0.00    +0.068 A 
ATOM      6  C   UNL     1      -4.624  -3.300   0.025  0.00  0.00    +0.041 A 
ATOM      7  N   UNL     1      -3.926  -4.455   0.019  0.00  0.00    -0.280 N 
ATOM      8  H   UNL     1      -4.303  -5.349   0.020  0.00  0.00    +0.189 HD
ATOM      9  N   UNL     1      -2.562  -4.138   0.004  0.00  0.00    -0.158 NA
ATOM     10  H   UNL     1      -0.397  -2.582  -0.008  0.00  0.00    +0.157 HD
ENDROOT
BRANCH   1  16
ATOM     11  C   UNL     1      -0.017   1.392   0.010  0.00  0.00    +0.014 A 
ATOM     12  C   UNL     1       1.170   2.095   0.002  0.00  0.00    +0.016 A 
ATOM     13  C   UNL     1       2.378   1.419  -0.013  0.00  0.00    +0.018 A 
ATOM     14  C   UNL     1       2.403   0.034  -0.022  0.00  0.00    +0.016 A 
ATOM     15  C   UNL     1       1.224  -0.680  -0.014  0.00  0.00    +0.014 A 
ATOM     16  C   UNL     1       0.002  -0.004   0.002  0.00  0.00    +0.037 A 
ATOM     17 BR   UNL     1       4.000   2.390  -0.024  0.00  0.00    -0.050 Br
ENDBRANCH   1  16
BRANCH   6  18
ATOM     18  C   UNL     1      -6.126  -3.171   0.036  0.00  0.00    +0.037 C 
ATOM     19  C   UNL     1      -6.921  -4.238   0.792  0.00  0.00    +0.010 C 
ATOM     20  C   UNL     1      -6.931  -4.217  -0.738  0.00  0.00    +0.010 C 
ENDBRANCH   6  18
TORSDOF 2
