REMARK  Name = CHEMBL321517
REMARK  5 active torsions:
REMARK  status: ('A' for Active; 'I' for Inactive)
REMARK    1  A    between atoms: C_3  and  N_24
REMARK    2  A    between atoms: C_6  and  C_7
REMARK    3  A    between atoms: N_13  and  C_14
REMARK    4  A    between atoms: C_17  and  S_20
REMARK    5  A    between atoms: S_20  and  N_23
REMARK                            x       y       z     vdW  Elec       q    Type
REMARK                         _______ _______ _______ _____ _____    ______ ____
ROOT
ATOM      1  C   UNL     1      -1.304  -0.768  -0.404  0.00  0.00    +0.068 A 
ATOM      2  C   UNL     1      -1.428  -2.127  -0.348  0.00  0.00    +0.073 A 
ATOM      3  C   UNL     1      -2.777  -2.423  -0.111  0.00  0.00    +0.145 A 
ATOM      4  N   UNL     1      -3.442  -1.294  -0.027  0.00  0.00    -0.158 NA
ATOM      5  H   UNL     1      -2.761   0.709  -0.183  0.00  0.00    +0.189 HD
ATOM      6  N   UNL     1      -2.542  -0.235  -0.201  0.00  0.00    -0.275 N 
ATOM      7  N   UNL     1      -3.323  -3.706   0.015  0.00  0.00    -0.298 N 
ATOM      8  H   UNL     1      -2.741  -4.483   0.020  0.00  0.00    +0.154 HD
ENDROOT
BRANCH   1  14
ATOM      9  C   UNL     1      -0.075   1.383  -0.668  0.00  0.00    +0.012 A 
ATOM     10  C   UNL     1       1.092   2.084  -0.884  0.00  0.00    +0.023 A 
ATOM     11  C   UNL     1       2.290   1.403  -1.070  0.00  0.00    +0.025 A 
ATOM     12  C   UNL     1       2.314   0.013  -1.038  0.00  0.00    +0.023 A 
ATOM     13  C   UNL     1       1.151  -0.693  -0.823  0.00  0.00    +0.012 A 
ATOM     14  C   UNL     1      -0.053  -0.012  -0.636  0.00  0.00    -0.000 A 
BRANCH  11  15
ATOM     15  N   UNL     1       3.469   2.116  -1.289  0.00  0.00    -0.358 N 
ATOM     16  H   UNL     1       3.453   3.085  -1.312  0.00  0.00    +0.142 HD
ATOM     17  H   UNL     1       4.306   1.641  -1.419  0.00  0.00    +0.142 HD
ENDBRANCH  11  15
ENDBRANCH   1  14
BRANCH   7  18
ATOM     18  C   UNL     1      -4.705  -3.869   0.134  0.00  0.00    +0.033 A 
ATOM     19  C   UNL     1      -5.567  -2.948  -0.450  0.00  0.00    +0.025 A 
ATOM     20  C   UNL     1      -6.933  -3.111  -0.331  0.00  0.00    +0.030 A 
ATOM     21  C   UNL     1      -7.444  -4.190   0.367  0.00  0.00    +0.105 A 
ATOM     22  C   UNL     1      -6.589  -5.109   0.948  0.00  0.00    +0.030 A 
ATOM     23  C   UNL     1      -5.222  -4.954   0.829  0.00  0.00    +0.025 A 
BRANCH  21  24
ATOM     24  S   UNL     1      -9.187  -4.395   0.516  0.00  0.00    +0.056 S 
ATOM     25  O   UNL     1      -9.406  -5.183   1.679  0.00  0.00    -0.153 OA
ATOM     26  O   UNL     1      -9.763  -3.107   0.350  0.00  0.00    -0.153 OA
BRANCH  24  27
ATOM     27  N   UNL     1      -9.686  -5.306  -0.774  0.00  0.00    -0.204 NA
ATOM     28  H   UNL     1      -9.040  -5.614  -1.428  0.00  0.00    +0.144 HD
ATOM     29  H   UNL     1     -10.624  -5.532  -0.875  0.00  0.00    +0.144 HD
ENDBRANCH  24  27
ENDBRANCH  21  24
ENDBRANCH   7  18
TORSDOF 5
