REMARK  Name = CHEMBL150859
REMARK  4 active torsions:
REMARK  status: ('A' for Active; 'I' for Inactive)
REMARK    1  A    between atoms: C_1  and  C_2
REMARK    2  A    between atoms: C_4  and  C_8
REMARK    3  A    between atoms: C_5  and  C_7
REMARK    4  A    between atoms: C_18  and  N_22
REMARK                            x       y       z     vdW  Elec       q    Type
REMARK                         _______ _______ _______ _____ _____    ______ ____
ROOT
ATOM      1  C   UNL     1      -1.905  -3.235  -0.025  0.00  0.00    +0.105 A 
ATOM      2  C   UNL     1      -3.285  -2.922  -0.016  0.00  0.00    +0.075 A 
ATOM      3  C   UNL     1      -3.981  -4.124  -0.031  0.00  0.00    +0.078 A 
ATOM      4  N   UNL     1      -3.066  -5.117  -0.049  0.00  0.00    -0.276 N 
ATOM      5  N   UNL     1      -1.788  -4.547  -0.050  0.00  0.00    -0.173 NA
ATOM      6  H   UNL     1      -3.262  -6.067  -0.062  0.00  0.00    +0.189 HD
ATOM      7  C   UNL     1      -5.436  -3.837  -0.022  0.00  0.00    +0.013 A 
ATOM      8  C   UNL     1      -6.546  -4.668  -0.030  0.00  0.00    +0.011 A 
ATOM      9  C   UNL     1      -7.825  -4.125  -0.017  0.00  0.00    +0.002 A 
ATOM     10  C   UNL     1      -8.005  -2.760   0.003  0.00  0.00    +0.024 A 
ATOM     11  C   UNL     1      -6.901  -1.905   0.011  0.00  0.00    +0.046 A 
ATOM     12  C   UNL     1      -5.613  -2.441  -0.001  0.00  0.00    +0.053 A 
ATOM     13  C   UNL     1      -4.269  -1.821   0.004  0.00  0.00    +0.200 C 
ATOM     14  O   UNL     1      -4.022  -0.631   0.020  0.00  0.00    -0.286 OA
ENDROOT
BRANCH   1  18
ATOM     15  C   UNL     1      -0.010   1.474   0.037  0.00  0.00    +0.051 C 
ATOM     16  C   UNL     1       0.004  -0.033   0.015  0.00  0.00    -0.012 A 
ATOM     17  C   UNL     1      -1.040  -0.890   0.006  0.00  0.00    +0.021 A 
ATOM     18  C   UNL     1      -0.789  -2.260  -0.015  0.00  0.00    +0.013 A 
ATOM     19  C   UNL     1       0.511  -2.684  -0.026  0.00  0.00    -0.004 A 
ATOM     20  S   UNL     1       1.404  -1.139  -0.013  0.00  0.00    -0.098 S 
ATOM     21  C   UNL     1       1.050  -4.091  -0.048  0.00  0.00    +0.052 C 
ENDBRANCH   1  18
BRANCH  11  22
ATOM     22  N   UNL     1      -7.083  -0.526   0.031  0.00  0.00    -0.269 N 
ATOM     23  C   UNL     1      -8.220  -0.004   0.532  0.00  0.00    +0.301 C 
ATOM     24  O   UNL     1      -9.041  -0.730   1.060  0.00  0.00    -0.253 OA
ATOM     25  N   UNL     1      -8.447   1.321   0.448  0.00  0.00    -0.313 N 
ATOM     26  H   UNL     1      -6.393   0.059  -0.316  0.00  0.00    +0.156 HD
ATOM     27  H   UNL     1      -7.792   1.900   0.027  0.00  0.00    +0.146 HD
ATOM     28  H   UNL     1      -9.266   1.697   0.809  0.00  0.00    +0.146 HD
ENDBRANCH  11  22
TORSDOF 2
