REMARK  Name = CHEMBL500804
REMARK  1 active torsions:
REMARK  status: ('A' for Active; 'I' for Inactive)
REMARK    1  A    between atoms: C_3  and  C_4
REMARK                            x       y       z     vdW  Elec       q    Type
REMARK                         _______ _______ _______ _____ _____    ______ ____
ROOT
ATOM      1  C   UNL     1      -0.378  -0.712   1.277  0.00  0.00    +0.221 C 
ATOM      2  O   UNL     1      -0.685  -0.070   2.259  0.00  0.00    -0.275 OA
ATOM      3  N   UNL     1      -0.377  -2.059   1.326  0.00  0.00    -0.272 N 
ATOM      4  C   UNL     1      -0.727  -2.711   2.500  0.00  0.00    +0.132 C 
ATOM      5  N   UNL     1      -1.085  -2.166   3.634  0.00  0.00    -0.171 NA
ATOM      6  N   UNL     1      -1.370  -3.160   4.598  0.00  0.00    -0.239 N 
ATOM      7  C   UNL     1      -1.806  -4.258   3.886  0.00  0.00    +0.040 C 
ATOM      8  C   UNL     1      -2.550  -5.315   3.608  0.00  0.00    +0.021 C 
ATOM      9  C   UNL     1      -2.439  -5.647   2.185  0.00  0.00    -0.002 C 
ATOM     10  C   UNL     1      -1.417  -4.985   1.635  0.00  0.00    -0.010 C 
ATOM     11  C   UNL     1      -0.782  -4.202   2.739  0.00  0.00    +0.123 C 
ATOM     12  H   UNL     1      -0.131  -2.573   0.540  0.00  0.00    +0.156 HD
ATOM     13  H   UNL     1      -1.278  -3.085   5.561  0.00  0.00    +0.174 HD
ENDROOT
BRANCH   1  16
ATOM     14  C   UNL     1      -0.019   1.526   0.010  0.00  0.00    +0.013 C 
ATOM     15  C   UNL     1       1.317   0.779  -0.006  0.00  0.00    +0.013 C 
ATOM     16  C   UNL     1       0.002  -0.004   0.002  0.00  0.00    +0.075 C 
ENDBRANCH   1  16
TORSDOF 1
