REMARK  Name = CHEMBL326501
REMARK  4 active torsions:
REMARK  status: ('A' for Active; 'I' for Inactive)
REMARK    1  A    between atoms: C_10  and  C_11
REMARK    2  A    between atoms: C_11  and  C_12
REMARK    3  A    between atoms: N_14  and  C_15
REMARK    4  A    between atoms: C_17  and  C_21
REMARK                            x       y       z     vdW  Elec       q    Type
REMARK                         _______ _______ _______ _____ _____    ______ ____
ROOT
ATOM      1  C   UNL     1       5.341   0.519   1.367  0.00  0.00    +0.223 C 
ATOM      2  O   UNL     1       4.633   0.178   2.291  0.00  0.00    -0.275 OA
ATOM      3  N   UNL     1       6.469   1.218   1.605  0.00  0.00    -0.270 N 
ATOM      4  H   UNL     1       7.035   1.490   0.866  0.00  0.00    +0.156 HD
ENDROOT
BRANCH   3   5
ATOM      5  C   UNL     1       6.822   1.549   2.913  0.00  0.00    +0.120 A 
ATOM      6  C   UNL     1       6.125   1.233   4.038  0.00  0.00    +0.068 A 
ATOM      7  C   UNL     1       6.822   1.751   5.133  0.00  0.00    +0.068 A 
ATOM      8  N   UNL     1       7.895   2.354   4.690  0.00  0.00    -0.177 NA
ATOM      9  H   UNL     1       8.607   2.590   2.705  0.00  0.00    +0.190 HD
ATOM     10  N   UNL     1       7.922   2.237   3.294  0.00  0.00    -0.264 N 
BRANCH   7  11
ATOM     11  C   UNL     1       6.409   1.635   6.578  0.00  0.00    +0.040 C 
ATOM     12  C   UNL     1       4.959   1.240   6.868  0.00  0.00    +0.010 C 
ATOM     13  C   UNL     1       5.426   2.675   7.117  0.00  0.00    +0.010 C 
ENDBRANCH   7  11
ENDBRANCH   3   5
BRANCH   1  14
ATOM     14  C   UNL     1       4.960   0.161  -0.046  0.00  0.00    +0.131 C 
BRANCH  14  24
ATOM     15  C   UNL     1      -0.016   1.357   0.009  0.00  0.00    +0.001 A 
ATOM     16  C   UNL     1       1.169   2.091   0.002  0.00  0.00    +0.001 A 
ATOM     17  C   UNL     1       2.378   1.468  -0.013  0.00  0.00    +0.009 A 
ATOM     18  C   UNL     1       2.438   0.064  -0.021  0.00  0.00    -0.014 A 
ATOM     19  C   UNL     1       1.233  -0.683  -0.013  0.00  0.00    -0.018 A 
ATOM     20  C   UNL     1       0.002  -0.004   0.002  0.00  0.00    +0.008 A 
ATOM     21  C   UNL     1       1.292  -2.087  -0.021  0.00  0.00    +0.008 A 
ATOM     22  C   UNL     1       2.502  -2.709  -0.036  0.00  0.00    +0.001 A 
ATOM     23  C   UNL     1       3.687  -1.976  -0.043  0.00  0.00    +0.005 A 
ATOM     24  C   UNL     1       3.668  -0.615  -0.037  0.00  0.00    -0.031 A 
ENDBRANCH  14  24
ENDBRANCH   1  14
TORSDOF 4
