REMARK  Name = CHEMBL488257
REMARK  6 active torsions:
REMARK  status: ('A' for Active; 'I' for Inactive)
REMARK    1  A    between atoms: C_1  and  C_2
REMARK    2  A    between atoms: C_5  and  C_12
REMARK    3  A    between atoms: N_6  and  C_7
REMARK    4  A    between atoms: N_18  and  C_19
REMARK    5  A    between atoms: C_22  and  C_25
REMARK    6  A    between atoms: N_27  and  C_28
REMARK                            x       y       z     vdW  Elec       q    Type
REMARK                         _______ _______ _______ _____ _____    ______ ____
ROOT
ATOM      1  C   UNL     1       0.829  -3.314   1.316  0.00  0.00    +0.094 A 
ATOM      2  C   UNL     1       1.220  -3.191   2.655  0.00  0.00    +0.050 A 
ATOM      3  C   UNL     1       1.868  -4.255   3.252  0.00  0.00    +0.116 A 
ATOM      4  N   UNL     1       2.099  -5.352   2.547  0.00  0.00    -0.223 NA
ATOM      5  C   UNL     1       1.718  -5.443   1.281  0.00  0.00    +0.220 A 
ATOM      6  N   UNL     1       1.090  -4.451   0.670  0.00  0.00    -0.213 NA
ATOM      7  N   UNL     1       1.980  -6.610   0.580  0.00  0.00    -0.284 N 
ATOM      8  H   UNL     1       1.776  -6.663  -0.367  0.00  0.00    +0.155 HD
ENDROOT
BRANCH   1  13
ATOM      9  C   UNL     1      -1.124   1.208   0.251  0.00  0.00    +0.086 C 
ATOM     10  C   UNL     1      -0.720  -0.242   0.162  0.00  0.00    +0.107 A 
ATOM     11  N   UNL     1      -0.984  -1.043  -0.836  0.00  0.00    -0.240 NA
ATOM     12  C   UNL     1      -0.478  -2.254  -0.584  0.00  0.00    +0.140 A 
ATOM     13  C   UNL     1       0.134  -2.206   0.632  0.00  0.00    +0.088 A 
ATOM     14  N   UNL     1      -0.022  -0.918   1.097  0.00  0.00    -0.323 N 
BRANCH  14  15
ATOM     15  C   UNL     1       0.473  -0.386   2.368  0.00  0.00    +0.089 C 
ATOM     16  C   UNL     1       0.299   1.147   2.403  0.00  0.00    +0.025 C 
ATOM     17  C   UNL     1       1.560   1.656   3.144  0.00  0.00    +0.002 C 
ATOM     18  C   UNL     1       2.671   0.717   2.614  0.00  0.00    +0.002 C 
ATOM     19  C   UNL     1       1.982  -0.659   2.502  0.00  0.00    +0.025 C 
ENDBRANCH  14  15
ENDBRANCH   1  13
BRANCH   7  20
ATOM     20  C   UNL     1       2.534  -7.706   1.235  0.00  0.00    +0.034 A 
ATOM     21  C   UNL     1       3.493  -8.486   0.594  0.00  0.00    +0.024 A 
ATOM     22  C   UNL     1       4.043  -9.570   1.238  0.00  0.00    +0.015 A 
ATOM     23  C   UNL     1       3.638  -9.889   2.538  0.00  0.00    +0.037 A 
ATOM     24  C   UNL     1       2.675  -9.104   3.179  0.00  0.00    +0.015 A 
ATOM     25  C   UNL     1       2.133  -8.017   2.531  0.00  0.00    +0.024 A 
BRANCH  23  26
ATOM     26  C   UNL     1       4.225 -11.051   3.231  0.00  0.00    +0.244 C 
ATOM     27  O   UNL     1       5.062 -11.733   2.673  0.00  0.00    -0.270 OA
ATOM     28  N   UNL     1       3.833 -11.357   4.484  0.00  0.00    -0.314 N 
ATOM     29  C   UNL     1       4.416 -12.511   5.173  0.00  0.00    +0.128 C 
ATOM     30  H   UNL     1       3.166 -10.813   4.930  0.00  0.00    +0.149 HD
ENDBRANCH  23  26
ENDBRANCH   7  20
TORSDOF 4
