REMARK  Name = CHEMBL343151
REMARK  5 active torsions:
REMARK  status: ('A' for Active; 'I' for Inactive)
REMARK    1  A    between atoms: C_9  and  N_14
REMARK    2  A    between atoms: C_10  and  O_13
REMARK    3  A    between atoms: N_15  and  C_16
REMARK    4  A    between atoms: C_19  and  S_22
REMARK    5  A    between atoms: S_22  and  N_25
REMARK                            x       y       z     vdW  Elec       q    Type
REMARK                         _______ _______ _______ _____ _____    ______ ____
ROOT
ATOM      1  C   UNL     1      -0.017   1.387   0.010  0.00  0.00    +0.020 A 
ATOM      2  C   UNL     1       1.161   2.084   0.002  0.00  0.00    +0.012 A 
ATOM      3  C   UNL     1       2.360   1.359  -0.013  0.00  0.00    +0.012 A 
ATOM      4  C   UNL     1       2.310  -0.058  -0.020  0.00  0.00    +0.072 A 
ATOM      5  C   UNL     1       3.514  -0.787  -0.036  0.00  0.00    +0.030 A 
ATOM      6  C   UNL     1       4.716  -0.158  -0.045  0.00  0.00    +0.028 A 
ATOM      7  C   UNL     1       4.818   1.238  -0.038  0.00  0.00    +0.052 A 
ATOM      8  C   UNL     1       3.658   2.017  -0.022  0.00  0.00    +0.040 A 
ATOM      9  C   UNL     1       4.098   3.418  -0.019  0.00  0.00    +0.155 A 
ATOM     10  C   UNL     1       5.486   3.389  -0.033  0.00  0.00    +0.219 A 
ATOM     11  N   UNL     1       5.903   2.096  -0.044  0.00  0.00    -0.324 N 
ATOM     12  H   UNL     1       6.831   1.815  -0.055  0.00  0.00    +0.169 HD
ATOM     13  N   UNL     1       1.127  -0.679  -0.013  0.00  0.00    -0.255 NA
ATOM     14  C   UNL     1       0.002  -0.004   0.002  0.00  0.00    +0.111 A 
ENDROOT
BRANCH  10  15
ATOM     15  O   UNL     1       6.294   4.474  -0.036  0.00  0.00    -0.492 OA
ATOM     16  H   UNL     1       6.538   4.785   0.846  0.00  0.00    +0.294 HD
ENDBRANCH  10  15
BRANCH   9  17
ATOM     17  N   UNL     1       3.310   4.515  -0.006  0.00  0.00    -0.143 NA
ATOM     18  N   UNL     1       3.841   5.691  -0.005  0.00  0.00    -0.149 NA
BRANCH  18  19
ATOM     19  C   UNL     1       3.043   6.802   0.008  0.00  0.00    +0.086 A 
ATOM     20  C   UNL     1       1.653   6.667   0.027  0.00  0.00    +0.031 A 
ATOM     21  C   UNL     1       0.854   7.792   0.040  0.00  0.00    +0.030 A 
ATOM     22  C   UNL     1       1.428   9.051   0.035  0.00  0.00    +0.105 A 
ATOM     23  C   UNL     1       2.804   9.192   0.017  0.00  0.00    +0.030 A 
ATOM     24  C   UNL     1       3.615   8.077   0.010  0.00  0.00    +0.031 A 
BRANCH  22  25
ATOM     25  S   UNL     1       0.400  10.482   0.052  0.00  0.00    +0.056 S 
ATOM     26  O   UNL     1       1.167  11.540  -0.506  0.00  0.00    -0.153 OA
ATOM     27  O   UNL     1      -0.856  10.087  -0.484  0.00  0.00    -0.153 OA
BRANCH  25  28
ATOM     28  N   UNL     1       0.135  10.876   1.638  0.00  0.00    -0.204 NA
ATOM     29  H   UNL     1       0.528  10.339   2.344  0.00  0.00    +0.144 HD
ATOM     30  H   UNL     1      -0.414  11.644   1.862  0.00  0.00    +0.144 HD
ENDBRANCH  25  28
ENDBRANCH  22  25
ENDBRANCH  18  19
ENDBRANCH   9  17
TORSDOF 5
