REMARK  Name = CHEMBL560839
REMARK  7 active torsions:
REMARK  status: ('A' for Active; 'I' for Inactive)
REMARK    1  A    between atoms: C_1  and  C_2
REMARK    2  A    between atoms: C_2  and  C_33
REMARK    3  A    between atoms: C_12  and  C_16
REMARK    4  A    between atoms: N_14  and  C_15
REMARK    5  A    between atoms: N_18  and  C_19
REMARK    6  A    between atoms: N_20  and  C_21
REMARK    7  A    between atoms: C_25  and  N_27
REMARK                            x       y       z     vdW  Elec       q    Type
REMARK                         _______ _______ _______ _____ _____    ______ ____
ROOT
ATOM      1  C   UNL     1      -0.477   1.193   2.046  0.00  0.00    +0.016 C 
ATOM      2  C   UNL     1      -0.371  -0.294   1.703  0.00  0.00    -0.001 C 
ATOM      3  C   UNL     1      -0.123  -0.453   0.202  0.00  0.00    +0.050 C 
ATOM      4  C   UNL     1       0.331  -1.837  -0.159  0.00  0.00    -0.001 A 
ATOM      5  C   UNL     1      -0.050  -2.418  -1.355  0.00  0.00    +0.120 A 
ATOM      6  N   UNL     1       0.392  -3.630  -1.651  0.00  0.00    -0.222 NA
ATOM      7  C   UNL     1       1.192  -4.295  -0.830  0.00  0.00    +0.220 A 
ATOM      8  N   UNL     1       1.576  -3.782   0.332  0.00  0.00    -0.212 NA
ATOM      9  C   UNL     1       1.157  -2.580   0.697  0.00  0.00    +0.097 A 
ATOM     10  C   UNL     1       1.482  -1.985   2.005  0.00  0.00    +0.092 A 
ATOM     11  C   UNL     1       0.765  -0.904   2.471  0.00  0.00    +0.018 A 
ATOM     12  C   UNL     1       1.327  -0.585   3.708  0.00  0.00    +0.151 A 
ATOM     13  N   UNL     1       2.294  -1.462   3.934  0.00  0.00    -0.166 NA
ATOM     14  N   UNL     1       2.387  -2.296   2.953  0.00  0.00    -0.264 N 
ATOM     15  C   UNL     1       3.333  -3.412   2.881  0.00  0.00    +0.173 C 
ATOM     16  N   UNL     1       1.640  -5.554  -1.194  0.00  0.00    -0.284 N 
ATOM     17  C   UNL     1      -1.676  -0.998   2.079  0.00  0.00    +0.016 C 
ATOM     18  H   UNL     1       2.161  -6.083  -0.569  0.00  0.00    +0.155 HD
ENDROOT
BRANCH  16  19
ATOM     19  C   UNL     1       1.339  -6.064  -2.460  0.00  0.00    +0.035 A 
ATOM     20  C   UNL     1       1.220  -5.205  -3.546  0.00  0.00    +0.023 A 
ATOM     21  C   UNL     1       0.923  -5.708  -4.798  0.00  0.00    +0.004 A 
ATOM     22  C   UNL     1       0.743  -7.066  -4.975  0.00  0.00    +0.023 A 
ATOM     23  C   UNL     1       0.860  -7.931  -3.893  0.00  0.00    +0.032 A 
ATOM     24  C   UNL     1       1.165  -7.430  -2.636  0.00  0.00    +0.046 A 
BRANCH  23  25
ATOM     25  N   UNL     1       0.677  -9.304  -4.073  0.00  0.00    -0.325 N 
ATOM     26  C   UNL     1       0.667 -10.224  -2.925  0.00  0.00    +0.133 C 
ATOM     27  C   UNL     1      -0.584 -11.104  -3.021  0.00  0.00    +0.178 C 
ATOM     28  O   UNL     1      -0.638 -11.706  -4.317  0.00  0.00    -0.377 OA
ATOM     29  C   UNL     1      -0.754 -10.771  -5.392  0.00  0.00    +0.178 C 
ATOM     30  C   UNL     1       0.483  -9.873  -5.417  0.00  0.00    +0.133 C 
ENDBRANCH  23  25
ENDBRANCH  16  19
BRANCH  12  31
ATOM     31  C   UNL     1       0.921   0.523   4.597  0.00  0.00    +0.264 C 
ATOM     32  O   UNL     1      -0.109   0.443   5.237  0.00  0.00    -0.268 OA
ATOM     33  N   UNL     1       1.694   1.623   4.700  0.00  0.00    -0.313 N 
ATOM     34  C   UNL     1       1.292   2.721   5.582  0.00  0.00    +0.128 C 
ATOM     35  H   UNL     1       2.517   1.686   4.190  0.00  0.00    +0.149 HD
ENDBRANCH  12  31
TORSDOF 3
