REMARK  Name = CHEMBL497564
REMARK  3 active torsions:
REMARK  status: ('A' for Active; 'I' for Inactive)
REMARK    1  A    between atoms: C_3  and  C_23
REMARK    2  A    between atoms: C_5  and  N_7
REMARK    3  A    between atoms: C_12  and  C_14
REMARK                            x       y       z     vdW  Elec       q    Type
REMARK                         _______ _______ _______ _____ _____    ______ ____
ROOT
ATOM      1  N   UNL     1       1.228  -2.084  -0.021  0.00  0.00    -0.284 N 
ATOM      2  C   UNL     1       0.042  -2.791   0.091  0.00  0.00    +0.220 A 
ATOM      3  N   UNL     1      -1.106  -2.127   0.100  0.00  0.00    -0.223 NA
ATOM      4  C   UNL     1      -2.262  -2.765   0.206  0.00  0.00    +0.116 A 
ATOM      5  C   UNL     1      -2.268  -4.143   0.309  0.00  0.00    +0.048 A 
ATOM      6  C   UNL     1      -1.041  -4.818   0.297  0.00  0.00    +0.080 A 
ATOM      7  N   UNL     1       0.083  -4.110   0.182  0.00  0.00    -0.214 NA
ATOM      8  H   UNL     1       2.069  -2.560  -0.114  0.00  0.00    +0.155 HD
ENDROOT
BRANCH   6   9
ATOM      9  C   UNL     1      -0.994  -6.290   0.405  0.00  0.00    +0.047 A 
ATOM     10  C   UNL     1      -2.090  -7.151   0.519  0.00  0.00    +0.147 A 
ATOM     11  N   UNL     1      -1.654  -8.387   0.591  0.00  0.00    -0.156 NA
ATOM     12  N   UNL     1      -0.256  -8.391   0.528  0.00  0.00    -0.150 N 
ATOM     13  C   UNL     1       0.160  -7.090   0.406  0.00  0.00    +0.097 A 
ATOM     14  C   UNL     1       1.528  -6.806   0.316  0.00  0.00    +0.032 A 
ATOM     15  C   UNL     1       2.423  -7.836   0.348  0.00  0.00    +0.024 A 
ATOM     16  C   UNL     1       1.969  -9.153   0.469  0.00  0.00    +0.135 A 
ATOM     17  N   UNL     1       0.692  -9.420   0.561  0.00  0.00    -0.157 NA
ENDBRANCH   6   9
BRANCH   1  22
ATOM     18  C   UNL     1       2.126   1.410  -0.740  0.00  0.00    +0.002 A 
ATOM     19  C   UNL     1       1.199   2.088   0.026  0.00  0.00    +0.010 A 
ATOM     20  C   UNL     1       0.271   1.380   0.787  0.00  0.00    +0.005 A 
ATOM     21  C   UNL     1       0.281  -0.013   0.771  0.00  0.00    +0.033 A 
ATOM     22  C   UNL     1       1.214  -0.686  -0.002  0.00  0.00    +0.034 A 
ATOM     23  C   UNL     1       2.137   0.029  -0.757  0.00  0.00    +0.023 A 
BRANCH  20  24
ATOM     24  C   UNL     1      -0.725   2.107   1.612  0.00  0.00    +0.109 A 
ATOM     25  C   UNL     1      -0.913   3.449   1.646  0.00  0.00    +0.225 A 
ATOM     26  O   UNL     1      -1.909   3.684   2.521  0.00  0.00    -0.450 OA
ATOM     27  C   UNL     1      -2.317   2.505   3.010  0.00  0.00    +0.308 A 
ATOM     28  N   UNL     1      -1.616   1.554   2.465  0.00  0.00    -0.216 NA
ENDBRANCH  20  24
ENDBRANCH   1  22
TORSDOF 3
