REMARK  Name = CHEMBL301515
REMARK  4 active torsions:
REMARK  status: ('A' for Active; 'I' for Inactive)
REMARK    1  A    between atoms: C_1  and  N_2
REMARK    2  A    between atoms: C_4  and  C_11
REMARK    3  A    between atoms: C_12  and  C_18
REMARK    4  A    between atoms: N_20  and  C_27
REMARK                            x       y       z     vdW  Elec       q    Type
REMARK                         _______ _______ _______ _____ _____    ______ ____
ROOT
ATOM      1  C   UNL     1       0.039  -3.248  -1.685  0.00  0.00    +0.059 C 
ATOM      2  C   UNL     1       1.116  -3.713  -2.429  0.00  0.00    +0.059 C 
ATOM      3  C   UNL     1       0.620  -4.885  -3.180  0.00  0.00    +0.252 C 
ATOM      4  O   UNL     1       1.273  -5.565  -3.945  0.00  0.00    -0.270 OA
ATOM      5  N   UNL     1      -0.675  -5.073  -2.874  0.00  0.00    -0.248 N 
ATOM      6  C   UNL     1      -1.091  -4.149  -1.992  0.00  0.00    +0.252 C 
ATOM      7  O   UNL     1      -2.211  -4.066  -1.527  0.00  0.00    -0.270 OA
ATOM      8  H   UNL     1      -1.232  -5.780  -3.237  0.00  0.00    +0.158 HD
ENDROOT
BRANCH   1  12
ATOM      9  C   UNL     1      -0.018   1.461   0.010  0.00  0.00    +0.149 C 
ATOM     10  N   UNL     1       0.002  -0.004   0.002  0.00  0.00    -0.349 N 
ATOM     11  C   UNL     1       0.008  -0.776  -1.119  0.00  0.00    +0.095 A 
ATOM     12  C   UNL     1       0.027  -2.094  -0.770  0.00  0.00    +0.013 A 
ATOM     13  C   UNL     1       0.034  -2.137   0.703  0.00  0.00    +0.008 A 
ATOM     14  C   UNL     1       0.024  -0.798   1.130  0.00  0.00    +0.049 A 
ATOM     15  C   UNL     1       0.033  -0.516   2.492  0.00  0.00    +0.026 A 
ATOM     16  C   UNL     1       0.055  -1.546   3.407  0.00  0.00    +0.002 A 
ATOM     17  C   UNL     1       0.070  -2.868   2.985  0.00  0.00    +0.001 A 
ATOM     18  C   UNL     1       0.051  -3.168   1.640  0.00  0.00    +0.010 A 
ENDBRANCH   1  12
BRANCH   2  19
ATOM     19  C   UNL     1       2.477  -3.151  -2.464  0.00  0.00    +0.013 A 
ATOM     20  C   UNL     1       3.435  -3.275  -1.502  0.00  0.00    +0.095 A 
ATOM     21  N   UNL     1       4.563  -2.619  -1.891  0.00  0.00    -0.349 N 
ATOM     22  C   UNL     1       4.377  -2.041  -3.130  0.00  0.00    +0.049 A 
ATOM     23  C   UNL     1       3.072  -2.350  -3.548  0.00  0.00    +0.008 A 
ATOM     24  C   UNL     1       2.608  -1.895  -4.780  0.00  0.00    +0.010 A 
ATOM     25  C   UNL     1       3.437  -1.145  -5.587  0.00  0.00    +0.001 A 
ATOM     26  C   UNL     1       4.727  -0.843  -5.177  0.00  0.00    +0.002 A 
ATOM     27  C   UNL     1       5.196  -1.279  -3.956  0.00  0.00    +0.026 A 
ATOM     28  C   UNL     1       5.798  -2.539  -1.107  0.00  0.00    +0.149 C 
ENDBRANCH   2  19
TORSDOF 2
