REMARK  Name = CHEMBL363283
REMARK  2 active torsions:
REMARK  status: ('A' for Active; 'I' for Inactive)
REMARK    1  A    between atoms: C_9  and  N_11
REMARK    2  A    between atoms: C_18  and  C_20
REMARK                            x       y       z     vdW  Elec       q    Type
REMARK                         _______ _______ _______ _____ _____    ______ ____
ROOT
ATOM      1  N   UNL     1      -1.153  -2.122  -0.003  0.00  0.00    -0.267 N 
ATOM      2  C   UNL     1       0.022  -2.773  -0.114  0.00  0.00    +0.310 C 
ATOM      3  O   UNL     1       1.066  -2.148  -0.116  0.00  0.00    -0.252 OA
ATOM      4  N   UNL     1       0.041  -4.116  -0.223  0.00  0.00    -0.248 N 
ATOM      5  C   UNL     1       1.252  -4.787  -0.337  0.00  0.00    +0.166 A 
ATOM      6  N   UNL     1       2.468  -4.284  -0.351  0.00  0.00    -0.233 NA
ATOM      7  C   UNL     1       3.527  -5.063  -0.466  0.00  0.00    +0.124 A 
ATOM      8  C   UNL     1       3.304  -6.396  -0.569  0.00  0.00    +0.014 A 
ATOM      9  S   UNL     1       1.521  -6.442  -0.482  0.00  0.00    -0.057 S 
ATOM     10  H   UNL     1      -1.979  -2.623   0.080  0.00  0.00    +0.156 HD
ATOM     11  H   UNL     1      -0.791  -4.614  -0.221  0.00  0.00    +0.158 HD
ENDROOT
BRANCH   1  20
ATOM     12  C   UNL     1      -0.184   1.380  -0.626  0.00  0.00    +0.003 A 
ATOM     13  C   UNL     1      -1.206   2.066  -0.038  0.00  0.00    +0.011 A 
ATOM     14  C   UNL     1      -2.251   1.369   0.584  0.00  0.00    +0.021 A 
ATOM     15  C   UNL     1      -3.425   1.775   1.266  0.00  0.00    +0.142 A 
ATOM     16  N   UNL     1      -4.067   0.713   1.659  0.00  0.00    -0.181 NA
ATOM     17  H   UNL     1      -3.635  -1.351   1.438  0.00  0.00    +0.189 HD
ATOM     18  N   UNL     1      -3.367  -0.435   1.266  0.00  0.00    -0.275 N 
ATOM     19  C   UNL     1      -2.237  -0.037   0.598  0.00  0.00    +0.087 A 
ATOM     20  C   UNL     1      -1.181  -0.722  -0.009  0.00  0.00    +0.060 A 
ATOM     21  C   UNL     1      -0.164  -0.009  -0.616  0.00  0.00    +0.025 A 
ENDBRANCH   1  20
BRANCH   8  22
ATOM     22  C   UNL     1       4.289  -7.528  -0.711  0.00  0.00    +0.027 C 
ATOM     23  C   UNL     1       3.807  -8.650  -1.645  0.00  0.00    +0.009 C 
ATOM     24  C   UNL     1       4.415  -9.642  -0.638  0.00  0.00    +0.001 C 
ATOM     25  C   UNL     1       4.216  -8.555   0.431  0.00  0.00    +0.009 C 
ENDBRANCH   8  22
TORSDOF 2
