REMARK  Name = CHEMBL1077107
REMARK  9 active torsions:
REMARK  status: ('A' for Active; 'I' for Inactive)
REMARK    1  A    between atoms: C_1  and  C_2
REMARK    2  A    between atoms: C_3  and  C_30
REMARK    3  A    between atoms: C_4  and  C_22
REMARK    4  A    between atoms: N_8  and  N_9
REMARK    5  A    between atoms: C_13  and  C_14
REMARK    6  A    between atoms: C_25  and  O_29
REMARK    7  A    between atoms: C_27  and  O_28
REMARK    8  A    between atoms: N_32  and  C_33
REMARK    9  A    between atoms: C_37  and  N_39
REMARK                            x       y       z     vdW  Elec       q    Type
REMARK                         _______ _______ _______ _____ _____    ______ ____
ROOT
ATOM      1  C   UNL     1      -0.938   1.144  -0.174  0.00  0.00    +0.061 C 
ATOM      2  C   UNL     1      -0.537  -0.211  -0.696  0.00  0.00    +0.018 C 
ATOM      3  C   UNL     1      -1.464  -0.992  -1.275  0.00  0.00    +0.056 C 
ATOM      4  C   UNL     1      -1.135  -2.371  -1.786  0.00  0.00    +0.144 C 
ATOM      5  N   UNL     1       0.327  -2.516  -1.873  0.00  0.00    -0.305 N 
ATOM      6  C   UNL     1       1.066  -1.941  -0.852  0.00  0.00    +0.202 C 
ATOM      7  N   UNL     1       0.767  -0.618  -0.574  0.00  0.00    -0.290 N 
ATOM      8  N   UNL     1       1.992  -2.608  -0.193  0.00  0.00    -0.139 NA
ATOM      9  H   UNL     1       1.460   0.003  -0.297  0.00  0.00    +0.155 HD
ATOM     10  H   UNL     1       0.750  -2.989  -2.607  0.00  0.00    +0.150 HD
ENDROOT
BRANCH   8  11
ATOM     11  N   UNL     1       2.766  -1.959   0.777  0.00  0.00    -0.139 N 
ATOM     12  C   UNL     1       2.213  -1.514   1.896  0.00  0.00    +0.278 C 
ATOM     13  O   UNL     1       1.024  -1.650   2.121  0.00  0.00    -0.267 OA
ATOM     14  C   UNL     1       3.115  -0.845   2.855  0.00  0.00    +0.082 C 
ATOM     15  C   UNL     1       2.808  -0.281   4.107  0.00  0.00    +0.066 C 
ATOM     16  S   UNL     1       4.602  -0.927   2.073  0.00  0.00    -0.059 S 
ATOM     17  C   UNL     1       4.091  -1.780   0.594  0.00  0.00    +0.142 C 
ATOM     18  S   UNL     1       5.051  -2.258  -0.740  0.00  0.00    -0.025 S 
BRANCH  15  19
ATOM     19  C   UNL     1       1.548  -0.464   4.660  0.00  0.00    +0.129 A 
ATOM     20  C   UNL     1       1.054   0.152   5.833  0.00  0.00    +0.049 A 
ATOM     21  C   UNL     1      -0.236  -0.316   6.008  0.00  0.00    +0.042 A 
ATOM     22  C   UNL     1      -0.502  -1.187   4.968  0.00  0.00    +0.195 A 
ATOM     23  O   UNL     1       0.570  -1.259   4.172  0.00  0.00    -0.463 OA
ENDBRANCH  15  19
ENDBRANCH   8  11
BRANCH   4  24
ATOM     24  C   UNL     1      -1.689  -3.404  -0.838  0.00  0.00    +0.019 A 
ATOM     25  C   UNL     1      -2.015  -3.049   0.457  0.00  0.00    +0.013 A 
ATOM     26  C   UNL     1      -2.522  -3.993   1.328  0.00  0.00    +0.046 A 
ATOM     27  C   UNL     1      -2.705  -5.302   0.904  0.00  0.00    +0.120 A 
ATOM     28  C   UNL     1      -2.379  -5.661  -0.395  0.00  0.00    +0.091 A 
ATOM     29  C   UNL     1      -1.875  -4.710  -1.268  0.00  0.00    +0.126 A 
BRANCH  29  30
ATOM     30  O   UNL     1      -1.560  -5.057  -2.544  0.00  0.00    -0.506 OA
ATOM     31  H   UNL     1      -0.648  -5.360  -2.655  0.00  0.00    +0.292 HD
ENDBRANCH  29  30
BRANCH  27  32
ATOM     32  O   UNL     1      -3.204  -6.231   1.761  0.00  0.00    -0.507 OA
ATOM     33  H   UNL     1      -4.168  -6.301   1.748  0.00  0.00    +0.292 HD
ENDBRANCH  27  32
ENDBRANCH   4  24
BRANCH   3  34
ATOM     34  C   UNL     1      -2.787  -0.505  -1.410  0.00  0.00    +0.248 C 
ATOM     35  O   UNL     1      -3.048   0.643  -1.099  0.00  0.00    -0.270 OA
ATOM     36  N   UNL     1      -3.757  -1.313  -1.881  0.00  0.00    -0.282 N 
ATOM     37  H   UNL     1      -3.570  -2.250  -2.050  0.00  0.00    +0.155 HD
BRANCH  36  38
ATOM     38  C   UNL     1      -5.035  -0.801  -2.128  0.00  0.00    +0.036 A 
ATOM     39  C   UNL     1      -5.186   0.499  -2.594  0.00  0.00    +0.023 A 
ATOM     40  C   UNL     1      -6.449   1.002  -2.837  0.00  0.00    +0.004 A 
ATOM     41  C   UNL     1      -7.563   0.212  -2.617  0.00  0.00    +0.033 A 
ATOM     42  C   UNL     1      -7.416  -1.082  -2.153  0.00  0.00    +0.128 A 
ATOM     43  C   UNL     1      -6.156  -1.593  -1.913  0.00  0.00    +0.056 A 
BRANCH  42  44
ATOM     44  N   UNL     1      -8.612  -1.923  -1.919  0.00  0.00    +0.056 N 
ATOM     45  O   UNL     1      -9.814  -1.439  -2.152  0.00  0.00    -0.126 OA
ATOM     46  O   UNL     1      -8.473  -3.156  -1.477  0.00  0.00    -0.126 OA
ENDBRANCH  42  44
ENDBRANCH  36  38
ENDBRANCH   3  34
TORSDOF 8
