REMARK  Name = CHEMBL126997
REMARK  8 active torsions:
REMARK  status: ('A' for Active; 'I' for Inactive)
REMARK    1  A    between atoms: C_1  and  C_2
REMARK    2  A    between atoms: C_2  and  C_3
REMARK    3  A    between atoms: C_2  and  C_4
REMARK    4  A    between atoms: C_2  and  C_5
REMARK    5  A    between atoms: C_8  and  C_10
REMARK    6  A    between atoms: C_10  and  S_11
REMARK    7  A    between atoms: S_11  and  C_12
REMARK    8  A    between atoms: N_20  and  C_21
REMARK                            x       y       z     vdW  Elec       q    Type
REMARK                         _______ _______ _______ _____ _____    ______ ____
ROOT
ATOM      1  C   UNL     1       3.935  -2.663  -9.380  0.00  0.00    +0.067 A 
ATOM      2  C   UNL     1       4.346  -3.890  -9.802  0.00  0.00    +0.135 A 
ATOM      3  N   UNL     1       3.450  -4.790 -10.165  0.00  0.00    -0.232 NA
ATOM      4  C   UNL     1       2.158  -4.524 -10.129  0.00  0.00    +0.167 A 
ATOM      5  S   UNL     1       2.161  -2.844  -9.519  0.00  0.00    -0.046 S 
ATOM      6  N   UNL     1       1.080  -5.337 -10.470  0.00  0.00    -0.248 N 
ATOM      7  C   UNL     1       1.296  -6.592 -10.910  0.00  0.00    +0.310 C 
ATOM      8  O   UNL     1       2.431  -7.015 -11.009  0.00  0.00    -0.252 OA
ATOM      9  N   UNL     1       0.252  -7.379 -11.240  0.00  0.00    -0.264 N 
ATOM     10  H   UNL     1       0.174  -4.999 -10.392  0.00  0.00    +0.158 HD
ATOM     11  H   UNL     1      -0.655  -7.069 -11.092  0.00  0.00    +0.157 HD
ENDROOT
BRANCH   9  12
ATOM     12  C   UNL     1       0.478  -8.645 -11.798  0.00  0.00    +0.106 A 
ATOM     13  C   UNL     1       0.592  -8.789 -13.176  0.00  0.00    +0.147 A 
ATOM     14  C   UNL     1       0.815 -10.040 -13.723  0.00  0.00    +0.040 A 
ATOM     15  C   UNL     1       0.924 -11.146 -12.901  0.00  0.00    +0.006 A 
ATOM     16  C   UNL     1       0.812 -11.007 -11.530  0.00  0.00    +0.040 A 
ATOM     17  C   UNL     1       0.595  -9.758 -10.975  0.00  0.00    +0.147 A 
ATOM     18  F   UNL     1       0.491  -9.623  -9.635  0.00  0.00    -0.203 F 
ATOM     19  F   UNL     1       0.484  -7.709 -13.980  0.00  0.00    -0.203 F 
ENDBRANCH   9  12
BRANCH   1  20
ATOM     20  S   UNL     1       4.886  -1.281  -8.841  0.00  0.00    -0.107 S 
BRANCH  20  21
ATOM     21  C   UNL     1       3.643  -0.023  -8.437  0.00  0.00    +0.170 C 
BRANCH  21  25
ATOM     22  C   UNL     1       5.248   2.710  -6.662  0.00  0.00    +0.131 A 
ATOM     23  C   UNL     1       5.292   3.153  -7.929  0.00  0.00    +0.156 A 
ATOM     24  N   UNL     1       4.720   2.218  -8.708  0.00  0.00    -0.221 NA
ATOM     25  C   UNL     1       4.332   1.228  -7.956  0.00  0.00    +0.206 A 
ATOM     26  O   UNL     1       4.651   1.502  -6.684  0.00  0.00    -0.443 OA
BRANCH  22  28
ATOM     27  C   UNL     1       5.050   4.767  -5.291  0.00  0.00    +0.019 C 
ATOM     28  C   UNL     1       5.773   3.427  -5.445  0.00  0.00    +0.022 C 
ATOM     29  C   UNL     1       7.274   3.673  -5.606  0.00  0.00    +0.019 C 
ATOM     30  C   UNL     1       5.527   2.570  -4.202  0.00  0.00    +0.019 C 
ENDBRANCH  22  28
ENDBRANCH  21  25
ENDBRANCH  20  21
ENDBRANCH   1  20
TORSDOF 5
