REMARK  Name = CHEMBL149096
REMARK  3 active torsions:
REMARK  status: ('A' for Active; 'I' for Inactive)
REMARK    1  A    between atoms: C_1  and  C_2
REMARK    2  A    between atoms: C_5  and  C_7
REMARK    3  A    between atoms: C_17  and  N_21
REMARK                            x       y       z     vdW  Elec       q    Type
REMARK                         _______ _______ _______ _____ _____    ______ ____
ROOT
ATOM      1  C   UNL     1       1.071  -3.968  -0.021  0.00  0.00    +0.084 A 
ATOM      2  C   UNL     1       2.124  -4.421   0.770  0.00  0.00    +0.076 A 
ATOM      3  C   UNL     1       2.333  -5.830   0.420  0.00  0.00    +0.105 A 
ATOM      4  N   UNL     1       1.455  -6.137  -0.503  0.00  0.00    -0.173 NA
ATOM      5  N   UNL     1       0.665  -5.020  -0.791  0.00  0.00    -0.275 N 
ATOM      6  H   UNL     1      -0.058  -4.996  -1.438  0.00  0.00    +0.189 HD
ATOM      7  C   UNL     1       3.452  -6.335   1.252  0.00  0.00    +0.015 A 
ATOM      8  C   UNL     1       4.057  -7.584   1.326  0.00  0.00    +0.011 A 
ATOM      9  C   UNL     1       5.105  -7.800   2.204  0.00  0.00    +0.002 A 
ATOM     10  C   UNL     1       5.562  -6.781   3.014  0.00  0.00    +0.024 A 
ATOM     11  C   UNL     1       4.973  -5.523   2.958  0.00  0.00    +0.046 A 
ATOM     12  C   UNL     1       3.911  -5.291   2.074  0.00  0.00    +0.053 A 
ATOM     13  C   UNL     1       3.108  -4.082   1.802  0.00  0.00    +0.200 C 
ATOM     14  O   UNL     1       3.240  -2.997   2.339  0.00  0.00    -0.286 OA
ENDROOT
BRANCH  11  15
ATOM     15  N   UNL     1       5.437  -4.497   3.777  0.00  0.00    -0.269 N 
ATOM     16  C   UNL     1       6.703  -4.522   4.237  0.00  0.00    +0.301 C 
ATOM     17  O   UNL     1       7.471  -5.384   3.855  0.00  0.00    -0.253 OA
ATOM     18  N   UNL     1       7.118  -3.592   5.119  0.00  0.00    -0.313 N 
ATOM     19  H   UNL     1       4.848  -3.764   4.016  0.00  0.00    +0.156 HD
ATOM     20  H   UNL     1       6.505  -2.904   5.423  0.00  0.00    +0.146 HD
ATOM     21  H   UNL     1       8.030  -3.610   5.450  0.00  0.00    +0.146 HD
ENDBRANCH  11  15
BRANCH   1  26
ATOM     22  C   UNL     1      -0.013   1.479  -0.035  0.00  0.00    +0.051 C 
ATOM     23  C   UNL     1       0.004  -0.028  -0.029  0.00  0.00    -0.013 A 
ATOM     24  C   UNL     1      -1.055  -0.872  -0.019  0.00  0.00    +0.011 A 
ATOM     25  C   UNL     1      -0.829  -2.229  -0.015  0.00  0.00    +0.018 A 
ATOM     26  C   UNL     1       0.502  -2.617  -0.023  0.00  0.00    +0.038 A 
ATOM     27  S   UNL     1       1.341  -1.044  -0.041  0.00  0.00    -0.092 S 
ENDBRANCH   1  26
TORSDOF 2
