REMARK  Name = CHEMBL390918
REMARK  4 active torsions:
REMARK  status: ('A' for Active; 'I' for Inactive)
REMARK    1  A    between atoms: C_1  and  C_2
REMARK    2  A    between atoms: C_7  and  C_10
REMARK    3  A    between atoms: C_10  and  C_11
REMARK    4  A    between atoms: N_15  and  N_16
REMARK                            x       y       z     vdW  Elec       q    Type
REMARK                         _______ _______ _______ _____ _____    ______ ____
ROOT
ATOM      1  C   UNL     1      -3.133  -5.182  -0.006  0.00  0.00    +0.133 C 
ENDROOT
BRANCH   1   8
ATOM      2  C   UNL     1      -0.018   1.503   0.010  0.00  0.00    +0.109 C 
ATOM      3  C   UNL     1       0.002  -0.004   0.002  0.00  0.00    +0.216 C 
ATOM      4  O   UNL     1       1.060  -0.596  -0.011  0.00  0.00    -0.276 OA
ATOM      5  N   UNL     1      -1.156  -0.694   0.009  0.00  0.00    -0.265 N 
ATOM      6  C   UNL     1      -1.137  -2.084   0.002  0.00  0.00    +0.165 A 
ATOM      7  N   UNL     1      -2.156  -2.915   0.002  0.00  0.00    -0.229 NA
ATOM      8  C   UNL     1      -1.971  -4.222  -0.006  0.00  0.00    +0.058 A 
ATOM      9  C   UNL     1      -0.689  -4.662  -0.014  0.00  0.00    +0.072 A 
ATOM     10  S   UNL     1       0.196  -3.111  -0.017  0.00  0.00    -0.060 S 
ATOM     11  H   UNL     1      -2.002  -0.220   0.020  0.00  0.00    +0.157 HD
ENDBRANCH   1   8
BRANCH   1  12
ATOM     12  C   UNL     1      -4.034  -4.879   1.163  0.00  0.00    +0.155 A 
ATOM     13  N   UNL     1      -3.849  -3.939   2.033  0.00  0.00    -0.157 NA
ATOM     14  N   UNL     1      -4.902  -3.986   2.957  0.00  0.00    -0.253 N 
ATOM     15  C   UNL     1      -5.715  -4.998   2.588  0.00  0.00    +0.193 A 
ATOM     16  N   UNL     1      -5.189  -5.553   1.477  0.00  0.00    -0.229 N 
ATOM     17  S   UNL     1      -7.152  -5.485   3.381  0.00  0.00    -0.010 S 
ATOM     18  H   UNL     1      -5.024  -3.399   3.720  0.00  0.00    +0.191 HD
BRANCH  16  19
ATOM     19  N   UNL     1      -5.714  -6.606   0.784  0.00  0.00    -0.295 N 
ATOM     20  H   UNL     1      -6.569  -6.930   1.212  0.00  0.00    +0.163 HD
ATOM     21  H   UNL     1      -5.863  -6.364  -0.184  0.00  0.00    +0.163 HD
ENDBRANCH  16  19
ENDBRANCH   1  12
TORSDOF 3
