REMARK  Name = CHEMBL346831
REMARK  3 active torsions:
REMARK  status: ('A' for Active; 'I' for Inactive)
REMARK    1  A    between atoms: C_1  and  C_2
REMARK    2  A    between atoms: N_4  and  C_5
REMARK    3  A    between atoms: C_18  and  C_19
REMARK                            x       y       z     vdW  Elec       q    Type
REMARK                         _______ _______ _______ _____ _____    ______ ____
ROOT
ATOM      1  C   UNL     1      -1.192  -2.081  -0.088  0.00  0.00    +0.045 A 
ATOM      2  C   UNL     1      -0.003  -2.816  -0.092  0.00  0.00    +0.024 A 
ATOM      3  C   UNL     1      -0.039  -4.188  -0.188  0.00  0.00    +0.002 A 
ATOM      4  C   UNL     1      -1.253  -4.859  -0.283  0.00  0.00    +0.011 A 
ATOM      5  C   UNL     1      -2.443  -4.149  -0.280  0.00  0.00    +0.013 A 
ATOM      6  C   UNL     1      -2.414  -2.745  -0.176  0.00  0.00    +0.053 A 
ATOM      7  C   UNL     1      -3.816  -2.269  -0.191  0.00  0.00    +0.200 C 
ATOM      8  O   UNL     1      -4.187  -1.114  -0.125  0.00  0.00    -0.286 OA
ATOM      9  C   UNL     1      -4.677  -3.464  -0.304  0.00  0.00    +0.075 A 
ATOM     10  C   UNL     1      -3.859  -4.583  -0.367  0.00  0.00    +0.078 A 
ATOM     11  N   UNL     1      -4.663  -5.663  -0.475  0.00  0.00    -0.276 N 
ATOM     12  H   UNL     1      -4.368  -6.586  -0.527  0.00  0.00    +0.189 HD
ATOM     13  N   UNL     1      -5.993  -5.229  -0.497  0.00  0.00    -0.173 NA
ATOM     14  C   UNL     1      -6.016  -3.917  -0.381  0.00  0.00    +0.104 A 
ENDROOT
BRANCH  14  15
ATOM     15  C   UNL     1      -7.228  -3.064  -0.363  0.00  0.00    +0.006 A 
ATOM     16  C   UNL     1      -7.272  -1.895   0.402  0.00  0.00    +0.030 A 
ATOM     17  C   UNL     1      -8.420  -1.130   0.390  0.00  0.00    +0.111 A 
ATOM     18  N   UNL     1      -9.466  -1.489  -0.331  0.00  0.00    -0.263 NA
ATOM     19  C   UNL     1      -9.466  -2.584  -1.066  0.00  0.00    +0.111 A 
ATOM     20  C   UNL     1      -8.357  -3.404  -1.115  0.00  0.00    +0.030 A 
ENDBRANCH  14  15
BRANCH   1  24
ATOM     21  C   UNL     1      -0.168   1.503  -0.552  0.00  0.00    +0.109 C 
ATOM     22  C   UNL     1      -0.154  -0.004  -0.570  0.00  0.00    +0.214 C 
ATOM     23  O   UNL     1       0.759  -0.595  -1.106  0.00  0.00    -0.276 OA
ATOM     24  N   UNL     1      -1.156  -0.694   0.009  0.00  0.00    -0.285 N 
ATOM     25  H   UNL     1      -1.852  -0.223   0.494  0.00  0.00    +0.155 HD
ENDBRANCH   1  24
TORSDOF 2
