REMARK  Name = CHEMBL1086736
REMARK  5 active torsions:
REMARK  status: ('A' for Active; 'I' for Inactive)
REMARK    1  A    between atoms: C_1  and  O_2
REMARK    2  A    between atoms: O_2  and  C_3
REMARK    3  A    between atoms: C_8  and  C_9
REMARK    4  A    between atoms: N_15  and  N_16
REMARK    5  A    between atoms: N_16  and  C_17
REMARK                            x       y       z     vdW  Elec       q    Type
REMARK                         _______ _______ _______ _____ _____    ______ ____
ROOT
ATOM      1  C   UNL     1      -0.043  -2.861  -0.013  0.00  0.00    +0.126 C 
ATOM      2  N   UNL     1       1.185  -2.415  -0.018  0.00  0.00    -0.177 NA
ATOM      3  N   UNL     1       2.104  -3.463  -0.034  0.00  0.00    -0.201 N 
ATOM      4  C   UNL     1       1.463  -4.649  -0.040  0.00  0.00    +0.285 C 
ATOM      5  O   UNL     1       1.972  -5.756  -0.054  0.00  0.00    -0.267 OA
ATOM      6  C   UNL     1       0.025  -4.337  -0.022  0.00  0.00    +0.172 C 
ATOM      7  N   UNL     1      -0.983  -5.188  -0.017  0.00  0.00    -0.175 NA
ATOM      8  H   UNL     1       3.068  -3.354  -0.039  0.00  0.00    +0.178 HD
ENDROOT
BRANCH   1  14
ATOM      9  C   UNL     1      -1.198  -0.636   0.010  0.00  0.00    +0.132 A 
ATOM     10  C   UNL     1      -2.387   0.086   0.019  0.00  0.00    +0.066 A 
ATOM     11  C   UNL     1      -3.588  -0.593   0.028  0.00  0.00    +0.114 A 
ATOM     12  N   UNL     1      -3.627  -1.912   0.026  0.00  0.00    -0.262 NA
ATOM     13  C   UNL     1      -2.530  -2.643   0.018  0.00  0.00    +0.124 A 
ATOM     14  C   UNL     1      -1.275  -2.038   0.003  0.00  0.00    +0.064 A 
BRANCH   9  16
ATOM     15  C   UNL     1      -0.017   1.425   0.010  0.00  0.00    +0.277 C 
ATOM     16  O   UNL     1       0.002  -0.004   0.002  0.00  0.00    -0.494 OA
ENDBRANCH   9  16
ENDBRANCH   1  14
BRANCH   7  17
ATOM     17  N   UNL     1      -0.754  -6.458  -0.026  0.00  0.00    -0.237 N 
ATOM     18  H   UNL     1       0.158  -6.787  -0.037  0.00  0.00    +0.174 HD
BRANCH  17  19
ATOM     19  C   UNL     1      -1.820  -7.358  -0.021  0.00  0.00    +0.048 A 
ATOM     20  C   UNL     1      -3.128  -6.889  -0.011  0.00  0.00    +0.025 A 
ATOM     21  C   UNL     1      -4.181  -7.784  -0.006  0.00  0.00    +0.002 A 
ATOM     22  C   UNL     1      -3.934  -9.145  -0.009  0.00  0.00    +0.000 A 
ATOM     23  C   UNL     1      -2.633  -9.615  -0.018  0.00  0.00    +0.002 A 
ATOM     24  C   UNL     1      -1.576  -8.727  -0.030  0.00  0.00    +0.025 A 
ENDBRANCH  17  19
ENDBRANCH   7  17
TORSDOF 4
