REMARK  Name = CHEMBL361621
REMARK  7 active torsions:
REMARK  status: ('A' for Active; 'I' for Inactive)
REMARK    1  A    between atoms: C_1  and  C_2
REMARK    2  A    between atoms: C_2  and  C_3
REMARK    3  A    between atoms: C_2  and  C_4
REMARK    4  A    between atoms: C_5  and  O_27
REMARK    5  A    between atoms: N_14  and  C_15
REMARK    6  A    between atoms: C_18  and  N_21
REMARK    7  A    between atoms: O_27  and  C_28
REMARK                            x       y       z     vdW  Elec       q    Type
REMARK                         _______ _______ _______ _____ _____    ______ ____
ROOT
ATOM      1  C   UNL     1      -1.592  -0.142  -0.256  0.00  0.00    +0.023 A 
ATOM      2  C   UNL     1      -2.451   0.195   0.767  0.00  0.00    +0.126 A 
ATOM      3  C   UNL     1      -3.696  -0.432   0.892  0.00  0.00    +0.046 A 
ATOM      4  C   UNL     1      -4.089  -1.388   0.007  0.00  0.00    +0.015 A 
ATOM      5  C   UNL     1      -3.237  -1.753  -1.046  0.00  0.00    +0.019 A 
ATOM      6  C   UNL     1      -1.975  -1.119  -1.184  0.00  0.00    +0.083 A 
ATOM      7  N   UNL     1      -1.179  -1.480  -2.200  0.00  0.00    -0.214 NA
ATOM      8  C   UNL     1      -1.573  -2.404  -3.054  0.00  0.00    +0.220 A 
ATOM      9  N   UNL     1      -2.753  -3.014  -2.958  0.00  0.00    -0.222 NA
ATOM     10  C   UNL     1      -3.597  -2.736  -1.986  0.00  0.00    +0.124 A 
ATOM     11  N   UNL     1      -0.727  -2.753  -4.093  0.00  0.00    -0.284 N 
ATOM     12  H   UNL     1       0.168  -2.381  -4.135  0.00  0.00    +0.155 HD
ENDROOT
BRANCH  11  13
ATOM     13  C   UNL     1      -1.162  -3.642  -5.080  0.00  0.00    +0.034 A 
ATOM     14  C   UNL     1      -2.493  -3.647  -5.475  0.00  0.00    +0.025 A 
ATOM     15  C   UNL     1      -2.920  -4.527  -6.450  0.00  0.00    +0.023 A 
ATOM     16  C   UNL     1      -2.022  -5.403  -7.033  0.00  0.00    +0.014 A 
ATOM     17  C   UNL     1      -0.696  -5.401  -6.642  0.00  0.00    +0.023 A 
ATOM     18  C   UNL     1      -0.262  -4.519  -5.672  0.00  0.00    +0.025 A 
BRANCH  16  19
ATOM     19  N   UNL     1      -2.457  -6.292  -8.020  0.00  0.00    -0.393 NA
ATOM     20  C   UNL     1      -2.222  -7.670  -7.573  0.00  0.00    +0.085 C 
ATOM     21  C   UNL     1      -2.770  -8.649  -8.614  0.00  0.00    +0.017 C 
ATOM     22  C   UNL     1      -2.058  -8.416  -9.950  0.00  0.00    +0.003 C 
ATOM     23  C   UNL     1      -2.248  -6.956 -10.370  0.00  0.00    +0.017 C 
ATOM     24  C   UNL     1      -1.719  -6.040  -9.264  0.00  0.00    +0.085 C 
ATOM     25  H   UNL     1      -3.444  -6.157  -8.182  0.00  0.00    +0.126 HD
ENDBRANCH  16  19
ENDBRANCH  11  13
BRANCH   1  27
ATOM     26  C   UNL     1      -0.462   2.046  -0.550  0.00  0.00    +0.012 C 
ATOM     27  C   UNL     1      -0.254   0.540  -0.379  0.00  0.00    +0.019 C 
ATOM     28  C   UNL     1       0.570   0.279   0.884  0.00  0.00    +0.012 C 
ENDBRANCH   1  27
BRANCH   2  29
ATOM     29  O   UNL     1      -2.086   1.145   1.665  0.00  0.00    -0.495 OA
ATOM     30  C   UNL     1      -3.019   1.450   2.703  0.00  0.00    +0.277 C 
ENDBRANCH   2  29
TORSDOF 4
