REMARK  Name = CHEMBL521871
REMARK  10 active torsions:
REMARK  status: ('A' for Active; 'I' for Inactive)
REMARK    1  A    between atoms: C_1  and  N_2
REMARK    2  A    between atoms: N_2  and  C_3
REMARK    3  A    between atoms: N_2  and  C_4
REMARK    4  A    between atoms: C_4  and  C_5
REMARK    5  A    between atoms: C_5  and  C_6
REMARK    6  A    between atoms: C_5  and  O_36
REMARK    7  A    between atoms: C_6  and  O_7
REMARK    8  A    between atoms: O_7  and  C_8
REMARK    9  A    between atoms: C_11  and  N_14
REMARK   10  A    between atoms: C_19  and  C_21
REMARK                            x       y       z     vdW  Elec       q    Type
REMARK                         _______ _______ _______ _____ _____    ______ ____
ROOT
ATOM      1  N   UNL     1       7.016  -0.312  -7.250  0.00  0.00    -0.284 N 
ATOM      2  C   UNL     1       8.364   0.006  -7.262  0.00  0.00    +0.220 A 
ATOM      3  N   UNL     1       8.895   0.611  -6.209  0.00  0.00    -0.223 NA
ATOM      4  C   UNL     1      10.180   0.932  -6.181  0.00  0.00    +0.116 A 
ATOM      5  C   UNL     1      10.976   0.629  -7.268  0.00  0.00    +0.048 A 
ATOM      6  C   UNL     1      10.390  -0.011  -8.367  0.00  0.00    +0.080 A 
ATOM      7  N   UNL     1       9.091  -0.308  -8.323  0.00  0.00    -0.214 NA
ATOM      8  H   UNL     1       6.632  -0.825  -7.978  0.00  0.00    +0.155 HD
ENDROOT
BRANCH   6   9
ATOM      9  C   UNL     1      11.199  -0.357  -9.554  0.00  0.00    +0.047 A 
ATOM     10  C   UNL     1      12.565  -0.116  -9.728  0.00  0.00    +0.147 A 
ATOM     11  N   UNL     1      12.928  -0.563 -10.908  0.00  0.00    -0.156 NA
ATOM     12  N   UNL     1      11.818  -1.115 -11.556  0.00  0.00    -0.148 N 
ATOM     13  C   UNL     1      10.742  -0.996 -10.719  0.00  0.00    +0.097 A 
ATOM     14  C   UNL     1       9.489  -1.479 -11.121  0.00  0.00    +0.034 A 
ATOM     15  C   UNL     1       9.364  -2.065 -12.345  0.00  0.00    +0.047 A 
ATOM     16  C   UNL     1      10.485  -2.178 -13.185  0.00  0.00    +0.144 A 
ATOM     17  N   UNL     1      11.657  -1.717 -12.810  0.00  0.00    -0.134 NA
ATOM     18  N   UNL     1      10.351  -2.778 -14.433  0.00  0.00    -0.309 N 
ATOM     19  C   UNL     1      11.470  -2.800 -15.387  0.00  0.00    +0.134 C 
ATOM     20  C   UNL     1      11.660  -4.241 -15.877  0.00  0.00    +0.178 C 
ATOM     21  O   UNL     1      10.409  -4.745 -16.353  0.00  0.00    -0.377 OA
ATOM     22  C   UNL     1       9.390  -4.820 -15.353  0.00  0.00    +0.178 C 
ATOM     23  C   UNL     1       9.086  -3.414 -14.835  0.00  0.00    +0.134 C 
ENDBRANCH   6   9
BRANCH   1  27
ATOM     24  C   UNL     1       4.608   0.941  -4.085  0.00  0.00    +0.121 A 
ATOM     25  C   UNL     1       5.660   1.738  -4.513  0.00  0.00    +0.047 A 
ATOM     26  C   UNL     1       6.458   1.323  -5.562  0.00  0.00    +0.027 A 
ATOM     27  C   UNL     1       6.207   0.109  -6.187  0.00  0.00    +0.034 A 
ATOM     28  C   UNL     1       5.154  -0.688  -5.757  0.00  0.00    +0.027 A 
ATOM     29  C   UNL     1       4.361  -0.275  -4.705  0.00  0.00    +0.047 A 
BRANCH  24  30
ATOM     30  O   UNL     1       3.823   1.350  -3.053  0.00  0.00    -0.489 OA
BRANCH  30  31
ATOM     31  C   UNL     1       4.134   2.612  -2.461  0.00  0.00    +0.258 C 
BRANCH  31  32
ATOM     32  C   UNL     1       3.150   2.900  -1.325  0.00  0.00    +0.135 C 
BRANCH  32  33
ATOM     33  O   UNL     1       1.834   3.049  -1.862  0.00  0.00    -0.390 OA
ATOM     34  H   UNL     1       1.749   3.768  -2.502  0.00  0.00    +0.210 HD
ENDBRANCH  32  33
BRANCH  32  35
ATOM     35  C   UNL     1       3.558   4.190  -0.611  0.00  0.00    -0.045 C 
BRANCH  35  37
ATOM     36  C   UNL     1       2.906   3.330   1.531  0.00  0.00    -0.096 C 
ATOM     37  N   UNL     1       2.687   4.403   0.552  0.00  0.00    +0.378 N 
ATOM     38  C   UNL     1       2.999   5.699   1.167  0.00  0.00    -0.096 C 
ATOM     39  H   UNL     1       1.722   4.395   0.255  0.00  0.00    -0.083 HD
ENDBRANCH  35  37
ENDBRANCH  32  35
ENDBRANCH  31  32
ENDBRANCH  30  31
ENDBRANCH  24  30
ENDBRANCH   1  27
TORSDOF 8
