REMARK  Name = CHEMBL60541
REMARK  4 active torsions:
REMARK  status: ('A' for Active; 'I' for Inactive)
REMARK    1  A    between atoms: C_1  and  N_2
REMARK    2  A    between atoms: N_2  and  S_3
REMARK    3  A    between atoms: S_3  and  C_6
REMARK    4  A    between atoms: C_13  and  C_14
REMARK                            x       y       z     vdW  Elec       q    Type
REMARK                         _______ _______ _______ _____ _____    ______ ____
ROOT
ATOM      1  C   UNL     1      -1.704  -0.054  -1.782  0.00  0.00    +0.106 A 
ATOM      2  C   UNL     1      -2.628   0.976  -1.833  0.00  0.00    +0.030 A 
ATOM      3  C   UNL     1      -3.477   1.106  -2.913  0.00  0.00    +0.026 A 
ATOM      4  C   UNL     1      -3.412   0.198  -3.965  0.00  0.00    +0.042 A 
ATOM      5  C   UNL     1      -2.474  -0.842  -3.910  0.00  0.00    +0.010 A 
ATOM      6  C   UNL     1      -1.619  -0.961  -2.819  0.00  0.00    +0.039 A 
ATOM      7  C   UNL     1      -2.646  -1.625  -5.154  0.00  0.00    +0.048 C 
ATOM      8  C   UNL     1      -1.943  -2.747  -5.544  0.00  0.00    +0.039 C 
ATOM      9  C   UNL     1      -3.728  -0.950  -5.884  0.00  0.00    +0.249 C 
ATOM     10  O   UNL     1      -4.179  -1.283  -6.965  0.00  0.00    -0.270 OA
ATOM     11  N   UNL     1      -4.134   0.100  -5.149  0.00  0.00    -0.281 N 
ATOM     12  H   UNL     1      -4.841   0.710  -5.410  0.00  0.00    +0.155 HD
ENDROOT
BRANCH   8  13
ATOM     13  C   UNL     1      -2.130  -3.283  -6.837  0.00  0.00    +0.044 A 
ATOM     14  C   UNL     1      -2.081  -4.606  -7.173  0.00  0.00    -0.006 A 
ATOM     15  C   UNL     1      -2.324  -4.683  -8.574  0.00  0.00    +0.080 A 
ATOM     16  C   UNL     1      -2.513  -3.410  -9.032  0.00  0.00    +0.098 A 
ATOM     17  N   UNL     1      -2.402  -2.562  -7.988  0.00  0.00    -0.360 N 
ATOM     18  H   UNL     1      -2.495  -1.598  -8.037  0.00  0.00    +0.165 HD
ATOM     19  C   UNL     1      -2.330  -5.995  -9.255  0.00  0.00    +0.341 C 
ATOM     20  O   UNL     1      -2.705  -6.143 -10.401  0.00  0.00    -0.245 OA
ATOM     21  O   UNL     1      -1.877  -7.026  -8.482  0.00  0.00    -0.461 OA
ATOM     22  C   UNL     1      -2.347  -7.054  -7.130  0.00  0.00    +0.237 C 
ATOM     23  C   UNL     1      -1.835  -5.839  -6.345  0.00  0.00    +0.079 C 
ENDBRANCH   8  13
BRANCH   1  24
ATOM     24  S   UNL     1      -0.628  -0.202  -0.394  0.00  0.00    +0.058 S 
ATOM     25  O   UNL     1      -0.224  -1.563  -0.337  0.00  0.00    -0.153 OA
ATOM     26  O   UNL     1      -1.275   0.446   0.692  0.00  0.00    -0.153 OA
BRANCH  24  28
ATOM     27  C   UNL     1       0.641   2.136  -0.881  0.00  0.00    +0.127 C 
ATOM     28  N   UNL     1       0.731   0.681  -0.732  0.00  0.00    -0.193 NA
ATOM     29  H   UNL     1       1.587   0.236  -0.830  0.00  0.00    +0.148 HD
ENDBRANCH  24  28
ENDBRANCH   1  24
TORSDOF 3
