REMARK  Name = CHEMBL182498
REMARK  7 active torsions:
REMARK  status: ('A' for Active; 'I' for Inactive)
REMARK    1  A    between atoms: C_1  and  C_2
REMARK    2  A    between atoms: C_2  and  C_3
REMARK    3  A    between atoms: C_2  and  C_4
REMARK    4  A    between atoms: C_5  and  O_28
REMARK    5  A    between atoms: N_14  and  C_15
REMARK    6  A    between atoms: C_18  and  N_22
REMARK    7  A    between atoms: O_28  and  C_29
REMARK                            x       y       z     vdW  Elec       q    Type
REMARK                         _______ _______ _______ _____ _____    ______ ____
ROOT
ATOM      1  C   UNL     1      -1.592  -0.143  -0.256  0.00  0.00    +0.023 A 
ATOM      2  C   UNL     1      -2.451   0.193   0.768  0.00  0.00    +0.126 A 
ATOM      3  C   UNL     1      -3.695  -0.433   0.893  0.00  0.00    +0.046 A 
ATOM      4  C   UNL     1      -4.088  -1.390   0.009  0.00  0.00    +0.015 A 
ATOM      5  C   UNL     1      -3.237  -1.754  -1.045  0.00  0.00    +0.019 A 
ATOM      6  C   UNL     1      -1.974  -1.119  -1.183  0.00  0.00    +0.083 A 
ATOM      7  N   UNL     1      -1.179  -1.480  -2.199  0.00  0.00    -0.214 NA
ATOM      8  C   UNL     1      -1.573  -2.404  -3.054  0.00  0.00    +0.220 A 
ATOM      9  N   UNL     1      -2.753  -3.015  -2.958  0.00  0.00    -0.222 NA
ATOM     10  C   UNL     1      -3.596  -2.737  -1.985  0.00  0.00    +0.124 A 
ATOM     11  N   UNL     1      -0.727  -2.753  -4.092  0.00  0.00    -0.284 N 
ATOM     12  H   UNL     1       0.167  -2.380  -4.135  0.00  0.00    +0.155 HD
ENDROOT
BRANCH  11  13
ATOM     13  C   UNL     1      -1.163  -3.644  -5.082  0.00  0.00    +0.036 A 
ATOM     14  C   UNL     1      -2.495  -3.647  -5.475  0.00  0.00    +0.025 A 
ATOM     15  C   UNL     1      -2.925  -4.525  -6.450  0.00  0.00    +0.028 A 
ATOM     16  C   UNL     1      -2.027  -5.405  -7.038  0.00  0.00    +0.065 A 
ATOM     17  C   UNL     1      -0.693  -5.403  -6.645  0.00  0.00    +0.146 A 
ATOM     18  C   UNL     1      -0.262  -4.519  -5.673  0.00  0.00    +0.063 A 
ATOM     19  F   UNL     1       0.181  -6.259  -7.216  0.00  0.00    -0.203 F 
BRANCH  16  20
ATOM     20  N   UNL     1      -2.464  -6.296  -8.027  0.00  0.00    -0.331 N 
ATOM     21  C   UNL     1      -2.966  -7.633  -7.673  0.00  0.00    +0.086 C 
ATOM     22  C   UNL     1      -4.317  -7.844  -8.364  0.00  0.00    -0.063 C 
ATOM     23  N   UNL     1      -4.168  -7.615  -9.807  0.00  0.00    +0.381 N 
ATOM     24  C   UNL     1      -3.812  -6.213 -10.057  0.00  0.00    -0.063 C 
ATOM     25  C   UNL     1      -2.441  -5.919  -9.449  0.00  0.00    +0.086 C 
ATOM     26  H   UNL     1      -3.442  -8.215 -10.168  0.00  0.00    -0.086 HD
ATOM     27  H   UNL     1      -5.039  -7.827 -10.271  0.00  0.00    -0.086 HD
ENDBRANCH  16  20
ENDBRANCH  11  13
BRANCH   1  29
ATOM     28  C   UNL     1      -0.463   2.045  -0.550  0.00  0.00    +0.012 C 
ATOM     29  C   UNL     1      -0.254   0.539  -0.379  0.00  0.00    +0.019 C 
ATOM     30  C   UNL     1       0.570   0.279   0.884  0.00  0.00    +0.012 C 
ENDBRANCH   1  29
BRANCH   2  31
ATOM     31  O   UNL     1      -2.085   1.144   1.666  0.00  0.00    -0.495 OA
ATOM     32  C   UNL     1      -3.019   1.449   2.704  0.00  0.00    +0.277 C 
ENDBRANCH   2  31
TORSDOF 4
