REMARK  Name = CHEMBL186470
REMARK  4 active torsions:
REMARK  status: ('A' for Active; 'I' for Inactive)
REMARK    1  A    between atoms: C_1  and  C_2
REMARK    2  A    between atoms: C_7  and  C_11
REMARK    3  A    between atoms: C_11  and  C_12
REMARK    4  A    between atoms: C_18  and  C_20
REMARK                            x       y       z     vdW  Elec       q    Type
REMARK                         _______ _______ _______ _____ _____    ______ ____
ROOT
ATOM      1  C   UNL     1       1.515  -6.799   0.228  0.00  0.00    +0.223 C 
ATOM      2  O   UNL     1       2.427  -6.020   0.043  0.00  0.00    -0.275 OA
ATOM      3  N   UNL     1       1.779  -8.085   0.532  0.00  0.00    -0.264 N 
ATOM      4  C   UNL     1       3.096  -8.519   0.633  0.00  0.00    +0.165 A 
ATOM      5  N   UNL     1       4.201  -7.823   0.473  0.00  0.00    -0.233 NA
ATOM      6  C   UNL     1       5.387  -8.387   0.603  0.00  0.00    +0.124 A 
ATOM      7  C   UNL     1       5.412  -9.708   0.908  0.00  0.00    +0.014 A 
ATOM      8  S   UNL     1       3.664 -10.061   0.996  0.00  0.00    -0.057 S 
ATOM      9  H   UNL     1       1.051  -8.708   0.680  0.00  0.00    +0.157 HD
ENDROOT
BRANCH   7  10
ATOM     10  C   UNL     1       6.589 -10.624   1.119  0.00  0.00    +0.027 C 
ATOM     11  C   UNL     1       6.373 -12.043   0.566  0.00  0.00    +0.009 C 
ATOM     12  C   UNL     1       7.085 -12.558   1.828  0.00  0.00    +0.001 C 
ATOM     13  C   UNL     1       6.631 -11.261   2.518  0.00  0.00    +0.009 C 
ENDBRANCH   7  10
BRANCH   1  14
ATOM     14  C   UNL     1       0.088  -6.328   0.119  0.00  0.00    +0.131 C 
BRANCH  14  21
ATOM     15  C   UNL     1      -0.018   1.503   0.010  0.00  0.00    +0.073 C 
ATOM     16  C   UNL     1       0.002  -0.004   0.002  0.00  0.00    +0.076 A 
ATOM     17  N   UNL     1       0.009  -0.796  -1.030  0.00  0.00    -0.244 NA
ATOM     18  C   UNL     1       0.028  -2.139  -0.906  0.00  0.00    +0.078 A 
ATOM     19  C   UNL     1       0.038  -3.140  -1.900  0.00  0.00    +0.029 A 
ATOM     20  C   UNL     1       0.057  -4.457  -1.555  0.00  0.00    +0.006 A 
ATOM     21  C   UNL     1       0.068  -4.861  -0.228  0.00  0.00    -0.037 A 
ATOM     22  C   UNL     1       0.059  -3.909   0.774  0.00  0.00    +0.021 A 
ATOM     23  C   UNL     1       0.040  -2.578   0.438  0.00  0.00    +0.039 A 
ATOM     24  S   UNL     1       0.029  -1.043   1.326  0.00  0.00    -0.072 S 
ENDBRANCH  14  21
ENDBRANCH   1  14
TORSDOF 3
