REMARK  Name = CHEMBL477568
REMARK  8 active torsions:
REMARK  status: ('A' for Active; 'I' for Inactive)
REMARK    1  A    between atoms: C_1  and  C_2
REMARK    2  A    between atoms: C_5  and  C_10
REMARK    3  A    between atoms: N_6  and  C_7
REMARK    4  A    between atoms: C_7  and  C_8
REMARK    5  A    between atoms: C_7  and  C_9
REMARK    6  A    between atoms: N_16  and  C_17
REMARK    7  A    between atoms: C_20  and  N_23
REMARK    8  A    between atoms: C_29  and  C_31
REMARK                            x       y       z     vdW  Elec       q    Type
REMARK                         _______ _______ _______ _____ _____    ______ ____
ROOT
ATOM      1  C   UNL     1       0.463  -3.112   1.627  0.00  0.00    +0.094 A 
ATOM      2  C   UNL     1       0.547  -2.903   3.009  0.00  0.00    +0.050 A 
ATOM      3  C   UNL     1       0.686  -4.003   3.834  0.00  0.00    +0.116 A 
ATOM      4  N   UNL     1       0.735  -5.213   3.298  0.00  0.00    -0.223 NA
ATOM      5  C   UNL     1       0.653  -5.384   1.986  0.00  0.00    +0.220 A 
ATOM      6  N   UNL     1       0.515  -4.360   1.159  0.00  0.00    -0.213 NA
ATOM      7  N   UNL     1       0.709  -6.667   1.468  0.00  0.00    -0.284 N 
ATOM      8  H   UNL     1       0.731  -6.802   0.508  0.00  0.00    +0.155 HD
ENDROOT
BRANCH   1  13
ATOM      9  C   UNL     1       0.157   1.563  -0.228  0.00  0.00    +0.084 C 
ATOM     10  C   UNL     1       0.179   0.061  -0.112  0.00  0.00    +0.084 A 
ATOM     11  N   UNL     1       0.025  -0.779  -1.101  0.00  0.00    -0.349 N 
ATOM     12  C   UNL     1       0.101  -2.031  -0.641  0.00  0.00    +0.112 A 
ATOM     13  C   UNL     1       0.314  -1.971   0.703  0.00  0.00    +0.085 A 
ATOM     14  N   UNL     1       0.368  -0.633   1.029  0.00  0.00    -0.326 N 
ATOM     15  H   UNL     1      -0.123  -0.531  -2.027  0.00  0.00    +0.166 HD
BRANCH  14  16
ATOM     16  C   UNL     1       0.586  -0.070   2.364  0.00  0.00    +0.083 C 
ATOM     17  C   UNL     1       2.022  -0.355   2.809  0.00  0.00    +0.030 C 
ATOM     18  C   UNL     1       0.354   1.441   2.324  0.00  0.00    +0.030 C 
ENDBRANCH  14  16
ENDBRANCH   1  13
BRANCH   7  19
ATOM     19  C   UNL     1       0.734  -7.771   2.331  0.00  0.00    +0.034 A 
ATOM     20  C   UNL     1       0.022  -7.736   3.523  0.00  0.00    +0.025 A 
ATOM     21  C   UNL     1       0.046  -8.823   4.373  0.00  0.00    +0.025 A 
ATOM     22  C   UNL     1       0.782  -9.952   4.037  0.00  0.00    +0.030 A 
ATOM     23  C   UNL     1       1.494  -9.987   2.845  0.00  0.00    +0.025 A 
ATOM     24  C   UNL     1       1.465  -8.901   1.992  0.00  0.00    +0.025 A 
BRANCH  22  25
ATOM     25  N   UNL     1       0.807 -11.054   4.899  0.00  0.00    -0.327 N 
ATOM     26  C   UNL     1       1.681 -12.203   4.620  0.00  0.00    +0.124 C 
ATOM     27  C   UNL     1       2.572 -12.448   5.843  0.00  0.00    +0.126 C 
ATOM     28  N   UNL     1       1.725 -12.478   7.043  0.00  0.00    -0.299 N 
ATOM     29  C   UNL     1       0.852 -11.330   7.322  0.00  0.00    +0.126 C 
ATOM     30  C   UNL     1      -0.036 -11.082   6.102  0.00  0.00    +0.124 C 
ATOM     31  C   UNL     1       1.749 -13.539   7.873  0.00  0.00    +0.213 C 
ATOM     32  O   UNL     1       2.546 -14.435   7.690  0.00  0.00    -0.276 OA
ATOM     33  C   UNL     1       0.785 -13.614   9.030  0.00  0.00    +0.109 C 
ENDBRANCH  22  25
ENDBRANCH   7  19
TORSDOF 4
