REMARK  Name = CHEMBL360480
REMARK  3 active torsions:
REMARK  status: ('A' for Active; 'I' for Inactive)
REMARK    1  A    between atoms: C_3  and  N_23
REMARK    2  A    between atoms: C_6  and  N_7
REMARK    3  A    between atoms: C_18  and  C_20
REMARK                            x       y       z     vdW  Elec       q    Type
REMARK                         _______ _______ _______ _____ _____    ______ ____
ROOT
ATOM      1  N   UNL     1      -1.202  -0.721   0.010  0.00  0.00    -0.231 N 
ATOM      2  C   UNL     1      -2.285  -0.418  -0.768  0.00  0.00    +0.086 A 
ATOM      3  C   UNL     1      -3.269  -1.370  -0.459  0.00  0.00    +0.033 A 
ATOM      4  C   UNL     1      -4.515  -1.336  -1.093  0.00  0.00    +0.014 A 
ATOM      5  C   UNL     1      -4.789  -0.377  -2.019  0.00  0.00    +0.028 A 
ATOM      6  C   UNL     1      -3.830   0.586  -2.350  0.00  0.00    +0.068 A 
ATOM      7  C   UNL     1      -2.571   0.573  -1.727  0.00  0.00    +0.045 A 
ATOM      8  C   UNL     1      -1.834   1.654  -2.262  0.00  0.00    +0.144 A 
ATOM      9  N   UNL     1      -2.576   2.273  -3.135  0.00  0.00    -0.181 NA
ATOM     10  N   UNL     1      -3.823   1.643  -3.223  0.00  0.00    -0.277 N 
ATOM     11  H   UNL     1      -4.556   1.909  -3.800  0.00  0.00    +0.189 HD
ATOM     12  C   UNL     1      -2.641  -2.227   0.556  0.00  0.00    +0.155 A 
ATOM     13  N   UNL     1      -1.427  -1.750   0.744  0.00  0.00    -0.161 NA
ENDROOT
BRANCH   1  19
ATOM     14  C   UNL     1      -0.017   1.385   0.013  0.00  0.00    +0.029 A 
ATOM     15  C   UNL     1       1.169   2.091   0.005  0.00  0.00    +0.025 A 
ATOM     16  C   UNL     1       2.381   1.413  -0.013  0.00  0.00    +0.030 A 
ATOM     17  C   UNL     1       2.400   0.024  -0.024  0.00  0.00    +0.025 A 
ATOM     18  C   UNL     1       1.214  -0.682  -0.016  0.00  0.00    +0.029 A 
ATOM     19  C   UNL     1       0.002  -0.004   0.002  0.00  0.00    +0.066 A 
BRANCH  16  20
ATOM     20  N   UNL     1       3.582   2.128  -0.021  0.00  0.00    -0.326 N 
ATOM     21  C   UNL     1       4.877   1.436   0.077  0.00  0.00    +0.133 C 
ATOM     22  C   UNL     1       5.781   1.939  -1.054  0.00  0.00    +0.178 C 
ATOM     23  O   UNL     1       5.822   3.368  -1.024  0.00  0.00    -0.377 OA
ATOM     24  C   UNL     1       4.556   3.994  -1.250  0.00  0.00    +0.178 C 
ATOM     25  C   UNL     1       3.589   3.595  -0.135  0.00  0.00    +0.133 C 
ENDBRANCH  16  20
ENDBRANCH   1  19
BRANCH  12  26
ATOM     26  C   UNL     1      -3.246  -3.392   1.226  0.00  0.00    +0.262 C 
ATOM     27  O   UNL     1      -4.382  -3.728   0.952  0.00  0.00    -0.269 OA
ATOM     28  N   UNL     1      -2.540  -4.084   2.142  0.00  0.00    -0.324 N 
ATOM     29  H   UNL     1      -1.634  -3.815   2.360  0.00  0.00    +0.145 HD
ATOM     30  H   UNL     1      -2.938  -4.850   2.583  0.00  0.00    +0.145 HD
ENDBRANCH  12  26
TORSDOF 3
