REMARK  Name = CHEMBL294884
REMARK  4 active torsions:
REMARK  status: ('A' for Active; 'I' for Inactive)
REMARK    1  A    between atoms: C_1  and  N_2
REMARK    2  A    between atoms: N_2  and  S_3
REMARK    3  A    between atoms: S_3  and  C_6
REMARK    4  A    between atoms: C_13  and  C_14
REMARK                            x       y       z     vdW  Elec       q    Type
REMARK                         _______ _______ _______ _____ _____    ______ ____
ROOT
ATOM      1  C   UNL     1      -0.179  -0.442   2.748  0.00  0.00    +0.106 A 
ATOM      2  C   UNL     1      -0.002   0.761   3.413  0.00  0.00    +0.030 A 
ATOM      3  C   UNL     1      -0.838   1.121   4.450  0.00  0.00    +0.026 A 
ATOM      4  C   UNL     1      -1.872   0.276   4.838  0.00  0.00    +0.042 A 
ATOM      5  C   UNL     1      -2.048  -0.939   4.163  0.00  0.00    +0.010 A 
ATOM      6  C   UNL     1      -1.203  -1.291   3.116  0.00  0.00    +0.039 A 
ATOM      7  C   UNL     1      -3.210  -1.603   4.797  0.00  0.00    +0.048 C 
ATOM      8  C   UNL     1      -3.760  -2.826   4.468  0.00  0.00    +0.039 C 
ATOM      9  C   UNL     1      -3.650  -0.679   5.850  0.00  0.00    +0.249 C 
ATOM     10  O   UNL     1      -4.586  -0.853   6.610  0.00  0.00    -0.270 OA
ATOM     11  N   UNL     1      -2.840   0.393   5.829  0.00  0.00    -0.281 N 
ATOM     12  H   UNL     1      -2.919   1.151   6.429  0.00  0.00    +0.155 HD
ENDROOT
BRANCH   8  13
ATOM     13  C   UNL     1      -4.772  -3.385   5.279  0.00  0.00    +0.044 A 
ATOM     14  C   UNL     1      -5.817  -4.149   4.847  0.00  0.00    -0.009 A 
ATOM     15  C   UNL     1      -6.583  -4.491   5.997  0.00  0.00    +0.058 A 
ATOM     16  C   UNL     1      -5.974  -3.925   7.080  0.00  0.00    +0.096 A 
ATOM     17  N   UNL     1      -4.879  -3.260   6.654  0.00  0.00    -0.360 N 
ATOM     18  H   UNL     1      -4.264  -2.770   7.222  0.00  0.00    +0.165 HD
ATOM     19  C   UNL     1      -7.798  -5.317   5.858  0.00  0.00    +0.246 C 
ATOM     20  O   UNL     1      -8.593  -5.444   6.769  0.00  0.00    -0.270 OA
ATOM     21  N   UNL     1      -7.981  -5.925   4.663  0.00  0.00    -0.311 N 
ATOM     22  C   UNL     1      -6.970  -5.948   3.617  0.00  0.00    +0.109 C 
ATOM     23  C   UNL     1      -6.217  -4.624   3.476  0.00  0.00    +0.056 C 
ATOM     24  H   UNL     1      -8.828  -6.367   4.495  0.00  0.00    +0.149 HD
ENDBRANCH   8  13
BRANCH   1  25
ATOM     25  S   UNL     1       0.899  -0.884   1.427  0.00  0.00    +0.058 S 
ATOM     26  O   UNL     1       0.857  -2.301   1.325  0.00  0.00    -0.153 OA
ATOM     27  O   UNL     1       2.111  -0.171   1.635  0.00  0.00    -0.153 OA
BRANCH  25  29
ATOM     28  C   UNL     1       0.108   1.157  -0.161  0.00  0.00    +0.127 C 
ATOM     29  N   UNL     1       0.234  -0.289   0.032  0.00  0.00    -0.193 NA
ATOM     30  H   UNL     1      -0.073  -0.899  -0.657  0.00  0.00    +0.148 HD
ENDBRANCH  25  29
ENDBRANCH   1  25
TORSDOF 3
