REMARK  Name = CHEMBL446409
REMARK  6 active torsions:
REMARK  status: ('A' for Active; 'I' for Inactive)
REMARK    1  A    between atoms: C_3  and  C_24
REMARK    2  A    between atoms: C_9  and  O_23
REMARK    3  A    between atoms: C_10  and  N_11
REMARK    4  A    between atoms: N_12  and  C_13
REMARK    5  A    between atoms: C_16  and  S_19
REMARK    6  A    between atoms: S_19  and  N_22
REMARK                            x       y       z     vdW  Elec       q    Type
REMARK                         _______ _______ _______ _____ _____    ______ ____
ROOT
ATOM      1  C   UNL     1      -0.017   1.376   0.010  0.00  0.00    +0.003 A 
ATOM      2  C   UNL     1       1.163   2.100   0.002  0.00  0.00    +0.011 A 
ATOM      3  C   UNL     1       2.386   1.440  -0.013  0.00  0.00    +0.013 A 
ATOM      4  C   UNL     1       2.413   0.037  -0.021  0.00  0.00    +0.040 A 
ATOM      5  C   UNL     1       1.213  -0.688  -0.013  0.00  0.00    +0.052 A 
ATOM      6  C   UNL     1       0.002  -0.004   0.002  0.00  0.00    +0.026 A 
ATOM      7  N   UNL     1       1.531  -2.035  -0.024  0.00  0.00    -0.324 N 
ATOM      8  H   UNL     1       0.883  -2.756  -0.022  0.00  0.00    +0.169 HD
ATOM      9  C   UNL     1       2.881  -2.204  -0.039  0.00  0.00    +0.219 A 
ATOM     10  C   UNL     1       3.497  -0.961  -0.037  0.00  0.00    +0.155 A 
ENDROOT
BRANCH   3  11
ATOM     11  C   UNL     1       3.652   2.212  -0.021  0.00  0.00    +0.093 A 
ATOM     12  C   UNL     1       3.767   3.616  -0.010  0.00  0.00    +0.049 A 
ATOM     13  C   UNL     1       5.082   3.924  -0.023  0.00  0.00    +0.105 A 
ATOM     14  N   UNL     1       5.781   2.769  -0.043  0.00  0.00    -0.284 N 
ATOM     15  H   UNL     1       6.747   2.689  -0.055  0.00  0.00    +0.188 HD
ATOM     16  N   UNL     1       4.868   1.707  -0.035  0.00  0.00    -0.174 NA
ENDBRANCH   3  11
BRANCH  10  17
ATOM     17  N   UNL     1       4.824  -0.715  -0.049  0.00  0.00    -0.143 NA
ATOM     18  N   UNL     1       5.661  -1.696  -0.063  0.00  0.00    -0.149 NA
BRANCH  18  19
ATOM     19  C   UNL     1       7.006  -1.447  -0.075  0.00  0.00    +0.086 A 
ATOM     20  C   UNL     1       7.476  -0.131  -0.066  0.00  0.00    +0.031 A 
ATOM     21  C   UNL     1       8.834   0.113  -0.078  0.00  0.00    +0.030 A 
ATOM     22  C   UNL     1       9.729  -0.942  -0.099  0.00  0.00    +0.105 A 
ATOM     23  C   UNL     1       9.271  -2.248  -0.108  0.00  0.00    +0.030 A 
ATOM     24  C   UNL     1       7.916  -2.507  -0.090  0.00  0.00    +0.031 A 
BRANCH  22  25
ATOM     25  S   UNL     1      11.462  -0.621  -0.116  0.00  0.00    +0.056 S 
ATOM     26  O   UNL     1      12.082  -1.766  -0.685  0.00  0.00    -0.153 OA
ATOM     27  O   UNL     1      11.628   0.683  -0.655  0.00  0.00    -0.153 OA
BRANCH  25  28
ATOM     28  N   UNL     1      11.961  -0.549   1.462  0.00  0.00    -0.204 NA
ATOM     29  H   UNL     1      12.865  -0.811   1.697  0.00  0.00    +0.144 HD
ATOM     30  H   UNL     1      11.350  -0.243   2.150  0.00  0.00    +0.144 HD
ENDBRANCH  25  28
ENDBRANCH  22  25
ENDBRANCH  18  19
ENDBRANCH  10  17
BRANCH   9  31
ATOM     31  O   UNL     1       3.521  -3.395  -0.052  0.00  0.00    -0.492 OA
ATOM     32  H   UNL     1       3.699  -3.736  -0.939  0.00  0.00    +0.294 HD
ENDBRANCH   9  31
TORSDOF 6
