REMARK  Name = CHEMBL491447
REMARK  7 active torsions:
REMARK  status: ('A' for Active; 'I' for Inactive)
REMARK    1  A    between atoms: C_1  and  N_2
REMARK    2  A    between atoms: C_4  and  C_13
REMARK    3  A    between atoms: C_7  and  C_11
REMARK    4  A    between atoms: C_11  and  O_12
REMARK    5  A    between atoms: C_14  and  C_20
REMARK    6  A    between atoms: C_27  and  C_29
REMARK    7  A    between atoms: C_29  and  O_30
REMARK                            x       y       z     vdW  Elec       q    Type
REMARK                         _______ _______ _______ _____ _____    ______ ____
ROOT
ATOM      1  C   UNL     1       0.039  -3.247  -1.684  0.00  0.00    +0.059 C 
ATOM      2  C   UNL     1       1.116  -3.712  -2.429  0.00  0.00    +0.061 C 
ATOM      3  C   UNL     1       0.620  -4.884  -3.179  0.00  0.00    +0.252 C 
ATOM      4  O   UNL     1       1.274  -5.564  -3.944  0.00  0.00    -0.270 OA
ATOM      5  N   UNL     1      -0.675  -5.073  -2.873  0.00  0.00    -0.248 N 
ATOM      6  C   UNL     1      -1.092  -4.149  -1.991  0.00  0.00    +0.252 C 
ATOM      7  O   UNL     1      -2.211  -4.067  -1.526  0.00  0.00    -0.270 OA
ATOM      8  H   UNL     1      -1.230  -5.781  -3.236  0.00  0.00    +0.158 HD
ENDROOT
BRANCH   1  12
ATOM      9  C   UNL     1      -0.018   1.461   0.010  0.00  0.00    +0.149 C 
ATOM     10  N   UNL     1       0.002  -0.004   0.002  0.00  0.00    -0.349 N 
ATOM     11  C   UNL     1       0.008  -0.775  -1.119  0.00  0.00    +0.095 A 
ATOM     12  C   UNL     1       0.028  -2.094  -0.769  0.00  0.00    +0.013 A 
ATOM     13  C   UNL     1       0.035  -2.137   0.704  0.00  0.00    +0.008 A 
ATOM     14  C   UNL     1       0.024  -0.798   1.130  0.00  0.00    +0.055 A 
ATOM     15  C   UNL     1       0.032  -0.516   2.492  0.00  0.00    +0.002 A 
ATOM     16  C   UNL     1       0.054  -1.546   3.408  0.00  0.00    +0.008 A 
ATOM     17  C   UNL     1       0.069  -2.867   2.985  0.00  0.00    +0.001 A 
ATOM     18  C   UNL     1       0.053  -3.167   1.641  0.00  0.00    +0.010 A 
BRANCH  15  19
ATOM     19  C   UNL     1       0.017   0.915   2.966  0.00  0.00    +0.193 C 
BRANCH  19  20
ATOM     20  O   UNL     1       0.029   0.943   4.394  0.00  0.00    -0.390 OA
ATOM     21  H   UNL     1       0.020   1.834   4.770  0.00  0.00    +0.210 HD
ENDBRANCH  19  20
ENDBRANCH  15  19
ENDBRANCH   1  12
BRANCH   2  22
ATOM     22  C   UNL     1       2.478  -3.150  -2.463  0.00  0.00    +0.033 A 
ATOM     23  C   UNL     1       3.440  -3.269  -1.509  0.00  0.00    +0.205 A 
ATOM     24  O   UNL     1       4.549  -2.621  -1.898  0.00  0.00    -0.462 OA
ATOM     25  C   UNL     1       4.382  -2.050  -3.108  0.00  0.00    +0.136 A 
ATOM     26  C   UNL     1       3.082  -2.346  -3.544  0.00  0.00    +0.028 A 
ATOM     27  C   UNL     1       2.633  -1.884  -4.777  0.00  0.00    +0.012 A 
ATOM     28  C   UNL     1       3.474  -1.134  -5.571  0.00  0.00    +0.007 A 
ATOM     29  C   UNL     1       4.761  -0.843  -5.145  0.00  0.00    -0.019 A 
ATOM     30  C   UNL     1       5.214  -1.289  -3.921  0.00  0.00    +0.052 A 
BRANCH  29  31
ATOM     31  C   UNL     1       5.670  -0.024  -6.024  0.00  0.00    +0.191 C 
BRANCH  31  32
ATOM     32  O   UNL     1       5.509   1.362  -5.715  0.00  0.00    -0.390 OA
ATOM     33  H   UNL     1       6.065   1.950  -6.244  0.00  0.00    +0.210 HD
ENDBRANCH  31  32
ENDBRANCH  29  31
ENDBRANCH   2  22
TORSDOF 6
