REMARK  Name = CHEMBL310840
REMARK  8 active torsions:
REMARK  status: ('A' for Active; 'I' for Inactive)
REMARK    1  A    between atoms: C_1  and  C_2
REMARK    2  A    between atoms: C_2  and  C_3
REMARK    3  A    between atoms: C_3  and  C_4
REMARK    4  A    between atoms: C_4  and  O_5
REMARK    5  A    between atoms: O_5  and  C_6
REMARK    6  A    between atoms: C_7  and  C_15
REMARK    7  A    between atoms: C_15  and  C_17
REMARK    8  A    between atoms: C_20  and  C_24
REMARK                            x       y       z     vdW  Elec       q    Type
REMARK                         _______ _______ _______ _____ _____    ______ ____
ROOT
ATOM      1  C   UNL     1      -2.905  -3.903   0.009  0.00  0.00    +0.145 A 
ATOM      2  C   UNL     1      -3.005  -4.617  -1.197  0.00  0.00    +0.083 A 
ATOM      3  C   UNL     1      -3.179  -6.007  -1.152  0.00  0.00    +0.128 A 
ATOM      4  N   UNL     1      -3.251  -6.651  -0.012  0.00  0.00    -0.235 NA
ATOM      5  C   UNL     1      -3.162  -6.025   1.160  0.00  0.00    +0.159 A 
ATOM      6  N   UNL     1      -3.206  -6.456   2.455  0.00  0.00    -0.260 N 
ATOM      7  N   UNL     1      -3.062  -5.361   3.312  0.00  0.00    -0.180 NA
ATOM      8  C   UNL     1      -2.930  -4.266   2.619  0.00  0.00    +0.148 A 
ATOM      9  C   UNL     1      -2.981  -4.630   1.208  0.00  0.00    +0.081 A 
ATOM     10  H   UNL     1      -3.320  -7.378   2.736  0.00  0.00    +0.191 HD
ENDROOT
BRANCH   2  11
ATOM     11  C   UNL     1      -2.928  -3.915  -2.489  0.00  0.00    +0.204 C 
ATOM     12  O   UNL     1      -2.876  -2.700  -2.519  0.00  0.00    -0.286 OA
BRANCH  11  13
ATOM     13  C   UNL     1      -2.914  -4.685  -3.748  0.00  0.00    +0.093 A 
ATOM     14  C   UNL     1      -4.104  -4.909  -4.449  0.00  0.00    +0.137 A 
ATOM     15  C   UNL     1      -4.082  -5.631  -5.627  0.00  0.00    +0.042 A 
ATOM     16  C   UNL     1      -2.888  -6.133  -6.113  0.00  0.00    -0.045 A 
ATOM     17  C   UNL     1      -1.707  -5.917  -5.426  0.00  0.00    +0.042 A 
ATOM     18  C   UNL     1      -1.710  -5.191  -4.250  0.00  0.00    +0.137 A 
ATOM     19  F   UNL     1      -0.554  -4.976  -3.583  0.00  0.00    -0.205 F 
ATOM     20  C   UNL     1      -2.874  -6.920  -7.398  0.00  0.00    +0.044 C 
ATOM     21  F   UNL     1      -5.271  -4.420  -3.976  0.00  0.00    -0.205 F 
ENDBRANCH  11  13
ENDBRANCH   2  11
BRANCH   1  22
ATOM     22  O   UNL     1      -2.736  -2.561   0.015  0.00  0.00    -0.490 OA
BRANCH  22  23
ATOM     23  C   UNL     1      -1.392  -2.076   0.001  0.00  0.00    +0.229 C 
BRANCH  23  24
ATOM     24  C   UNL     1      -1.401  -0.546   0.010  0.00  0.00    +0.041 C 
BRANCH  24  26
ATOM     25  C   UNL     1       0.029   1.503   0.004  0.00  0.00    +0.004 C 
ATOM     26  C   UNL     1       0.038  -0.027  -0.005  0.00  0.00    -0.000 C 
ENDBRANCH  24  26
ENDBRANCH  23  24
ENDBRANCH  22  23
ENDBRANCH   1  22
TORSDOF 6
