REMARK  Name = CHEMBL523923
REMARK  5 active torsions:
REMARK  status: ('A' for Active; 'I' for Inactive)
REMARK    1  A    between atoms: C_3  and  N_7
REMARK    2  A    between atoms: N_10  and  C_11
REMARK    3  A    between atoms: C_16  and  C_17
REMARK    4  A    between atoms: C_23  and  C_27
REMARK    5  A    between atoms: C_27  and  N_28
REMARK                            x       y       z     vdW  Elec       q    Type
REMARK                         _______ _______ _______ _____ _____    ______ ____
ROOT
ATOM      1  C   UNL     1       7.121   1.173   0.249  0.00  0.00    +0.083 A 
ATOM      2  C   UNL     1       7.220  -0.178   0.248  0.00  0.00    +0.129 A 
ATOM      3  N   UNL     1       8.537  -0.499   0.351  0.00  0.00    -0.282 N 
ATOM      4  H   UNL     1       8.903  -1.397   0.374  0.00  0.00    +0.188 HD
ATOM      5  N   UNL     1       9.272   0.691   0.417  0.00  0.00    -0.169 NA
ATOM      6  C   UNL     1       8.428   1.702   0.351  0.00  0.00    +0.149 A 
ENDROOT
BRANCH   6   7
ATOM      7  C   UNL     1       8.786   3.135   0.383  0.00  0.00    +0.161 A 
ATOM      8  N   UNL     1      10.060   3.627   0.477  0.00  0.00    -0.337 N 
ATOM      9  H   UNL     1      10.876   3.105   0.534  0.00  0.00    +0.167 HD
ATOM     10  C   UNL     1       9.967   5.006   0.475  0.00  0.00    +0.067 A 
ATOM     11  C   UNL     1      10.896   6.034   0.546  0.00  0.00    +0.028 A 
ATOM     12  C   UNL     1      10.469   7.345   0.520  0.00  0.00    +0.007 A 
ATOM     13  C   UNL     1       9.117   7.642   0.423  0.00  0.00    -0.031 A 
ATOM     14  C   UNL     1       8.187   6.644   0.352  0.00  0.00    +0.034 A 
ATOM     15  C   UNL     1       8.597   5.307   0.376  0.00  0.00    +0.090 A 
ATOM     16  N   UNL     1       7.931   4.127   0.319  0.00  0.00    -0.226 NA
BRANCH  13  17
ATOM     17  C   UNL     1       8.669   9.081   0.397  0.00  0.00    +0.119 C 
BRANCH  17  18
ATOM     18  N   UNL     1       8.625   9.554  -0.993  0.00  0.00    -0.294 NA
ATOM     19  C   UNL     1       9.973   9.603  -1.577  0.00  0.00    +0.113 C 
ATOM     20  C   UNL     1       9.875  10.043  -3.039  0.00  0.00    +0.175 C 
ATOM     21  O   UNL     1       9.209  11.307  -3.108  0.00  0.00    -0.377 OA
ATOM     22  C   UNL     1       7.892  11.295  -2.549  0.00  0.00    +0.175 C 
ATOM     23  C   UNL     1       7.971  10.868  -1.081  0.00  0.00    +0.113 C 
ENDBRANCH  17  18
ENDBRANCH  13  17
ENDBRANCH   6   7
BRANCH   1  27
ATOM     24  N   UNL     1       3.606   1.996  -0.022  0.00  0.00    -0.268 N 
ATOM     25  C   UNL     1       4.746   1.283   0.065  0.00  0.00    +0.308 C 
ATOM     26  O   UNL     1       4.705   0.068   0.059  0.00  0.00    -0.252 OA
ATOM     27  N   UNL     1       5.932   1.917   0.158  0.00  0.00    -0.266 N 
ATOM     28  H   UNL     1       3.642   2.962  -0.095  0.00  0.00    +0.156 HD
ATOM     29  H   UNL     1       5.964   2.886   0.163  0.00  0.00    +0.156 HD
BRANCH  24  32
ATOM     30  C   UNL     1       0.954  -0.440   0.712  0.00  0.00    +0.021 A 
ATOM     31  C   UNL     1       2.197   0.171   0.728  0.00  0.00    +0.026 A 
ATOM     32  C   UNL     1       2.368   1.342  -0.007  0.00  0.00    +0.053 A 
ATOM     33  C   UNL     1       1.293   1.851  -0.724  0.00  0.00    +0.134 A 
ATOM     34  N   UNL     1       0.127   1.238  -0.712  0.00  0.00    -0.261 NA
ATOM     35  C   UNL     1      -0.068   0.128  -0.026  0.00  0.00    +0.111 A 
ENDBRANCH  24  32
ENDBRANCH   1  27
TORSDOF 5
