REMARK  Name = CHEMBL76925
REMARK  7 active torsions:
REMARK  status: ('A' for Active; 'I' for Inactive)
REMARK    1  A    between atoms: C_1  and  C_2
REMARK    2  A    between atoms: C_2  and  C_3
REMARK    3  A    between atoms: C_3  and  C_4
REMARK    4  A    between atoms: C_4  and  O_5
REMARK    5  A    between atoms: O_5  and  C_6
REMARK    6  A    between atoms: C_7  and  S_16
REMARK    7  A    between atoms: S_16  and  C_18
REMARK                            x       y       z     vdW  Elec       q    Type
REMARK                         _______ _______ _______ _____ _____    ______ ____
ROOT
ATOM      1  C   UNL     1      -2.932  -3.428  -0.042  0.00  0.00    +0.150 A 
ATOM      2  C   UNL     1      -3.011  -4.414   0.930  0.00  0.00    +0.104 A 
ATOM      3  C   UNL     1      -3.077  -5.744   0.548  0.00  0.00    +0.134 A 
ATOM      4  N   UNL     1      -3.066  -6.099  -0.719  0.00  0.00    -0.235 NA
ATOM      5  H   UNL     1      -2.997  -6.119  -3.574  0.00  0.00    +0.191 HD
ATOM      6  C   UNL     1      -2.992  -5.202  -1.696  0.00  0.00    +0.159 A 
ATOM      7  N   UNL     1      -2.964  -5.297  -3.061  0.00  0.00    -0.260 N 
ATOM      8  N   UNL     1      -2.877  -4.003  -3.589  0.00  0.00    -0.180 NA
ATOM      9  C   UNL     1      -2.852  -3.134  -2.620  0.00  0.00    +0.148 A 
ATOM     10  C   UNL     1      -2.928  -3.830  -1.391  0.00  0.00    +0.081 A 
ENDROOT
BRANCH   2  11
ATOM     11  S   UNL     1      -3.027  -3.978   2.637  0.00  0.00    +0.091 S 
ATOM     12  O   UNL     1      -2.374  -2.717   2.676  0.00  0.00    -0.247 OA
BRANCH  11  13
ATOM     13  C   UNL     1      -4.716  -3.594   2.963  0.00  0.00    +0.044 A 
ATOM     14  C   UNL     1      -5.201  -2.328   2.693  0.00  0.00    +0.017 A 
ATOM     15  C   UNL     1      -6.526  -2.027   2.949  0.00  0.00    +0.001 A 
ATOM     16  C   UNL     1      -7.365  -2.992   3.474  0.00  0.00    +0.000 A 
ATOM     17  C   UNL     1      -6.880  -4.258   3.743  0.00  0.00    +0.001 A 
ATOM     18  C   UNL     1      -5.556  -4.561   3.483  0.00  0.00    +0.017 A 
ENDBRANCH  11  13
ENDBRANCH   2  11
BRANCH   1  19
ATOM     19  O   UNL     1      -2.866  -2.117   0.297  0.00  0.00    -0.490 OA
BRANCH  19  20
ATOM     20  C   UNL     1      -1.566  -1.524   0.347  0.00  0.00    +0.229 C 
BRANCH  20  21
ATOM     21  C   UNL     1      -1.681  -0.088   0.863  0.00  0.00    +0.041 C 
BRANCH  21  23
ATOM     22  C   UNL     1      -0.403   1.982   1.433  0.00  0.00    +0.004 C 
ATOM     23  C   UNL     1      -0.289   0.546   0.917  0.00  0.00    -0.000 C 
ENDBRANCH  21  23
ENDBRANCH  20  21
ENDBRANCH  19  20
ENDBRANCH   1  19
TORSDOF 6
