REMARK  Name = CHEMBL380317
REMARK  14 active torsions:
REMARK  status: ('A' for Active; 'I' for Inactive)
REMARK    1  A    between atoms: C_1  and  C_2
REMARK    2  A    between atoms: C_2  and  C_4
REMARK    3  A    between atoms: C_2  and  N_31
REMARK    4  A    between atoms: N_6  and  C_7
REMARK    5  A    between atoms: C_7  and  C_9
REMARK    6  A    between atoms: C_7  and  C_13
REMARK    7  A    between atoms: C_9  and  C_10
REMARK    8  A    between atoms: C_10  and  C_11
REMARK    9  A    between atoms: C_10  and  C_12
REMARK   10  A    between atoms: N_15  and  C_16
REMARK   11  A    between atoms: C_22  and  C_24
REMARK   12  A    between atoms: C_32  and  C_34
REMARK   13  A    between atoms: C_37  and  C_40
REMARK   14  A    between atoms: C_40  and  C_41
REMARK                            x       y       z     vdW  Elec       q    Type
REMARK                         _______ _______ _______ _____ _____    ______ ____
ROOT
ATOM      1  C   UNL     1      -1.412  -0.526   0.013  0.00  0.00    +0.234 C 
ATOM      2  O   UNL     1      -1.808  -1.223  -0.897  0.00  0.00    -0.274 OA
ATOM      3  N   UNL     1      -2.236  -0.217   1.033  0.00  0.00    -0.302 N 
ATOM      4  H   UNL     1      -1.920   0.341   1.761  0.00  0.00    +0.150 HD
ENDROOT
BRANCH   1   6
ATOM      5  C   UNL     1      -0.019   1.526   0.010  0.00  0.00    +0.038 C 
ATOM      6  C   UNL     1       0.002  -0.004   0.002  0.00  0.00    +0.156 C 
BRANCH   6   7
ATOM      7  N   UNL     1       0.688  -0.476  -1.203  0.00  0.00    -0.300 N 
ATOM      8  C   UNL     1       2.031  -0.587  -1.215  0.00  0.00    +0.245 C 
ATOM      9  O   UNL     1       2.673  -0.295  -0.225  0.00  0.00    -0.270 OA
ATOM     10  H   UNL     1       0.175  -0.710  -1.993  0.00  0.00    +0.150 HD
BRANCH   8  11
ATOM     11  C   UNL     1       2.723  -1.064  -2.431  0.00  0.00    +0.037 A 
ATOM     12  C   UNL     1       1.989  -1.395  -3.571  0.00  0.00    +0.013 A 
ATOM     13  C   UNL     1       2.641  -1.839  -4.703  0.00  0.00    +0.004 A 
ATOM     14  C   UNL     1       4.019  -1.956  -4.710  0.00  0.00    -0.047 A 
ATOM     15  C   UNL     1       4.753  -1.630  -3.583  0.00  0.00    +0.004 A 
ATOM     16  C   UNL     1       4.114  -1.179  -2.447  0.00  0.00    +0.013 A 
BRANCH  14  17
ATOM     17  C   UNL     1       4.724  -2.442  -5.950  0.00  0.00    +0.038 C 
BRANCH  17  18
ATOM     18  C   UNL     1       5.077  -1.247  -6.838  0.00  0.00    -0.010 C 
ATOM     19  C   UNL     1       3.791  -0.590  -7.346  0.00  0.00    -0.015 C 
ATOM     20  C   UNL     1       4.150   0.555  -8.296  0.00  0.00    -0.082 C 
ATOM     21  N   UNL     1       4.915   0.029  -9.433  0.00  0.00    +0.379 N 
ATOM     22  C   UNL     1       6.184  -0.538  -8.960  0.00  0.00    -0.082 C 
ATOM     23  C   UNL     1       5.902  -1.725  -8.036  0.00  0.00    -0.015 C 
ATOM     24  H   UNL     1       4.378  -0.689  -9.896  0.00  0.00    -0.086 HD
ATOM     25  H   UNL     1       5.105   0.777 -10.084  0.00  0.00    -0.086 HD
ENDBRANCH  17  18
ENDBRANCH  14  17
ENDBRANCH   8  11
ENDBRANCH   6   7
ENDBRANCH   1   6
BRANCH   3  26
ATOM     26  C   UNL     1      -3.611  -0.724   1.044  0.00  0.00    +0.159 C 
BRANCH  26  27
ATOM     27  C   UNL     1      -4.477   0.190   1.872  0.00  0.00    +0.234 C 
ATOM     28  O   UNL     1      -3.994   1.168   2.401  0.00  0.00    -0.274 OA
ATOM     29  N   UNL     1      -5.788  -0.080   2.024  0.00  0.00    -0.310 N 
ATOM     30  H   UNL     1      -6.175  -0.863   1.601  0.00  0.00    +0.149 HD
BRANCH  29  31
ATOM     31  C   UNL     1      -6.631   0.808   2.829  0.00  0.00    +0.080 C 
ATOM     32  C   UNL     1      -6.528   0.410   4.303  0.00  0.00    +0.023 C 
ATOM     33  C   UNL     1      -7.407   1.338   5.144  0.00  0.00    +0.002 C 
ATOM     34  C   UNL     1      -8.861   1.218   4.684  0.00  0.00    +0.001 C 
ATOM     35  C   UNL     1      -8.964   1.615   3.210  0.00  0.00    +0.010 C 
ATOM     36  C   UNL     1      -8.085   0.688   2.369  0.00  0.00    +0.039 C 
BRANCH  36  37
ATOM     37  C   UNL     1      -8.186   1.079   0.917  0.00  0.00    -0.041 A 
ATOM     38  C   UNL     1      -7.807   2.346   0.515  0.00  0.00    +0.004 A 
ATOM     39  C   UNL     1      -7.900   2.706  -0.817  0.00  0.00    +0.002 A 
ATOM     40  C   UNL     1      -8.372   1.799  -1.747  0.00  0.00    +0.020 A 
ATOM     41  C   UNL     1      -8.751   0.530  -1.345  0.00  0.00    +0.041 A 
ATOM     42  C   UNL     1      -8.652   0.169  -0.013  0.00  0.00    +0.024 A 
ATOM     43 CL   UNL     1      -9.344  -0.609  -2.512  0.00  0.00    -0.084 Cl
ENDBRANCH  36  37
ENDBRANCH  29  31
ENDBRANCH  26  27
BRANCH  26  44
ATOM     44  C   UNL     1      -3.631  -2.130   1.646  0.00  0.00    +0.034 C 
BRANCH  44  45
ATOM     45  C   UNL     1      -2.854  -3.085   0.738  0.00  0.00    -0.015 C 
ATOM     46  C   UNL     1      -2.768  -4.462   1.400  0.00  0.00    +0.007 C 
ATOM     47  C   UNL     1      -3.574  -3.210  -0.607  0.00  0.00    +0.007 C 
ENDBRANCH  44  45
ENDBRANCH  26  44
ENDBRANCH   3  26
TORSDOF 11
