REMARK  Name = CHEMBL475948
REMARK  10 active torsions:
REMARK  status: ('A' for Active; 'I' for Inactive)
REMARK    1  A    between atoms: C_1  and  C_2
REMARK    2  A    between atoms: C_5  and  C_10
REMARK    3  A    between atoms: N_6  and  C_7
REMARK    4  A    between atoms: C_7  and  C_8
REMARK    5  A    between atoms: C_7  and  C_9
REMARK    6  A    between atoms: N_16  and  C_17
REMARK    7  A    between atoms: C_20  and  N_23
REMARK    8  A    between atoms: C_27  and  C_29
REMARK    9  A    between atoms: N_31  and  C_32
REMARK   10  A    between atoms: N_31  and  C_33
REMARK                            x       y       z     vdW  Elec       q    Type
REMARK                         _______ _______ _______ _____ _____    ______ ____
ROOT
ATOM      1  C   UNL     1       1.124  -3.775   1.009  0.00  0.00    +0.129 A 
ATOM      2  C   UNL     1       2.185  -3.857   1.922  0.00  0.00    +0.169 A 
ATOM      3  C   UNL     1       2.283  -4.986   2.717  0.00  0.00    +0.155 A 
ATOM      4  N   UNL     1       1.379  -5.946   2.593  0.00  0.00    -0.220 NA
ATOM      5  C   UNL     1       0.386  -5.842   1.722  0.00  0.00    +0.220 A 
ATOM      6  N   UNL     1       0.250  -4.780   0.945  0.00  0.00    -0.210 NA
ATOM      7  N   UNL     1      -0.537  -6.872   1.625  0.00  0.00    -0.284 N 
ATOM      8  F   UNL     1       3.090  -2.859   2.023  0.00  0.00    -0.202 F 
ATOM      9  H   UNL     1      -1.222  -6.846   0.939  0.00  0.00    +0.155 HD
ENDROOT
BRANCH   1  14
ATOM     10  C   UNL     1       0.945   0.978  -0.658  0.00  0.00    +0.084 C 
ATOM     11  C   UNL     1       0.893  -0.527  -0.595  0.00  0.00    +0.084 A 
ATOM     12  N   UNL     1       0.626  -1.320  -1.599  0.00  0.00    -0.349 N 
ATOM     13  C   UNL     1       0.665  -2.591  -1.189  0.00  0.00    +0.112 A 
ATOM     14  C   UNL     1       0.974  -2.593   0.138  0.00  0.00    +0.088 A 
ATOM     15  N   UNL     1       1.122  -1.273   0.505  0.00  0.00    -0.325 N 
ATOM     16  H   UNL     1       0.428  -1.030  -2.503  0.00  0.00    +0.166 HD
BRANCH  15  17
ATOM     17  C   UNL     1       1.461  -0.774   1.840  0.00  0.00    +0.083 C 
ATOM     18  C   UNL     1       2.700   0.119   1.751  0.00  0.00    +0.030 C 
ATOM     19  C   UNL     1       0.288   0.036   2.395  0.00  0.00    +0.030 C 
ENDBRANCH  15  17
ENDBRANCH   1  14
BRANCH   7  20
ATOM     20  C   UNL     1      -0.480  -7.950   2.518  0.00  0.00    +0.034 A 
ATOM     21  C   UNL     1      -0.082  -7.743   3.832  0.00  0.00    +0.025 A 
ATOM     22  C   UNL     1      -0.026  -8.806   4.712  0.00  0.00    +0.025 A 
ATOM     23  C   UNL     1      -0.367 -10.081   4.282  0.00  0.00    +0.030 A 
ATOM     24  C   UNL     1      -0.765 -10.288   2.968  0.00  0.00    +0.025 A 
ATOM     25  C   UNL     1      -0.826  -9.225   2.090  0.00  0.00    +0.025 A 
BRANCH  23  26
ATOM     26  N   UNL     1      -0.310 -11.159   5.174  0.00  0.00    -0.318 N 
ATOM     27  C   UNL     1       0.088 -11.080   6.592  0.00  0.00    +0.106 C 
ATOM     28  C   UNL     1      -0.584 -12.306   7.260  0.00  0.00    +0.021 C 
ATOM     29  C   UNL     1      -0.456 -13.378   6.146  0.00  0.00    +0.033 C 
ATOM     30  C   UNL     1      -0.642 -12.554   4.854  0.00  0.00    +0.160 C 
BRANCH  30  31
ATOM     31  C   UNL     1      -2.072 -12.647   4.386  0.00  0.00    +0.236 C 
ATOM     32  O   UNL     1      -2.755 -11.647   4.323  0.00  0.00    -0.274 OA
ATOM     33  N   UNL     1      -2.591 -13.841   4.037  0.00  0.00    -0.306 N 
ATOM     34  C   UNL     1      -3.980 -13.930   3.582  0.00  0.00    +0.131 C 
ATOM     35  C   UNL     1      -1.766 -15.049   4.114  0.00  0.00    +0.131 C 
ENDBRANCH  30  31
ENDBRANCH  23  26
ENDBRANCH   7  20
TORSDOF 5
