REMARK  Name = CHEMBL514197
REMARK  7 active torsions:
REMARK  status: ('A' for Active; 'I' for Inactive)
REMARK    1  A    between atoms: C_1  and  N_2
REMARK    2  A    between atoms: N_5  and  C_8
REMARK    3  A    between atoms: C_15  and  C_17
REMARK    4  A    between atoms: C_21  and  C_27
REMARK    5  A    between atoms: C_30  and  O_35
REMARK    6  A    between atoms: C_31  and  O_33
REMARK    7  A    between atoms: O_33  and  C_34
REMARK                            x       y       z     vdW  Elec       q    Type
REMARK                         _______ _______ _______ _____ _____    ______ ____
ROOT
ATOM      1  C   UNL     1      -3.233  -1.504   5.701  0.00  0.00    +0.135 A 
ATOM      2  C   UNL     1      -3.933  -1.837   6.947  0.00  0.00    +0.030 A 
ATOM      3  C   UNL     1      -4.270  -3.041   7.574  0.00  0.00    +0.013 A 
ATOM      4  C   UNL     1      -4.941  -3.026   8.759  0.00  0.00    +0.009 A 
ATOM      5  C   UNL     1      -5.298  -1.812   9.358  0.00  0.00    -0.016 A 
ATOM      6  C   UNL     1      -4.972  -0.608   8.751  0.00  0.00    +0.036 A 
ATOM      7  C   UNL     1      -4.287  -0.611   7.540  0.00  0.00    +0.067 A 
ATOM      8  N   UNL     1      -3.832   0.382   6.709  0.00  0.00    -0.276 N 
ATOM      9  H   UNL     1      -3.933   1.334   6.864  0.00  0.00    +0.189 HD
ATOM     10  N   UNL     1      -3.193  -0.195   5.607  0.00  0.00    -0.170 NA
ENDROOT
BRANCH   1  18
ATOM     11  C   UNL     1      -0.972  -3.612   1.777  0.00  0.00    +0.055 A 
ATOM     12  C   UNL     1      -0.753  -4.934   1.429  0.00  0.00    +0.025 A 
ATOM     13  C   UNL     1      -1.208  -5.959   2.246  0.00  0.00    +0.004 A 
ATOM     14  C   UNL     1      -1.882  -5.678   3.412  0.00  0.00    +0.030 A 
ATOM     15  C   UNL     1      -2.114  -4.348   3.782  0.00  0.00    +0.091 A 
ATOM     16  C   UNL     1      -1.648  -3.310   2.958  0.00  0.00    +0.088 A 
ATOM     17  N   UNL     1      -2.015  -2.129   3.578  0.00  0.00    -0.335 N 
ATOM     18  C   UNL     1      -2.670  -2.466   4.732  0.00  0.00    +0.160 A 
ATOM     19  N   UNL     1      -2.731  -3.771   4.842  0.00  0.00    -0.226 NA
ATOM     20  H   UNL     1      -1.841  -1.231   3.255  0.00  0.00    +0.167 HD
BRANCH  11  25
ATOM     21  C   UNL     1      -0.018   1.465   0.010  0.00  0.00    -0.096 C 
ATOM     22  N   UNL     1       0.002  -0.004   0.002  0.00  0.00    +0.380 N 
ATOM     23  C   UNL     1      -1.376  -0.510   0.002  0.00  0.00    -0.060 C 
ATOM     24  C   UNL     1      -1.358  -2.038  -0.122  0.00  0.00    +0.086 C 
ATOM     25  N   UNL     1      -0.511  -2.583   0.950  0.00  0.00    -0.332 N 
ATOM     26  C   UNL     1       0.834  -2.015   1.127  0.00  0.00    +0.086 C 
ATOM     27  C   UNL     1       0.713  -0.489   1.192  0.00  0.00    -0.060 C 
ATOM     28  H   UNL     1       0.477  -0.328  -0.827  0.00  0.00    -0.082 HD
ENDBRANCH  11  25
ENDBRANCH   1  18
BRANCH   5  29
ATOM     29  C   UNL     1      -6.029  -1.813  10.649  0.00  0.00    -0.014 A 
ATOM     30  C   UNL     1      -6.392  -0.607  11.246  0.00  0.00    +0.012 A 
ATOM     31  C   UNL     1      -7.072  -0.609  12.447  0.00  0.00    +0.050 A 
ATOM     32  C   UNL     1      -7.396  -1.809  13.062  0.00  0.00    +0.158 A 
ATOM     33  C   UNL     1      -7.036  -3.017  12.469  0.00  0.00    +0.162 A 
ATOM     34  C   UNL     1      -6.359  -3.020  11.263  0.00  0.00    +0.058 A 
BRANCH  33  35
ATOM     35  O   UNL     1      -7.354  -4.192  13.074  0.00  0.00    -0.491 OA
ATOM     36  C   UNL     1      -6.954  -5.393  12.410  0.00  0.00    +0.277 C 
ENDBRANCH  33  35
BRANCH  32  37
ATOM     37  O   UNL     1      -8.066  -1.806  14.245  0.00  0.00    -0.503 OA
ATOM     38  H   UNL     1      -9.028  -1.821  14.152  0.00  0.00    +0.292 HD
ENDBRANCH  32  37
ENDBRANCH   5  29
TORSDOF 5
