REMARK  Name = CHEMBL126782
REMARK  10 active torsions:
REMARK  status: ('A' for Active; 'I' for Inactive)
REMARK    1  A    between atoms: C_1  and  C_2
REMARK    2  A    between atoms: C_2  and  C_3
REMARK    3  A    between atoms: C_2  and  C_4
REMARK    4  A    between atoms: C_10  and  S_12
REMARK    5  A    between atoms: S_12  and  C_14
REMARK    6  A    between atoms: C_14  and  C_15
REMARK    7  A    between atoms: C_18  and  C_20
REMARK    8  A    between atoms: C_20  and  C_21
REMARK    9  A    between atoms: C_20  and  C_22
REMARK   10  A    between atoms: C_20  and  C_23
REMARK                            x       y       z     vdW  Elec       q    Type
REMARK                         _______ _______ _______ _____ _____    ______ ____
ROOT
ATOM      1  C   UNL     1      -1.412  -0.526   0.013  0.00  0.00    +0.221 C 
ATOM      2  O   UNL     1      -1.790  -1.233   0.922  0.00  0.00    -0.275 OA
ATOM      3  N   UNL     1      -2.256  -0.206  -0.988  0.00  0.00    -0.264 N 
ATOM      4  C   UNL     1      -3.560  -0.687  -0.979  0.00  0.00    +0.165 A 
ATOM      5  N   UNL     1      -4.141  -1.454  -0.082  0.00  0.00    -0.232 NA
ATOM      6  C   UNL     1      -5.400  -1.828  -0.217  0.00  0.00    +0.138 A 
ATOM      7  C   UNL     1      -6.059  -1.388  -1.317  0.00  0.00    +0.097 A 
ATOM      8  S   UNL     1      -4.780  -0.424  -2.107  0.00  0.00    -0.043 S 
ATOM      9  H   UNL     1      -1.953   0.360  -1.716  0.00  0.00    +0.157 HD
ENDROOT
BRANCH   1  11
ATOM     10  C   UNL     1      -0.019   1.526   0.010  0.00  0.00    +0.017 C 
ATOM     11  C   UNL     1       0.002  -0.004   0.002  0.00  0.00    +0.069 C 
ATOM     12  C   UNL     1       0.742  -0.511   1.242  0.00  0.00    +0.017 C 
ENDBRANCH   1  11
BRANCH   7  13
ATOM     13  S   UNL     1      -7.721  -1.681  -1.825  0.00  0.00    +0.071 S 
ATOM     14  O   UNL     1      -7.686  -1.503  -3.234  0.00  0.00    -0.251 OA
BRANCH  13  15
ATOM     15  C   UNL     1      -8.656  -0.324  -1.066  0.00  0.00    +0.205 C 
BRANCH  15  16
ATOM     16  C   UNL     1     -10.114  -0.457  -1.426  0.00  0.00    +0.208 A 
ATOM     17  N   UNL     1     -11.008  -1.111  -0.741  0.00  0.00    -0.221 NA
ATOM     18  C   UNL     1     -12.193  -1.007  -1.367  0.00  0.00    +0.156 A 
ATOM     19  C   UNL     1     -12.007  -0.263  -2.470  0.00  0.00    +0.131 A 
ATOM     20  O   UNL     1     -10.705   0.084  -2.500  0.00  0.00    -0.443 OA
BRANCH  19  21
ATOM     21  C   UNL     1     -13.057   0.118  -3.481  0.00  0.00    +0.022 C 
ATOM     22  C   UNL     1     -14.164   0.918  -2.791  0.00  0.00    +0.019 C 
ATOM     23  C   UNL     1     -12.422   0.971  -4.581  0.00  0.00    +0.019 C 
ATOM     24  C   UNL     1     -13.653  -1.149  -4.099  0.00  0.00    +0.019 C 
ENDBRANCH  19  21
ENDBRANCH  15  16
ENDBRANCH  13  15
ENDBRANCH   7  13
TORSDOF 5
