REMARK  Name = CHEMBL112442
REMARK  5 active torsions:
REMARK  status: ('A' for Active; 'I' for Inactive)
REMARK    1  A    between atoms: C_1  and  C_2
REMARK    2  A    between atoms: C_2  and  C_3
REMARK    3  A    between atoms: C_3  and  C_4
REMARK    4  A    between atoms: N_6  and  C_7
REMARK    5  A    between atoms: C_9  and  C_13
REMARK                            x       y       z     vdW  Elec       q    Type
REMARK                         _______ _______ _______ _____ _____    ______ ____
ROOT
ATOM      1  C   UNL     1      -2.552  -4.125   0.004  0.00  0.00    +0.120 A 
ATOM      2  C   UNL     1      -1.443  -4.914  -0.011  0.00  0.00    +0.068 A 
ATOM      3  C   UNL     1      -1.866  -6.246  -0.013  0.00  0.00    +0.068 A 
ATOM      4  N   UNL     1      -3.174  -6.262   0.000  0.00  0.00    -0.177 NA
ATOM      5  H   UNL     1      -4.560  -4.656   0.031  0.00  0.00    +0.190 HD
ATOM      6  N   UNL     1      -3.632  -4.939   0.016  0.00  0.00    -0.264 N 
ENDROOT
BRANCH   1   9
ATOM      7  C   UNL     1      -1.413  -2.041   0.005  0.00  0.00    +0.218 C 
ATOM      8  O   UNL     1      -0.354  -2.633  -0.009  0.00  0.00    -0.275 OA
ATOM      9  N   UNL     1      -2.571  -2.730   0.012  0.00  0.00    -0.271 N 
ATOM     10  H   UNL     1      -3.417  -2.257   0.023  0.00  0.00    +0.156 HD
BRANCH   7  11
ATOM     11  C   UNL     1      -1.433  -0.534   0.013  0.00  0.00    +0.096 C 
BRANCH  11  13
ATOM     12  C   UNL     1      -0.019   1.526   0.010  0.00  0.00    +0.004 C 
ATOM     13  C   UNL     1       0.002  -0.004   0.002  0.00  0.00    +0.006 C 
ENDBRANCH  11  13
ENDBRANCH   7  11
ENDBRANCH   1   9
BRANCH   3  14
ATOM     14  C   UNL     1      -0.968  -7.457  -0.028  0.00  0.00    +0.040 C 
ATOM     15  C   UNL     1       0.494  -7.247  -0.425  0.00  0.00    +0.010 C 
ATOM     16  C   UNL     1      -0.467  -7.947  -1.388  0.00  0.00    +0.010 C 
ENDBRANCH   3  14
TORSDOF 4
