REMARK  Name = CHEMBL455467
REMARK  8 active torsions:
REMARK  status: ('A' for Active; 'I' for Inactive)
REMARK    1  A    between atoms: C_1  and  C_2
REMARK    2  A    between atoms: C_5  and  C_10
REMARK    3  A    between atoms: N_6  and  C_7
REMARK    4  A    between atoms: C_7  and  C_8
REMARK    5  A    between atoms: C_7  and  C_9
REMARK    6  A    between atoms: N_16  and  C_17
REMARK    7  A    between atoms: C_20  and  C_23
REMARK    8  A    between atoms: N_28  and  C_31
REMARK                            x       y       z     vdW  Elec       q    Type
REMARK                         _______ _______ _______ _____ _____    ______ ____
ROOT
ATOM      1  C   UNL     1      -1.614  -5.418  -2.204  0.00  0.00    +0.094 A 
ATOM      2  C   UNL     1      -2.385  -6.503  -2.643  0.00  0.00    +0.050 A 
ATOM      3  C   UNL     1      -2.462  -7.623  -1.837  0.00  0.00    +0.116 A 
ATOM      4  N   UNL     1      -1.812  -7.638  -0.683  0.00  0.00    -0.223 NA
ATOM      5  C   UNL     1      -1.090  -6.598  -0.292  0.00  0.00    +0.220 A 
ATOM      6  N   UNL     1      -0.983  -5.507  -1.033  0.00  0.00    -0.213 NA
ATOM      7  N   UNL     1      -0.425  -6.656   0.923  0.00  0.00    -0.284 N 
ATOM      8  H   UNL     1       0.041  -5.874   1.259  0.00  0.00    +0.155 HD
ENDROOT
BRANCH   1  13
ATOM      9  C   UNL     1      -2.255  -2.003  -5.855  0.00  0.00    +0.086 C 
ATOM     10  C   UNL     1      -1.771  -2.708  -4.614  0.00  0.00    +0.107 A 
ATOM     11  N   UNL     1      -0.891  -2.239  -3.770  0.00  0.00    -0.240 NA
ATOM     12  C   UNL     1      -0.698  -3.123  -2.786  0.00  0.00    +0.140 A 
ATOM     13  C   UNL     1      -1.498  -4.199  -3.029  0.00  0.00    +0.087 A 
ATOM     14  N   UNL     1      -2.182  -3.922  -4.192  0.00  0.00    -0.324 N 
BRANCH  14  15
ATOM     15  C   UNL     1      -3.167  -4.784  -4.850  0.00  0.00    +0.083 C 
ATOM     16  C   UNL     1      -4.428  -4.867  -3.989  0.00  0.00    +0.030 C 
ATOM     17  C   UNL     1      -3.521  -4.201  -6.220  0.00  0.00    +0.030 C 
ENDBRANCH  14  15
ENDBRANCH   1  13
BRANCH   7  18
ATOM     18  C   UNL     1      -0.427  -7.836   1.661  0.00  0.00    +0.034 A 
ATOM     19  C   UNL     1      -0.456  -7.786   3.052  0.00  0.00    +0.024 A 
ATOM     20  C   UNL     1      -0.457  -8.951   3.785  0.00  0.00    +0.015 A 
ATOM     21  C   UNL     1      -0.429 -10.186   3.131  0.00  0.00    +0.037 A 
ATOM     22  C   UNL     1      -0.399 -10.233   1.734  0.00  0.00    +0.015 A 
ATOM     23  C   UNL     1      -0.404  -9.065   1.007  0.00  0.00    +0.024 A 
BRANCH  21  24
ATOM     24  C   UNL     1      -0.429 -11.437   3.913  0.00  0.00    +0.246 C 
ATOM     25  O   UNL     1      -1.066 -11.507   4.947  0.00  0.00    -0.270 OA
ATOM     26  N   UNL     1       0.277 -12.501   3.483  0.00  0.00    -0.301 N 
ATOM     27  C   UNL     1       1.163 -12.398   2.313  0.00  0.00    +0.089 C 
ATOM     28  C   UNL     1       2.536 -12.962   2.692  0.00  0.00    -0.060 C 
ATOM     29  N   UNL     1       2.377 -14.325   3.214  0.00  0.00    +0.380 N 
ATOM     30  C   UNL     1       1.604 -14.296   4.462  0.00  0.00    -0.060 C 
ATOM     31  C   UNL     1       0.189 -13.797   4.174  0.00  0.00    +0.089 C 
ATOM     32  C   UNL     1       3.702 -14.905   3.474  0.00  0.00    -0.096 C 
ATOM     33  H   UNL     1       1.893 -14.890   2.533  0.00  0.00    -0.082 HD
ENDBRANCH  21  24
ENDBRANCH   7  18
TORSDOF 4
