REMARK  Name = CHEMBL514197
REMARK  7 active torsions:
REMARK  status: ('A' for Active; 'I' for Inactive)
REMARK    1  A    between atoms: C_1  and  N_2
REMARK    2  A    between atoms: N_5  and  C_8
REMARK    3  A    between atoms: C_15  and  C_18
REMARK    4  A    between atoms: C_22  and  C_28
REMARK    5  A    between atoms: C_31  and  O_36
REMARK    6  A    between atoms: C_32  and  O_34
REMARK    7  A    between atoms: O_34  and  C_35
REMARK                            x       y       z     vdW  Elec       q    Type
REMARK                         _______ _______ _______ _____ _____    ______ ____
ROOT
ATOM      1  C   UNL     1      -3.177  -1.379   5.608  0.00  0.00    +0.135 A 
ATOM      2  C   UNL     1      -3.100   0.077   5.435  0.00  0.00    +0.030 A 
ATOM      3  C   UNL     1      -2.554   0.904   4.449  0.00  0.00    +0.013 A 
ATOM      4  C   UNL     1      -2.642   2.259   4.572  0.00  0.00    +0.009 A 
ATOM      5  C   UNL     1      -3.276   2.831   5.681  0.00  0.00    -0.016 A 
ATOM      6  C   UNL     1      -3.824   2.025   6.669  0.00  0.00    +0.036 A 
ATOM      7  C   UNL     1      -3.740   0.642   6.553  0.00  0.00    +0.067 A 
ATOM      8  N   UNL     1      -4.169  -0.400   7.338  0.00  0.00    -0.276 N 
ATOM      9  H   UNL     1      -4.646  -0.310   8.178  0.00  0.00    +0.189 HD
ATOM     10  N   UNL     1      -3.815  -1.610   6.732  0.00  0.00    -0.170 NA
ENDROOT
BRANCH   1  18
ATOM     11  C   UNL     1      -0.972  -3.610   1.777  0.00  0.00    +0.057 A 
ATOM     12  C   UNL     1      -0.755  -4.931   1.431  0.00  0.00    +0.025 A 
ATOM     13  C   UNL     1      -1.210  -5.955   2.248  0.00  0.00    +0.004 A 
ATOM     14  C   UNL     1      -1.885  -5.671   3.416  0.00  0.00    +0.028 A 
ATOM     15  C   UNL     1      -2.115  -4.352   3.783  0.00  0.00    +0.068 A 
ATOM     16  C   UNL     1      -1.653  -3.306   2.967  0.00  0.00    +0.110 A 
ATOM     17  N   UNL     1      -2.006  -2.143   3.565  0.00  0.00    -0.224 NA
ATOM     18  C   UNL     1      -2.641  -2.398   4.684  0.00  0.00    +0.160 A 
ATOM     19  N   UNL     1      -2.742  -3.753   4.859  0.00  0.00    -0.337 N 
ATOM     20  H   UNL     1      -3.165  -4.208   5.605  0.00  0.00    +0.167 HD
BRANCH  11  25
ATOM     21  C   UNL     1      -0.018   1.465   0.010  0.00  0.00    -0.096 C 
ATOM     22  N   UNL     1       0.002  -0.004   0.002  0.00  0.00    +0.380 N 
ATOM     23  C   UNL     1      -1.376  -0.510   0.002  0.00  0.00    -0.060 C 
ATOM     24  C   UNL     1      -1.358  -2.038  -0.122  0.00  0.00    +0.086 C 
ATOM     25  N   UNL     1      -0.511  -2.583   0.950  0.00  0.00    -0.332 N 
ATOM     26  C   UNL     1       0.834  -2.015   1.127  0.00  0.00    +0.086 C 
ATOM     27  C   UNL     1       0.713  -0.489   1.192  0.00  0.00    -0.060 C 
ATOM     28  H   UNL     1       0.477  -0.328  -0.827  0.00  0.00    -0.082 HD
ENDBRANCH  11  25
ENDBRANCH   1  18
BRANCH   5  29
ATOM     29  C   UNL     1      -3.363   4.307   5.800  0.00  0.00    -0.014 A 
ATOM     30  C   UNL     1      -3.989   4.882   6.905  0.00  0.00    +0.012 A 
ATOM     31  C   UNL     1      -4.069   6.255   7.016  0.00  0.00    +0.050 A 
ATOM     32  C   UNL     1      -3.529   7.066   6.029  0.00  0.00    +0.158 A 
ATOM     33  C   UNL     1      -2.903   6.497   4.923  0.00  0.00    +0.162 A 
ATOM     34  C   UNL     1      -2.815   5.121   4.810  0.00  0.00    +0.058 A 
BRANCH  33  35
ATOM     35  O   UNL     1      -2.374   7.293   3.956  0.00  0.00    -0.491 OA
ATOM     36  C   UNL     1      -1.747   6.642   2.849  0.00  0.00    +0.277 C 
ENDBRANCH  33  35
BRANCH  32  37
ATOM     37  O   UNL     1      -3.610   8.418   6.141  0.00  0.00    -0.503 OA
ATOM     38  H   UNL     1      -2.862   8.820   6.605  0.00  0.00    +0.292 HD
ENDBRANCH  32  37
ENDBRANCH   5  29
TORSDOF 5
