REMARK  Name = CHEMBL1086736
REMARK  5 active torsions:
REMARK  status: ('A' for Active; 'I' for Inactive)
REMARK    1  A    between atoms: C_1  and  O_2
REMARK    2  A    between atoms: O_2  and  C_3
REMARK    3  A    between atoms: C_8  and  C_9
REMARK    4  A    between atoms: N_15  and  N_16
REMARK    5  A    between atoms: N_16  and  C_17
REMARK                            x       y       z     vdW  Elec       q    Type
REMARK                         _______ _______ _______ _____ _____    ______ ____
ROOT
ATOM      1  C   UNL     1      -0.045  -2.861  -0.013  0.00  0.00    +0.131 C 
ATOM      2  N   UNL     1       1.201  -2.430  -0.018  0.00  0.00    -0.143 NA
ATOM      3  N   UNL     1       2.054  -3.382  -0.033  0.00  0.00    -0.104 NA
ATOM      4  C   UNL     1       1.497  -4.574  -0.041  0.00  0.00    +0.317 C 
ATOM      5  O   UNL     1       2.131  -5.774  -0.058  0.00  0.00    -0.262 OA
ATOM      6  C   UNL     1       0.044  -4.337  -0.022  0.00  0.00    +0.177 C 
ATOM      7  N   UNL     1      -0.938  -5.225  -0.017  0.00  0.00    -0.175 NA
ENDROOT
BRANCH   1  13
ATOM      8  C   UNL     1      -1.198  -0.636   0.010  0.00  0.00    +0.132 A 
ATOM      9  C   UNL     1      -2.386   0.086   0.019  0.00  0.00    +0.066 A 
ATOM     10  C   UNL     1      -3.588  -0.593   0.028  0.00  0.00    +0.114 A 
ATOM     11  N   UNL     1      -3.627  -1.913   0.026  0.00  0.00    -0.262 NA
ATOM     12  C   UNL     1      -2.531  -2.644   0.018  0.00  0.00    +0.124 A 
ATOM     13  C   UNL     1      -1.275  -2.040   0.003  0.00  0.00    +0.064 A 
BRANCH   8  15
ATOM     14  C   UNL     1      -0.017   1.425   0.010  0.00  0.00    +0.277 C 
ATOM     15  O   UNL     1       0.002  -0.004   0.002  0.00  0.00    -0.494 OA
ENDBRANCH   8  15
ENDBRANCH   1  13
BRANCH   7  16
ATOM     16  N   UNL     1      -0.667  -6.486  -0.027  0.00  0.00    -0.237 N 
ATOM     17  H   UNL     1       0.256  -6.784  -0.038  0.00  0.00    +0.174 HD
BRANCH  16  18
ATOM     18  C   UNL     1      -1.702  -7.421  -0.021  0.00  0.00    +0.048 A 
ATOM     19  C   UNL     1      -3.025  -6.996  -0.012  0.00  0.00    +0.025 A 
ATOM     20  C   UNL     1      -4.047  -7.925  -0.006  0.00  0.00    +0.002 A 
ATOM     21  C   UNL     1      -3.755  -9.277  -0.011  0.00  0.00    +0.000 A 
ATOM     22  C   UNL     1      -2.439  -9.704  -0.020  0.00  0.00    +0.002 A 
ATOM     23  C   UNL     1      -1.412  -8.781  -0.032  0.00  0.00    +0.025 A 
ENDBRANCH  16  18
ENDBRANCH   7  16
TORSDOF 4
