REMARK  Name = CHEMBL319103
REMARK  7 active torsions:
REMARK  status: ('A' for Active; 'I' for Inactive)
REMARK    1  A    between atoms: C_4  and  S_7
REMARK    2  A    between atoms: S_7  and  N_10
REMARK    3  A    between atoms: N_10  and  C_11
REMARK    4  A    between atoms: C_15  and  C_17
REMARK    5  A    between atoms: N_23  and  C_24
REMARK    6  A    between atoms: C_27  and  S_30
REMARK    7  A    between atoms: S_30  and  N_33
REMARK                            x       y       z     vdW  Elec       q    Type
REMARK                         _______ _______ _______ _____ _____    ______ ____
ROOT
ATOM      1  C   UNL     1       3.783  -4.402   5.197  0.00  0.00    +0.068 A 
ATOM      2  C   UNL     1       3.116  -5.326   5.949  0.00  0.00    +0.073 A 
ATOM      3  C   UNL     1       4.070  -6.137   6.577  0.00  0.00    +0.145 A 
ATOM      4  N   UNL     1       5.264  -5.722   6.223  0.00  0.00    -0.158 NA
ATOM      5  N   UNL     1       5.117  -4.636   5.350  0.00  0.00    -0.275 N 
ATOM      6  H   UNL     1       5.836  -4.138   4.931  0.00  0.00    +0.189 HD
ATOM      7  N   UNL     1       3.797  -7.207   7.438  0.00  0.00    -0.298 N 
ATOM      8  H   UNL     1       2.881  -7.495   7.578  0.00  0.00    +0.154 HD
ENDROOT
BRANCH   1  13
ATOM      9  C   UNL     1       3.396  -1.478   2.863  0.00  0.00    +0.049 A 
ATOM     10  C   UNL     1       2.011  -1.363   2.806  0.00  0.00    +0.024 A 
ATOM     11  C   UNL     1       1.211  -2.231   3.523  0.00  0.00    +0.002 A 
ATOM     12  C   UNL     1       1.781  -3.220   4.300  0.00  0.00    +0.010 A 
ATOM     13  C   UNL     1       3.169  -3.344   4.364  0.00  0.00    +0.002 A 
ATOM     14  C   UNL     1       3.977  -2.471   3.636  0.00  0.00    +0.034 A 
BRANCH   9  15
ATOM     15  N   UNL     1       4.201  -0.597   2.136  0.00  0.00    -0.216 N 
ATOM     16  H   UNL     1       4.674   0.116   2.593  0.00  0.00    +0.174 HD
BRANCH  15  17
ATOM     17  S   UNL     1       4.347  -0.771   0.496  0.00  0.00    +0.072 S 
ATOM     18  O   UNL     1       5.260   0.228   0.062  0.00  0.00    -0.150 OA
ATOM     19  O   UNL     1       3.027  -0.873  -0.021  0.00  0.00    -0.150 OA
BRANCH  17  23
ATOM     20  C   UNL     1       6.345  -4.762  -0.257  0.00  0.00    +0.000 A 
ATOM     21  C   UNL     1       4.971  -4.691  -0.126  0.00  0.00    +0.002 A 
ATOM     22  C   UNL     1       4.361  -3.472   0.104  0.00  0.00    +0.029 A 
ATOM     23  C   UNL     1       5.125  -2.324   0.204  0.00  0.00    +0.108 A 
ATOM     24  C   UNL     1       6.499  -2.396   0.073  0.00  0.00    +0.029 A 
ATOM     25  C   UNL     1       7.109  -3.614  -0.158  0.00  0.00    +0.002 A 
ENDBRANCH  17  23
ENDBRANCH  15  17
ENDBRANCH   9  15
ENDBRANCH   1  13
BRANCH   7  26
ATOM     26  C   UNL     1       4.843  -7.859   8.095  0.00  0.00    +0.033 A 
ATOM     27  C   UNL     1       5.992  -7.159   8.440  0.00  0.00    +0.025 A 
ATOM     28  C   UNL     1       7.024  -7.806   9.091  0.00  0.00    +0.030 A 
ATOM     29  C   UNL     1       6.914  -9.150   9.399  0.00  0.00    +0.105 A 
ATOM     30  C   UNL     1       5.771  -9.850   9.057  0.00  0.00    +0.030 A 
ATOM     31  C   UNL     1       4.734  -9.207   8.411  0.00  0.00    +0.025 A 
BRANCH  29  32
ATOM     32  S   UNL     1       8.233  -9.973  10.228  0.00  0.00    +0.056 S 
ATOM     33  O   UNL     1       8.111 -11.354   9.916  0.00  0.00    -0.153 OA
ATOM     34  O   UNL     1       9.413  -9.230   9.951  0.00  0.00    -0.153 OA
BRANCH  32  35
ATOM     35  N   UNL     1       7.955  -9.829  11.854  0.00  0.00    -0.204 NA
ATOM     36  H   UNL     1       7.171  -9.353  12.172  0.00  0.00    +0.144 HD
ATOM     37  H   UNL     1       8.575 -10.219  12.489  0.00  0.00    +0.144 HD
ENDBRANCH  32  35
ENDBRANCH  29  32
ENDBRANCH   7  26
TORSDOF 7
