REMARK  Name = CHEMBL322970
REMARK  5 active torsions:
REMARK  status: ('A' for Active; 'I' for Inactive)
REMARK    1  A    between atoms: C_4  and  N_23
REMARK    2  A    between atoms: C_5  and  C_7
REMARK    3  A    between atoms: C_8  and  N_14
REMARK    4  A    between atoms: N_14  and  C_15
REMARK    5  A    between atoms: C_18  and  O_22
REMARK                            x       y       z     vdW  Elec       q    Type
REMARK                         _______ _______ _______ _____ _____    ______ ____
ROOT
ATOM      1  C   UNL     1       1.133  -2.236   0.018  0.00  0.00    +0.073 C 
ATOM      2  C   UNL     1       1.002  -3.011  -1.105  0.00  0.00    +0.107 C 
ATOM      3  C   UNL     1       1.353  -4.394  -0.699  0.00  0.00    +0.265 C 
ATOM      4  O   UNL     1       1.355  -5.368  -1.424  0.00  0.00    -0.268 OA
ATOM      5  N   UNL     1       1.669  -4.385   0.608  0.00  0.00    -0.247 N 
ATOM      6  C   UNL     1       1.567  -3.139   1.101  0.00  0.00    +0.253 C 
ATOM      7  O   UNL     1       1.792  -2.811   2.249  0.00  0.00    -0.270 OA
ATOM      8  H   UNL     1       1.935  -5.165   1.120  0.00  0.00    +0.158 HD
ENDROOT
BRANCH   1  13
ATOM      9  C   UNL     1      -0.630   1.073   0.240  0.00  0.00    +0.001 A 
ATOM     10  C   UNL     1       0.443   1.945   0.315  0.00  0.00    +0.002 A 
ATOM     11  C   UNL     1       1.739   1.461   0.294  0.00  0.00    +0.033 A 
ATOM     12  C   UNL     1       1.970   0.104   0.197  0.00  0.00    +0.134 A 
ATOM     13  C   UNL     1       0.893  -0.781   0.122  0.00  0.00    +0.019 A 
ATOM     14  C   UNL     1      -0.413  -0.285   0.144  0.00  0.00    +0.011 A 
BRANCH  12  15
ATOM     15  N   UNL     1       3.357  -0.412   0.174  0.00  0.00    +0.057 N 
ATOM     16  O   UNL     1       4.289   0.355   0.239  0.00  0.00    -0.126 OA
ATOM     17  O   UNL     1       3.558  -1.602   0.090  0.00  0.00    -0.126 OA
ENDBRANCH  12  15
ENDBRANCH   1  13
BRANCH   2  18
ATOM     18  N   UNL     1       0.620  -2.590  -2.360  0.00  0.00    -0.310 N 
ATOM     19  H   UNL     1       1.127  -1.900  -2.815  0.00  0.00    +0.152 HD
BRANCH  18  20
ATOM     20  C   UNL     1      -0.498  -3.157  -2.976  0.00  0.00    +0.033 A 
ATOM     21  C   UNL     1      -1.314  -4.032  -2.269  0.00  0.00    +0.027 A 
ATOM     22  C   UNL     1      -2.418  -4.591  -2.879  0.00  0.00    +0.049 A 
ATOM     23  C   UNL     1      -2.715  -4.281  -4.198  0.00  0.00    +0.135 A 
ATOM     24  C   UNL     1      -1.901  -3.408  -4.907  0.00  0.00    +0.084 A 
ATOM     25  C   UNL     1      -0.798  -2.843  -4.296  0.00  0.00    +0.047 A 
ATOM     26 CL   UNL     1      -2.273  -3.021  -6.558  0.00  0.00    -0.080 Cl
BRANCH  23  27
ATOM     27  O   UNL     1      -3.803  -4.834  -4.798  0.00  0.00    -0.505 OA
ATOM     28  H   UNL     1      -4.612  -4.313  -4.700  0.00  0.00    +0.292 HD
ENDBRANCH  23  27
ENDBRANCH  18  20
ENDBRANCH   2  18
TORSDOF 5
