REMARK  Name = CHEMBL115220
REMARK  3 active torsions:
REMARK  status: ('A' for Active; 'I' for Inactive)
REMARK    1  A    between atoms: C_6  and  C_11
REMARK    2  A    between atoms: C_11  and  C_12
REMARK    3  A    between atoms: C_17  and  C_21
REMARK                            x       y       z     vdW  Elec       q    Type
REMARK                         _______ _______ _______ _____ _____    ______ ____
ROOT
ATOM      1  C   UNL     1       5.463  -2.949   1.355  0.00  0.00    +0.223 C 
ATOM      2  O   UNL     1       4.781  -2.575   2.286  0.00  0.00    -0.275 OA
ATOM      3  N   UNL     1       6.627  -3.587   1.586  0.00  0.00    -0.269 N 
ATOM      4  C   UNL     1       7.050  -3.818   2.902  0.00  0.00    +0.147 A 
ATOM      5  C   UNL     1       6.360  -3.446   4.068  0.00  0.00    +0.068 A 
ATOM      6  C   UNL     1       7.095  -3.846   5.130  0.00  0.00    +0.041 A 
ATOM      7  N   UNL     1       8.208  -4.449   4.661  0.00  0.00    -0.280 N 
ATOM      8  H   UNL     1       8.917  -4.834   5.199  0.00  0.00    +0.189 HD
ATOM      9  N   UNL     1       8.156  -4.425   3.261  0.00  0.00    -0.158 NA
ATOM     10  H   UNL     1       7.172  -3.886   0.842  0.00  0.00    +0.156 HD
ENDROOT
BRANCH   6  11
ATOM     11  C   UNL     1       6.736  -3.653   6.581  0.00  0.00    +0.037 C 
ATOM     12  C   UNL     1       7.881  -3.421   7.568  0.00  0.00    +0.010 C 
ATOM     13  C   UNL     1       7.136  -4.757   7.561  0.00  0.00    +0.010 C 
ENDBRANCH   6  11
BRANCH   1  14
ATOM     14  C   UNL     1       5.008  -2.700  -0.060  0.00  0.00    +0.131 C 
BRANCH  14  20
ATOM     15  C   UNL     1      -0.016   1.357   0.009  0.00  0.00    +0.001 A 
ATOM     16  C   UNL     1       1.169   2.091   0.002  0.00  0.00    +0.001 A 
ATOM     17  C   UNL     1       2.378   1.468  -0.013  0.00  0.00    +0.008 A 
ATOM     18  C   UNL     1       2.438   0.063  -0.021  0.00  0.00    -0.018 A 
ATOM     19  C   UNL     1       3.668  -0.615  -0.036  0.00  0.00    +0.012 A 
ATOM     20  C   UNL     1       3.687  -1.976  -0.043  0.00  0.00    -0.038 A 
ATOM     21  C   UNL     1       2.502  -2.710  -0.036  0.00  0.00    +0.005 A 
ATOM     22  C   UNL     1       1.292  -2.087  -0.021  0.00  0.00    +0.009 A 
ATOM     23  C   UNL     1       1.233  -0.683  -0.013  0.00  0.00    -0.018 A 
ATOM     24  C   UNL     1       0.002  -0.004   0.002  0.00  0.00    +0.008 A 
ENDBRANCH  14  20
ENDBRANCH   1  14
TORSDOF 3
