REMARK  Name = CHEMBL270687
REMARK  5 active torsions:
REMARK  status: ('A' for Active; 'I' for Inactive)
REMARK    1  A    between atoms: C_1  and  C_2
REMARK    2  A    between atoms: C_2  and  C_3
REMARK    3  A    between atoms: C_3  and  O_4
REMARK    4  A    between atoms: O_4  and  C_5
REMARK    5  A    between atoms: C_11  and  C_15
REMARK                            x       y       z     vdW  Elec       q    Type
REMARK                         _______ _______ _______ _____ _____    ______ ____
ROOT
ATOM      1  C   UNL     1      -2.615  -2.595   0.013  0.00  0.00    +0.133 A 
ATOM      2  C   UNL     1      -3.803  -1.875   0.022  0.00  0.00    +0.066 A 
ATOM      3  C   UNL     1      -5.007  -2.557   0.030  0.00  0.00    +0.117 A 
ATOM      4  N   UNL     1      -5.055  -3.873   0.029  0.00  0.00    -0.237 NA
ATOM      5  C   UNL     1      -3.953  -4.614   0.020  0.00  0.00    +0.142 A 
ATOM      6  C   UNL     1      -2.694  -3.992   0.006  0.00  0.00    +0.069 A 
ATOM      7  C   UNL     1      -1.700  -5.077  -0.008  0.00  0.00    +0.031 A 
ATOM      8  C   UNL     1      -2.401  -6.240  -0.008  0.00  0.00    +0.095 A 
ATOM      9  N   UNL     1      -3.737  -5.972   0.018  0.00  0.00    -0.345 N 
ATOM     10  H   UNL     1      -4.436  -6.644   0.022  0.00  0.00    +0.167 HD
ENDROOT
BRANCH   7  11
ATOM     11  C   UNL     1      -0.229  -4.930  -0.021  0.00  0.00    +0.078 A 
ATOM     12  C   UNL     1       0.599  -6.059  -0.040  0.00  0.00    +0.048 A 
ATOM     13  C   UNL     1       1.967  -5.871  -0.052  0.00  0.00    +0.116 A 
ATOM     14  N   UNL     1       2.453  -4.639  -0.045  0.00  0.00    -0.223 NA
ATOM     15  C   UNL     1       1.647  -3.587  -0.027  0.00  0.00    +0.213 A 
ATOM     16  N   UNL     1       0.330  -3.720  -0.020  0.00  0.00    -0.215 NA
ATOM     17  N   UNL     1       2.197  -2.317  -0.020  0.00  0.00    -0.327 N 
ATOM     18  H   UNL     1       3.160  -2.205  -0.029  0.00  0.00    +0.145 HD
ATOM     19  H   UNL     1       1.618  -1.538  -0.007  0.00  0.00    +0.145 HD
ENDBRANCH   7  11
BRANCH   1  20
ATOM     20  O   UNL     1      -1.414  -1.962   0.005  0.00  0.00    -0.491 OA
BRANCH  20  21
ATOM     21  C   UNL     1      -1.433  -0.534   0.013  0.00  0.00    +0.229 C 
BRANCH  21  23
ATOM     22  C   UNL     1      -0.019   1.526   0.010  0.00  0.00    +0.007 C 
ATOM     23  C   UNL     1       0.002  -0.004   0.002  0.00  0.00    +0.038 C 
ENDBRANCH  21  23
ENDBRANCH  20  21
ENDBRANCH   1  20
TORSDOF 4
