REMARK  Name = CHEMBL489245
REMARK  6 active torsions:
REMARK  status: ('A' for Active; 'I' for Inactive)
REMARK    1  A    between atoms: C_1  and  O_2
REMARK    2  A    between atoms: O_2  and  C_3
REMARK    3  A    between atoms: C_6  and  C_10
REMARK    4  A    between atoms: C_8  and  O_9
REMARK    5  A    between atoms: C_10  and  N_11
REMARK    6  A    between atoms: N_11  and  C_12
REMARK                            x       y       z     vdW  Elec       q    Type
REMARK                         _______ _______ _______ _____ _____    ______ ____
ROOT
ATOM      1  C   UNL     1       4.736  -3.298  -5.004  0.00  0.00    +0.081 C 
ATOM      2  C   UNL     1       6.088  -3.402  -4.763  0.00  0.00    +0.058 C 
ATOM      3  C   UNL     1       7.006  -3.932  -5.793  0.00  0.00    +0.001 A 
ATOM      4  C   UNL     1       6.547  -4.345  -7.039  0.00  0.00    +0.023 A 
ATOM      5  C   UNL     1       7.444  -4.832  -7.968  0.00  0.00    +0.014 A 
ATOM      6  C   UNL     1       8.797  -4.912  -7.667  0.00  0.00    +0.015 A 
ATOM      7  C   UNL     1       9.270  -4.508  -6.438  0.00  0.00    +0.014 A 
ATOM      8  C   UNL     1       8.380  -4.011  -5.484  0.00  0.00    +0.045 A 
ATOM      9  C   UNL     1       8.842  -3.569  -4.163  0.00  0.00    +0.251 C 
ATOM     10  O   UNL     1      10.026  -3.635  -3.891  0.00  0.00    -0.270 OA
ATOM     11  N   UNL     1       7.980  -3.092  -3.250  0.00  0.00    -0.248 N 
ATOM     12  C   UNL     1       6.662  -2.983  -3.479  0.00  0.00    +0.252 C 
ATOM     13  O   UNL     1       5.934  -2.538  -2.611  0.00  0.00    -0.270 OA
ATOM     14  I   UNL     1       6.759  -5.455  -9.847  0.00  0.00    -0.044 I 
ATOM     15  H   UNL     1       8.326  -2.810  -2.389  0.00  0.00    +0.158 HD
ENDROOT
BRANCH   1  16
ATOM     16  N   UNL     1       3.938  -2.640  -4.122  0.00  0.00    -0.345 N 
ATOM     17  H   UNL     1       4.330  -2.174  -3.368  0.00  0.00    +0.146 HD
BRANCH  16  18
ATOM     18  C   UNL     1       2.485  -2.636  -4.312  0.00  0.00    +0.136 C 
BRANCH  18  22
ATOM     19  C   UNL     1       0.645  -0.380  -1.180  0.00  0.00    +0.161 A 
ATOM     20  C   UNL     1       1.034   0.247  -2.352  0.00  0.00    +0.050 A 
ATOM     21  C   UNL     1       1.629  -0.485  -3.363  0.00  0.00    +0.009 A 
ATOM     22  C   UNL     1       1.837  -1.843  -3.207  0.00  0.00    -0.027 A 
ATOM     23  C   UNL     1       1.450  -2.475  -2.040  0.00  0.00    +0.054 A 
ATOM     24  C   UNL     1       0.859  -1.746  -1.020  0.00  0.00    +0.159 A 
BRANCH  19  26
ATOM     25  C   UNL     1      -0.128   1.736  -0.418  0.00  0.00    +0.277 C 
ATOM     26  O   UNL     1       0.060   0.339  -0.184  0.00  0.00    -0.491 OA
ENDBRANCH  19  26
BRANCH  24  27
ATOM     27  O   UNL     1       0.483  -2.364   0.131  0.00  0.00    -0.503 OA
ATOM     28  H   UNL     1      -0.420  -2.708   0.116  0.00  0.00    +0.292 HD
ENDBRANCH  24  27
ENDBRANCH  18  22
ENDBRANCH  16  18
ENDBRANCH   1  16
TORSDOF 5
