REMARK  Name = CHEMBL183511
REMARK  8 active torsions:
REMARK  status: ('A' for Active; 'I' for Inactive)
REMARK    1  A    between atoms: C_1  and  C_2
REMARK    2  A    between atoms: C_2  and  C_3
REMARK    3  A    between atoms: C_2  and  C_4
REMARK    4  A    between atoms: C_5  and  O_27
REMARK    5  A    between atoms: N_14  and  C_15
REMARK    6  A    between atoms: C_18  and  N_21
REMARK    7  A    between atoms: C_24  and  N_26
REMARK    8  A    between atoms: O_27  and  C_28
REMARK                            x       y       z     vdW  Elec       q    Type
REMARK                         _______ _______ _______ _____ _____    ______ ____
ROOT
ATOM      1  C   UNL     1      -1.592  -0.142  -0.256  0.00  0.00    +0.023 A 
ATOM      2  C   UNL     1      -2.451   0.194   0.768  0.00  0.00    +0.126 A 
ATOM      3  C   UNL     1      -3.696  -0.432   0.892  0.00  0.00    +0.046 A 
ATOM      4  C   UNL     1      -4.089  -1.388   0.007  0.00  0.00    +0.015 A 
ATOM      5  C   UNL     1      -3.237  -1.753  -1.046  0.00  0.00    +0.019 A 
ATOM      6  C   UNL     1      -1.974  -1.119  -1.183  0.00  0.00    +0.083 A 
ATOM      7  N   UNL     1      -1.179  -1.479  -2.200  0.00  0.00    -0.214 NA
ATOM      8  C   UNL     1      -1.573  -2.403  -3.054  0.00  0.00    +0.220 A 
ATOM      9  N   UNL     1      -2.753  -3.014  -2.958  0.00  0.00    -0.222 NA
ATOM     10  C   UNL     1      -3.597  -2.736  -1.986  0.00  0.00    +0.124 A 
ATOM     11  N   UNL     1      -0.728  -2.752  -4.093  0.00  0.00    -0.284 N 
ATOM     12  H   UNL     1       0.167  -2.380  -4.136  0.00  0.00    +0.155 HD
ENDROOT
BRANCH  11  13
ATOM     13  C   UNL     1      -1.163  -3.643  -5.082  0.00  0.00    +0.034 A 
ATOM     14  C   UNL     1      -2.495  -3.646  -5.476  0.00  0.00    +0.025 A 
ATOM     15  C   UNL     1      -2.925  -4.524  -6.451  0.00  0.00    +0.025 A 
ATOM     16  C   UNL     1      -2.025  -5.404  -7.038  0.00  0.00    +0.030 A 
ATOM     17  C   UNL     1      -0.693  -5.400  -6.645  0.00  0.00    +0.025 A 
ATOM     18  C   UNL     1      -0.263  -4.518  -5.674  0.00  0.00    +0.025 A 
BRANCH  16  19
ATOM     19  N   UNL     1      -2.461  -6.294  -8.026  0.00  0.00    -0.332 N 
ATOM     20  C   UNL     1      -3.834  -6.400  -8.539  0.00  0.00    +0.103 C 
ATOM     21  C   UNL     1      -3.834  -7.491  -9.630  0.00  0.00    +0.004 C 
ATOM     22  C   UNL     1      -2.346  -7.544 -10.068  0.00  0.00    -0.056 C 
ATOM     23  C   UNL     1      -1.617  -7.277  -8.730  0.00  0.00    +0.089 C 
BRANCH  22  24
ATOM     24  N   UNL     1      -2.001  -8.868 -10.603  0.00  0.00    +0.381 N 
ATOM     25  H   UNL     1      -2.564  -9.058 -11.418  0.00  0.00    -0.090 HD
ATOM     26  H   UNL     1      -1.025  -8.884 -10.857  0.00  0.00    -0.090 HD
ATOM     27  H   UNL     1      -2.177  -9.571  -9.901  0.00  0.00    -0.090 HD
ENDBRANCH  22  24
ENDBRANCH  16  19
ENDBRANCH  11  13
BRANCH   1  29
ATOM     28  C   UNL     1      -0.463   2.046  -0.550  0.00  0.00    +0.012 C 
ATOM     29  C   UNL     1      -0.254   0.539  -0.379  0.00  0.00    +0.019 C 
ATOM     30  C   UNL     1       0.570   0.279   0.884  0.00  0.00    +0.012 C 
ENDBRANCH   1  29
BRANCH   2  31
ATOM     31  O   UNL     1      -2.086   1.144   1.666  0.00  0.00    -0.495 OA
ATOM     32  C   UNL     1      -3.019   1.450   2.704  0.00  0.00    +0.277 C 
ENDBRANCH   2  31
TORSDOF 5
