REMARK  Name = CHEMBL430653
REMARK  7 active torsions:
REMARK  status: ('A' for Active; 'I' for Inactive)
REMARK    1  A    between atoms: C_1  and  C_2
REMARK    2  A    between atoms: C_2  and  C_3
REMARK    3  A    between atoms: C_2  and  C_4
REMARK    4  A    between atoms: C_2  and  C_5
REMARK    5  A    between atoms: C_8  and  C_10
REMARK    6  A    between atoms: C_10  and  S_11
REMARK    7  A    between atoms: S_11  and  C_12
REMARK                            x       y       z     vdW  Elec       q    Type
REMARK                         _______ _______ _______ _____ _____    ______ ____
ROOT
ATOM      1  C   UNL     1       1.201  -4.815  -5.602  0.00  0.00    +0.067 A 
ATOM      2  C   UNL     1       1.381  -6.123  -5.934  0.00  0.00    +0.135 A 
ATOM      3  N   UNL     1       1.139  -6.522  -7.170  0.00  0.00    -0.232 NA
ATOM      4  C   UNL     1       0.724  -5.676  -8.095  0.00  0.00    +0.164 A 
ATOM      5  S   UNL     1       0.647  -4.150  -7.167  0.00  0.00    -0.046 S 
ATOM      6  N   UNL     1       0.422  -5.910  -9.432  0.00  0.00    -0.279 N 
ATOM      7  C   UNL     1       0.646  -7.166  -9.986  0.00  0.00    +0.124 A 
ATOM      8  C   UNL     1       0.444  -7.365 -11.348  0.00  0.00    +0.044 A 
ATOM      9  C   UNL     1       0.671  -8.618 -11.885  0.00  0.00    +0.005 A 
ATOM     10  C   UNL     1       1.094  -9.636 -11.040  0.00  0.00    +0.020 A 
ATOM     11  C   UNL     1       1.274  -9.368  -9.697  0.00  0.00    +0.113 A 
ATOM     12  N   UNL     1       1.054  -8.161  -9.213  0.00  0.00    -0.240 NA
ATOM     13  H   UNL     1       0.055  -5.197  -9.978  0.00  0.00    +0.155 HD
ENDROOT
BRANCH   1  14
ATOM     14  S   UNL     1       1.441  -4.004  -4.056  0.00  0.00    -0.107 S 
BRANCH  14  15
ATOM     15  C   UNL     1       0.991  -2.279  -4.392  0.00  0.00    +0.170 C 
BRANCH  15  19
ATOM     16  C   UNL     1       0.735  -0.482  -1.244  0.00  0.00    +0.131 A 
ATOM     17  C   UNL     1       2.006  -0.225  -1.596  0.00  0.00    +0.156 A 
ATOM     18  N   UNL     1       2.238  -0.843  -2.767  0.00  0.00    -0.221 NA
ATOM     19  C   UNL     1       1.153  -1.464  -3.135  0.00  0.00    +0.206 A 
ATOM     20  O   UNL     1       0.207  -1.262  -2.208  0.00  0.00    -0.443 OA
BRANCH  16  22
ATOM     21  C   UNL     1       0.014   1.536   0.004  0.00  0.00    +0.019 C 
ATOM     22  C   UNL     1       0.033   0.006  -0.003  0.00  0.00    +0.022 C 
ATOM     23  C   UNL     1       0.777  -0.500   1.235  0.00  0.00    +0.019 C 
ATOM     24  C   UNL     1      -1.402  -0.522   0.013  0.00  0.00    +0.019 C 
ENDBRANCH  16  22
ENDBRANCH  15  19
ENDBRANCH  14  15
ENDBRANCH   1  14
TORSDOF 4
