REMARK  Name = CHEMBL272380
REMARK  7 active torsions:
REMARK  status: ('A' for Active; 'I' for Inactive)
REMARK    1  A    between atoms: C_3  and  C_23
REMARK    2  A    between atoms: N_11  and  N_12
REMARK    3  A    between atoms: N_12  and  C_13
REMARK    4  A    between atoms: C_16  and  S_19
REMARK    5  A    between atoms: S_19  and  N_22
REMARK    6  A    between atoms: C_24  and  C_25
REMARK    7  A    between atoms: C_28  and  O_31
REMARK                            x       y       z     vdW  Elec       q    Type
REMARK                         _______ _______ _______ _____ _____    ______ ____
ROOT
ATOM      1  C   UNL     1      -0.017   1.378   0.010  0.00  0.00    +0.002 A 
ATOM      2  C   UNL     1       1.159   2.101   0.002  0.00  0.00    +0.009 A 
ATOM      3  C   UNL     1       2.387   1.434  -0.013  0.00  0.00    -0.014 A 
ATOM      4  C   UNL     1       2.408   0.030  -0.021  0.00  0.00    +0.035 A 
ATOM      5  C   UNL     1       1.210  -0.694  -0.013  0.00  0.00    +0.044 A 
ATOM      6  C   UNL     1       0.002  -0.004   0.002  0.00  0.00    +0.024 A 
ATOM      7  N   UNL     1       1.497  -2.054  -0.023  0.00  0.00    -0.280 N 
ATOM      8  C   UNL     1       2.823  -2.275  -0.037  0.00  0.00    +0.269 C 
ATOM      9  O   UNL     1       3.367  -3.364  -0.049  0.00  0.00    -0.268 OA
ATOM     10  C   UNL     1       3.500  -0.967  -0.037  0.00  0.00    +0.153 C 
ATOM     11  N   UNL     1       4.795  -0.736  -0.048  0.00  0.00    -0.177 NA
ATOM     12  H   UNL     1       0.826  -2.754  -0.021  0.00  0.00    +0.155 HD
ENDROOT
BRANCH  11  13
ATOM     13  N   UNL     1       5.626  -1.722  -0.061  0.00  0.00    -0.237 N 
ATOM     14  H   UNL     1       5.296  -2.634  -0.063  0.00  0.00    +0.174 HD
BRANCH  13  15
ATOM     15  C   UNL     1       6.999  -1.477  -0.073  0.00  0.00    +0.048 A 
ATOM     16  C   UNL     1       7.474  -0.170  -0.066  0.00  0.00    +0.026 A 
ATOM     17  C   UNL     1       8.834   0.069  -0.077  0.00  0.00    +0.030 A 
ATOM     18  C   UNL     1       9.723  -0.990  -0.097  0.00  0.00    +0.105 A 
ATOM     19  C   UNL     1       9.255  -2.292  -0.105  0.00  0.00    +0.030 A 
ATOM     20  C   UNL     1       7.896  -2.538  -0.088  0.00  0.00    +0.026 A 
BRANCH  18  21
ATOM     21  S   UNL     1      11.458  -0.681  -0.112  0.00  0.00    +0.056 S 
ATOM     22  O   UNL     1      12.071  -1.830  -0.680  0.00  0.00    -0.153 OA
ATOM     23  O   UNL     1      11.633   0.622  -0.652  0.00  0.00    -0.153 OA
BRANCH  21  24
ATOM     24  N   UNL     1      11.956  -0.610   1.466  0.00  0.00    -0.204 NA
ATOM     25  H   UNL     1      11.315  -0.733   2.183  0.00  0.00    +0.144 HD
ATOM     26  H   UNL     1      12.889  -0.446   1.673  0.00  0.00    +0.144 HD
ENDBRANCH  21  24
ENDBRANCH  18  21
ENDBRANCH  13  15
ENDBRANCH  11  13
BRANCH   3  27
ATOM     27  C   UNL     1       3.645   2.196  -0.021  0.00  0.00    +0.009 C 
ATOM     28  C   UNL     1       3.618   3.540  -0.014  0.00  0.00    +0.008 C 
BRANCH  28  29
ATOM     29  C   UNL     1       4.878   4.303  -0.023  0.00  0.00    -0.025 A 
ATOM     30  C   UNL     1       6.104   3.631  -0.044  0.00  0.00    +0.011 A 
ATOM     31  C   UNL     1       7.280   4.349  -0.052  0.00  0.00    +0.046 A 
ATOM     32  C   UNL     1       7.248   5.738  -0.038  0.00  0.00    +0.117 A 
ATOM     33  C   UNL     1       6.033   6.410  -0.017  0.00  0.00    +0.046 A 
ATOM     34  C   UNL     1       4.851   5.701  -0.015  0.00  0.00    +0.011 A 
BRANCH  32  35
ATOM     35  O   UNL     1       8.411   6.442  -0.045  0.00  0.00    -0.507 OA
ATOM     36  H   UNL     1       8.737   6.654  -0.930  0.00  0.00    +0.292 HD
ENDBRANCH  32  35
ENDBRANCH  28  29
ENDBRANCH   3  27
TORSDOF 7
