REMARK  Name = CHEMBL315411
REMARK  6 active torsions:
REMARK  status: ('A' for Active; 'I' for Inactive)
REMARK    1  A    between atoms: C_3  and  S_25
REMARK    2  A    between atoms: C_6  and  N_7
REMARK    3  A    between atoms: N_8  and  C_9
REMARK    4  A    between atoms: C_12  and  C_20
REMARK    5  A    between atoms: C_18  and  O_19
REMARK    6  A    between atoms: S_25  and  N_28
REMARK                            x       y       z     vdW  Elec       q    Type
REMARK                         _______ _______ _______ _____ _____    ______ ____
ROOT
ATOM      1  C   UNL     1      -2.307  -2.690   0.010  0.00  0.00    +0.154 A 
ATOM      2  C   UNL     1      -2.459  -4.158   0.009  0.00  0.00    +0.031 A 
ATOM      3  C   UNL     1      -1.557  -5.216   0.001  0.00  0.00    +0.024 A 
ATOM      4  C   UNL     1      -2.032  -6.524   0.002  0.00  0.00    +0.020 A 
ATOM      5  C   UNL     1      -3.411  -6.767   0.012  0.00  0.00    +0.013 A 
ATOM      6  C   UNL     1      -4.303  -5.720   0.020  0.00  0.00    +0.027 A 
ATOM      7  C   UNL     1      -3.842  -4.407   0.018  0.00  0.00    +0.051 A 
ATOM      8  N   UNL     1      -4.492  -3.185   0.024  0.00  0.00    -0.324 N 
ATOM      9  H   UNL     1      -5.455  -3.071   0.031  0.00  0.00    +0.169 HD
ATOM     10  C   UNL     1      -3.590  -2.167   0.025  0.00  0.00    +0.219 A 
ENDROOT
BRANCH   4  11
ATOM     11  C   UNL     1      -1.082  -7.657  -0.007  0.00  0.00    +0.155 A 
ATOM     12  C   UNL     1      -1.397  -8.977  -0.012  0.00  0.00    +0.160 A 
ATOM     13  N   UNL     1      -0.246  -9.667  -0.020  0.00  0.00    -0.224 NA
ATOM     14  C   UNL     1       0.750  -8.826  -0.019  0.00  0.00    +0.308 A 
ATOM     15  O   UNL     1       0.267  -7.576  -0.017  0.00  0.00    -0.442 OA
ENDBRANCH   4  11
BRANCH   1  17
ATOM     16  N   UNL     1      -1.171  -0.707   0.009  0.00  0.00    -0.149 NA
ATOM     17  N   UNL     1      -1.150  -1.997   0.002  0.00  0.00    -0.143 NA
BRANCH  16  23
ATOM     18  C   UNL     1      -0.017   1.393   0.010  0.00  0.00    +0.031 A 
ATOM     19  C   UNL     1       1.170   2.095   0.002  0.00  0.00    +0.030 A 
ATOM     20  C   UNL     1       2.378   1.420  -0.013  0.00  0.00    +0.105 A 
ATOM     21  C   UNL     1       2.404   0.036  -0.021  0.00  0.00    +0.030 A 
ATOM     22  C   UNL     1       1.225  -0.679  -0.014  0.00  0.00    +0.031 A 
ATOM     23  C   UNL     1       0.002  -0.004   0.002  0.00  0.00    +0.086 A 
BRANCH  20  24
ATOM     24  S   UNL     1       3.889   2.326  -0.023  0.00  0.00    +0.056 S 
ATOM     25  O   UNL     1       4.872   1.469  -0.588  0.00  0.00    -0.153 OA
ATOM     26  O   UNL     1       3.592   3.605  -0.565  0.00  0.00    -0.153 OA
BRANCH  24  27
ATOM     27  N   UNL     1       4.324   2.569   1.556  0.00  0.00    -0.204 NA
ATOM     28  H   UNL     1       3.766   2.227   2.271  0.00  0.00    +0.144 HD
ATOM     29  H   UNL     1       5.138   3.055   1.765  0.00  0.00    +0.144 HD
ENDBRANCH  24  27
ENDBRANCH  20  24
ENDBRANCH  16  23
ENDBRANCH   1  17
BRANCH  10  30
ATOM     30  O   UNL     1      -3.898  -0.850   0.036  0.00  0.00    -0.492 OA
ATOM     31  H   UNL     1      -3.996  -0.462  -0.845  0.00  0.00    +0.294 HD
ENDBRANCH  10  30
TORSDOF 6
