REMARK  Name = CHEMBL393929
REMARK  4 active torsions:
REMARK  status: ('A' for Active; 'I' for Inactive)
REMARK    1  A    between atoms: C_5  and  C_11
REMARK    2  A    between atoms: C_16  and  N_18
REMARK    3  A    between atoms: N_18  and  C_19
REMARK    4  A    between atoms: C_19  and  C_20
REMARK                            x       y       z     vdW  Elec       q    Type
REMARK                         _______ _______ _______ _____ _____    ______ ____
ROOT
ATOM      1  C   UNL     1       6.077   1.921  -0.044  0.00  0.00    +0.028 C 
ATOM      2  C   UNL     1       7.216   1.189   0.044  0.00  0.00    +0.079 C 
ATOM      3  C   UNL     1       8.625   1.635   0.161  0.00  0.00    +0.276 C 
ATOM      4  O   UNL     1       8.926   2.817   0.192  0.00  0.00    -0.267 OA
ATOM      5  N   UNL     1       9.532   0.686   0.229  0.00  0.00    -0.153 NA
ATOM      6  C   UNL     1       9.219  -0.600   0.196  0.00  0.00    +0.171 C 
ATOM      7  S   UNL     1       7.439  -0.586   0.060  0.00  0.00    -0.050 S 
ENDROOT
BRANCH   1  12
ATOM      8  C   UNL     1       0.006   1.226  -0.320  0.00  0.00    +0.020 A 
ATOM      9  C   UNL     1       1.155   1.912  -0.047  0.00  0.00    +0.011 A 
ATOM     10  C   UNL     1       2.386   1.275  -0.302  0.00  0.00    +0.001 A 
ATOM     11  C   UNL     1       3.603   1.919  -0.045  0.00  0.00    +0.018 A 
ATOM     12  C   UNL     1       4.795   1.255  -0.310  0.00  0.00    -0.023 A 
ATOM     13  C   UNL     1       4.779  -0.054  -0.832  0.00  0.00    +0.010 A 
ATOM     14  C   UNL     1       3.607  -0.688  -1.085  0.00  0.00    +0.029 A 
ATOM     15  C   UNL     1       2.382  -0.042  -0.827  0.00  0.00    +0.071 A 
ATOM     16  N   UNL     1       1.221  -0.656  -1.071  0.00  0.00    -0.255 NA
ATOM     17  C   UNL     1       0.074  -0.066  -0.835  0.00  0.00    +0.111 A 
ENDBRANCH   1  12
BRANCH   6  18
ATOM     18  N   UNL     1      10.058  -1.681   0.257  0.00  0.00    -0.224 NA
BRANCH  18  19
ATOM     19  C   UNL     1      11.504  -1.480   0.376  0.00  0.00    +0.172 C 
BRANCH  19  20
ATOM     20  C   UNL     1      12.195  -2.818   0.424  0.00  0.00    +0.009 A 
ATOM     21  C   UNL     1      12.677  -3.567  -0.597  0.00  0.00    +0.013 A 
ATOM     22  C   UNL     1      13.281  -4.778  -0.314  0.00  0.00    +0.008 A 
ATOM     23  C   UNL     1      13.374  -5.180   0.977  0.00  0.00    +0.045 A 
ATOM     24  S   UNL     1      12.599  -3.825   1.843  0.00  0.00    -0.100 S 
ENDBRANCH  19  20
ENDBRANCH  18  19
ENDBRANCH   6  18
TORSDOF 4
