REMARK  Name = CHEMBL477568
REMARK  8 active torsions:
REMARK  status: ('A' for Active; 'I' for Inactive)
REMARK    1  A    between atoms: C_1  and  C_2
REMARK    2  A    between atoms: C_5  and  C_10
REMARK    3  A    between atoms: N_6  and  C_7
REMARK    4  A    between atoms: C_7  and  C_8
REMARK    5  A    between atoms: C_7  and  C_9
REMARK    6  A    between atoms: N_16  and  C_17
REMARK    7  A    between atoms: C_20  and  N_23
REMARK    8  A    between atoms: C_29  and  C_31
REMARK                            x       y       z     vdW  Elec       q    Type
REMARK                         _______ _______ _______ _____ _____    ______ ____
ROOT
ATOM      1  C   UNL     1       1.682  -3.396   1.171  0.00  0.00    +0.094 A 
ATOM      2  C   UNL     1       2.389  -3.295   2.376  0.00  0.00    +0.050 A 
ATOM      3  C   UNL     1       2.551  -4.434   3.142  0.00  0.00    +0.116 A 
ATOM      4  N   UNL     1       2.036  -5.579   2.718  0.00  0.00    -0.223 NA
ATOM      5  C   UNL     1       1.371  -5.647   1.574  0.00  0.00    +0.220 A 
ATOM      6  N   UNL     1       1.188  -4.581   0.811  0.00  0.00    -0.213 NA
ATOM      7  N   UNL     1       0.850  -6.864   1.168  0.00  0.00    -0.284 N 
ATOM      8  H   UNL     1       0.431  -6.947   0.297  0.00  0.00    +0.155 HD
ENDROOT
BRANCH   1  13
ATOM      9  C   UNL     1       1.930   1.275  -0.704  0.00  0.00    +0.086 C 
ATOM     10  C   UNL     1       1.584  -0.178  -0.505  0.00  0.00    +0.107 A 
ATOM     11  N   UNL     1       0.806  -0.886  -1.281  0.00  0.00    -0.240 NA
ATOM     12  C   UNL     1       0.720  -2.134  -0.810  0.00  0.00    +0.140 A 
ATOM     13  C   UNL     1       1.482  -2.209   0.317  0.00  0.00    +0.087 A 
ATOM     14  N   UNL     1       2.033  -0.959   0.499  0.00  0.00    -0.324 N 
BRANCH  14  15
ATOM     15  C   UNL     1       2.934  -0.554   1.581  0.00  0.00    +0.083 C 
ATOM     16  C   UNL     1       4.285  -1.251   1.407  0.00  0.00    +0.030 C 
ATOM     17  C   UNL     1       3.133   0.962   1.538  0.00  0.00    +0.030 C 
ENDBRANCH  14  15
ENDBRANCH   1  13
BRANCH   7  18
ATOM     18  C   UNL     1       0.928  -7.977   2.016  0.00  0.00    +0.034 A 
ATOM     19  C   UNL     1       0.818  -7.811   3.390  0.00  0.00    +0.025 A 
ATOM     20  C   UNL     1       0.894  -8.908   4.226  0.00  0.00    +0.025 A 
ATOM     21  C   UNL     1       1.080 -10.176   3.692  0.00  0.00    +0.030 A 
ATOM     22  C   UNL     1       1.190 -10.342   2.318  0.00  0.00    +0.025 A 
ATOM     23  C   UNL     1       1.108  -9.246   1.482  0.00  0.00    +0.025 A 
BRANCH  21  24
ATOM     24  N   UNL     1       1.158 -11.288   4.539  0.00  0.00    -0.327 N 
ATOM     25  C   UNL     1       1.482 -12.617   4.002  0.00  0.00    +0.124 C 
ATOM     26  C   UNL     1       2.697 -13.168   4.758  0.00  0.00    +0.126 C 
ATOM     27  N   UNL     1       2.457 -13.027   6.200  0.00  0.00    -0.299 N 
ATOM     28  C   UNL     1       2.132 -11.698   6.738  0.00  0.00    +0.126 C 
ATOM     29  C   UNL     1       0.922 -11.146   5.983  0.00  0.00    +0.124 C 
ATOM     30  C   UNL     1       2.531 -14.097   7.016  0.00  0.00    +0.213 C 
ATOM     31  O   UNL     1       2.898 -15.168   6.580  0.00  0.00    -0.276 OA
ATOM     32  C   UNL     1       2.159 -13.964   8.470  0.00  0.00    +0.109 C 
ENDBRANCH  21  24
ENDBRANCH   7  18
TORSDOF 4
