REMARK  Name = CHEMBL147232
REMARK  5 active torsions:
REMARK  status: ('A' for Active; 'I' for Inactive)
REMARK    1  A    between atoms: C_5  and  N_7
REMARK    2  A    between atoms: C_8  and  C_10
REMARK    3  A    between atoms: C_10  and  N_11
REMARK    4  A    between atoms: C_14  and  C_17
REMARK    5  A    between atoms: C_27  and  C_28
REMARK                            x       y       z     vdW  Elec       q    Type
REMARK                         _______ _______ _______ _____ _____    ______ ____
ROOT
ATOM      1  C   UNL     1      -0.031   1.370  -0.011  0.00  0.00    +0.002 A 
ATOM      2  C   UNL     1       1.150   2.094  -0.023  0.00  0.00    +0.011 A 
ATOM      3  C   UNL     1       2.374   1.438  -0.034  0.00  0.00    +0.015 A 
ATOM      4  C   UNL     1       2.409   0.033  -0.033  0.00  0.00    +0.053 A 
ATOM      5  C   UNL     1       1.208  -0.688  -0.022  0.00  0.00    +0.045 A 
ATOM      6  C   UNL     1      -0.007  -0.009  -0.011  0.00  0.00    +0.024 A 
ATOM      7  C   UNL     1       3.817  -0.411  -0.046  0.00  0.00    +0.199 C 
ATOM      8  O   UNL     1       4.207  -1.562  -0.049  0.00  0.00    -0.286 OA
ATOM      9  C   UNL     1       4.665   0.795  -0.055  0.00  0.00    +0.071 A 
ATOM     10  C   UNL     1       3.765   1.952  -0.047  0.00  0.00    +0.104 A 
ATOM     11  N   UNL     1       4.519   3.023  -0.055  0.00  0.00    -0.173 NA
ATOM     12  H   UNL     1       6.622   3.234  -0.076  0.00  0.00    +0.189 HD
ATOM     13  N   UNL     1       5.862   2.631  -0.068  0.00  0.00    -0.280 N 
ATOM     14  C   UNL     1       5.937   1.286  -0.067  0.00  0.00    +0.051 A 
ENDROOT
BRANCH  14  15
ATOM     15  C   UNL     1       7.203   0.468  -0.078  0.00  0.00    +0.038 C 
ATOM     16  C   UNL     1       8.034   0.798   1.163  0.00  0.00    +0.010 C 
ATOM     17  C   UNL     1       9.319  -0.032   1.152  0.00  0.00    +0.001 C 
ATOM     18  C   UNL     1      10.127   0.296  -0.106  0.00  0.00    +0.000 C 
ATOM     19  C   UNL     1       9.296  -0.035  -1.347  0.00  0.00    +0.001 C 
ATOM     20  C   UNL     1       8.011   0.795  -1.335  0.00  0.00    +0.010 C 
ENDBRANCH  14  15
BRANCH   5  21
ATOM     21  N   UNL     1       1.229  -2.080  -0.021  0.00  0.00    -0.286 N 
ATOM     22  C   UNL     1       0.287  -2.768   0.654  0.00  0.00    +0.201 C 
ATOM     23  O   UNL     1      -0.625  -2.179   1.192  0.00  0.00    -0.278 OA
ATOM     24  H   UNL     1       1.922  -2.555  -0.507  0.00  0.00    +0.155 HD
BRANCH  22  25
ATOM     25  C   UNL     1       0.368  -4.271   0.740  0.00  0.00    +0.019 C 
BRANCH  25  26
ATOM     26  N   UNL     1      -0.766  -4.778   1.523  0.00  0.00    +0.385 N 
ATOM     27  C   UNL     1      -0.659  -4.296   2.905  0.00  0.00    -0.077 C 
ATOM     28  C   UNL     1      -1.880  -4.754   3.705  0.00  0.00    -0.006 C 
ATOM     29  C   UNL     1      -1.941  -6.285   3.701  0.00  0.00    +0.071 C 
ATOM     30  C   UNL     1      -1.977  -6.779   2.252  0.00  0.00    -0.006 C 
ATOM     31  C   UNL     1      -0.753  -6.246   1.506  0.00  0.00    -0.077 C 
ATOM     32  H   UNL     1      -1.628  -4.446   1.119  0.00  0.00    -0.081 HD
BRANCH  29  33
ATOM     33  C   UNL     1      -3.184  -6.741   4.421  0.00  0.00    +0.213 C 
ATOM     34  O   UNL     1      -3.946  -5.924   4.892  0.00  0.00    -0.276 OA
ATOM     35  N   UNL     1      -3.448  -8.057   4.541  0.00  0.00    -0.329 N 
ATOM     36  H   UNL     1      -2.838  -8.711   4.164  0.00  0.00    +0.145 HD
ATOM     37  H   UNL     1      -4.247  -8.351   5.004  0.00  0.00    +0.145 HD
ENDBRANCH  29  33
ENDBRANCH  25  26
ENDBRANCH  22  25
ENDBRANCH   5  21
TORSDOF 5
