REMARK  Name = CHEMBL390918
REMARK  4 active torsions:
REMARK  status: ('A' for Active; 'I' for Inactive)
REMARK    1  A    between atoms: C_1  and  C_2
REMARK    2  A    between atoms: C_7  and  C_10
REMARK    3  A    between atoms: C_10  and  C_11
REMARK    4  A    between atoms: N_15  and  N_16
REMARK                            x       y       z     vdW  Elec       q    Type
REMARK                         _______ _______ _______ _____ _____    ______ ____
ROOT
ATOM      1  C   UNL     1      -0.018   1.503   0.010  0.00  0.00    +0.109 C 
ATOM      2  C   UNL     1       0.002  -0.004   0.002  0.00  0.00    +0.216 C 
ATOM      3  O   UNL     1       1.060  -0.596  -0.011  0.00  0.00    -0.276 OA
ATOM      4  N   UNL     1      -1.156  -0.694   0.009  0.00  0.00    -0.265 N 
ATOM      5  C   UNL     1      -1.137  -2.084   0.002  0.00  0.00    +0.165 A 
ATOM      6  N   UNL     1      -2.156  -2.915   0.002  0.00  0.00    -0.229 NA
ATOM      7  C   UNL     1      -1.971  -4.222  -0.006  0.00  0.00    +0.058 A 
ATOM      8  C   UNL     1      -0.689  -4.662  -0.014  0.00  0.00    +0.072 A 
ATOM      9  S   UNL     1       0.196  -3.111  -0.017  0.00  0.00    -0.060 S 
ATOM     10  H   UNL     1      -2.002  -0.220   0.020  0.00  0.00    +0.157 HD
ENDROOT
BRANCH   7  11
ATOM     11  C   UNL     1      -3.133  -5.182  -0.006  0.00  0.00    +0.134 C 
BRANCH  11  12
ATOM     12  C   UNL     1      -4.034  -4.879   1.163  0.00  0.00    +0.157 A 
ATOM     13  N   UNL     1      -3.942  -5.386   2.360  0.00  0.00    -0.132 NA
ATOM     14  N   UNL     1      -4.869  -4.911   3.113  0.00  0.00    -0.120 NA
ATOM     15  C   UNL     1      -5.609  -4.068   2.431  0.00  0.00    +0.219 A 
ATOM     16  N   UNL     1      -5.096  -4.018   1.167  0.00  0.00    -0.227 N 
ATOM     17  S   UNL     1      -6.998  -3.167   3.034  0.00  0.00    -0.008 SA
BRANCH  16  18
ATOM     18  N   UNL     1      -5.551  -3.265   0.121  0.00  0.00    -0.295 N 
ATOM     19  H   UNL     1      -6.242  -3.770  -0.413  0.00  0.00    +0.163 HD
ATOM     20  H   UNL     1      -5.916  -2.382   0.443  0.00  0.00    +0.163 HD
ENDBRANCH  16  18
ENDBRANCH  11  12
ENDBRANCH   7  11
TORSDOF 3
