REMARK  Name = CHEMBL362004
REMARK  1 active torsions:
REMARK  status: ('A' for Active; 'I' for Inactive)
REMARK    1  A    between atoms: C_11  and  C_15
REMARK                            x       y       z     vdW  Elec       q    Type
REMARK                         _______ _______ _______ _____ _____    ______ ____
ROOT
ATOM      1  C   UNL     1      -0.018   1.450   0.010  0.00  0.00    +0.014 A 
ATOM      2  C   UNL     1       1.119   2.173   0.003  0.00  0.00    +0.031 A 
ATOM      3  C   UNL     1       2.425   1.513  -0.013  0.00  0.00    +0.095 A 
ATOM      4  C   UNL     1       2.490   0.047  -0.021  0.00  0.00    +0.047 A 
ATOM      5  C   UNL     1       3.820  -0.289  -0.036  0.00  0.00    +0.115 A 
ATOM      6  N   UNL     1       4.535   0.851  -0.037  0.00  0.00    -0.284 N 
ATOM      7  N   UNL     1       3.669   1.950  -0.022  0.00  0.00    -0.174 NA
ATOM      8  H   UNL     1       5.503   0.902  -0.045  0.00  0.00    +0.188 HD
ATOM      9  C   UNL     1       1.232  -0.717  -0.014  0.00  0.00    +0.104 A 
ATOM     10  C   UNL     1       0.002  -0.004   0.002  0.00  0.00    +0.033 A 
ATOM     11  C   UNL     1      -0.989  -0.992   0.005  0.00  0.00    +0.128 A 
ATOM     12  N   UNL     1      -0.330  -2.188  -0.008  0.00  0.00    -0.271 N 
ATOM     13  H   UNL     1      -0.760  -3.058  -0.009  0.00  0.00    +0.189 HD
ATOM     14  N   UNL     1       0.941  -1.999  -0.018  0.00  0.00    -0.172 NA
ENDROOT
BRANCH  11  15
ATOM     15  C   UNL     1      -2.440  -0.785   0.020  0.00  0.00    +0.260 C 
ATOM     16  O   UNL     1      -2.893   0.344   0.031  0.00  0.00    -0.269 OA
ATOM     17  N   UNL     1      -3.272  -1.846   0.021  0.00  0.00    -0.324 N 
ATOM     18  H   UNL     1      -2.910  -2.746   0.013  0.00  0.00    +0.145 HD
ATOM     19  H   UNL     1      -4.232  -1.709   0.031  0.00  0.00    +0.145 HD
ENDBRANCH  11  15
TORSDOF 1
