REMARK  Name = CHEMBL87472
REMARK  9 active torsions:
REMARK  status: ('A' for Active; 'I' for Inactive)
REMARK    1  A    between atoms: C_1  and  C_2
REMARK    2  A    between atoms: C_2  and  C_3
REMARK    3  A    between atoms: C_2  and  C_4
REMARK    4  A    between atoms: C_4  and  C_5
REMARK    5  A    between atoms: C_11  and  N_16
REMARK    6  A    between atoms: C_12  and  O_15
REMARK    7  A    between atoms: N_17  and  C_18
REMARK    8  A    between atoms: C_21  and  S_24
REMARK    9  A    between atoms: S_24  and  N_27
REMARK                            x       y       z     vdW  Elec       q    Type
REMARK                         _______ _______ _______ _____ _____    ______ ____
ROOT
ATOM      1  C   UNL     1       1.086  -3.413   2.921  0.00  0.00    -0.036 A 
ATOM      2  C   UNL     1       1.865  -4.487   2.548  0.00  0.00    +0.004 A 
ATOM      3  C   UNL     1       1.450  -5.780   2.824  0.00  0.00    +0.002 A 
ATOM      4  C   UNL     1       0.257  -6.012   3.474  0.00  0.00    +0.026 A 
ATOM      5  C   UNL     1      -0.543  -4.942   3.859  0.00  0.00    +0.052 A 
ATOM      6  C   UNL     1      -0.119  -3.632   3.584  0.00  0.00    +0.034 A 
ATOM      7  C   UNL     1      -1.167  -2.742   4.117  0.00  0.00    +0.155 A 
ATOM      8  C   UNL     1      -2.132  -3.567   4.674  0.00  0.00    +0.219 A 
ATOM      9  N   UNL     1      -1.762  -4.865   4.510  0.00  0.00    -0.324 N 
ATOM     10  H   UNL     1      -2.275  -5.630   4.816  0.00  0.00    +0.169 HD
ENDROOT
BRANCH   8  11
ATOM     11  O   UNL     1      -3.269  -3.147   5.274  0.00  0.00    -0.492 OA
ATOM     12  H   UNL     1      -4.044  -3.155   4.697  0.00  0.00    +0.294 HD
ENDBRANCH   8  11
BRANCH   7  13
ATOM     13  N   UNL     1      -1.183  -1.394   4.072  0.00  0.00    -0.143 NA
ATOM     14  N   UNL     1      -2.172  -0.778   3.519  0.00  0.00    -0.149 NA
BRANCH  14  15
ATOM     15  C   UNL     1      -3.372  -1.416   3.362  0.00  0.00    +0.086 A 
ATOM     16  C   UNL     1      -3.432  -2.650   2.710  0.00  0.00    +0.031 A 
ATOM     17  C   UNL     1      -4.645  -3.287   2.556  0.00  0.00    +0.030 A 
ATOM     18  C   UNL     1      -5.802  -2.706   3.045  0.00  0.00    +0.105 A 
ATOM     19  C   UNL     1      -5.751  -1.484   3.692  0.00  0.00    +0.030 A 
ATOM     20  C   UNL     1      -4.544  -0.838   3.858  0.00  0.00    +0.031 A 
BRANCH  18  21
ATOM     21  S   UNL     1      -7.348  -3.527   2.844  0.00  0.00    +0.056 S 
ATOM     22  O   UNL     1      -8.352  -2.523   2.905  0.00  0.00    -0.153 OA
ATOM     23  O   UNL     1      -7.205  -4.394   1.726  0.00  0.00    -0.153 OA
BRANCH  21  24
ATOM     24  N   UNL     1      -7.565  -4.496   4.169  0.00  0.00    -0.204 NA
ATOM     25  H   UNL     1      -6.891  -4.522   4.866  0.00  0.00    +0.144 HD
ATOM     26  H   UNL     1      -8.366  -5.037   4.248  0.00  0.00    +0.144 HD
ENDBRANCH  21  24
ENDBRANCH  18  21
ENDBRANCH  14  15
ENDBRANCH   7  13
BRANCH   1  27
ATOM     27  C   UNL     1       1.538  -2.007   2.620  0.00  0.00    +0.039 C 
BRANCH  27  29
ATOM     28  C   UNL     1       2.840  -0.059   3.486  0.00  0.00    +0.007 C 
ATOM     29  C   UNL     1       2.273  -1.436   3.834  0.00  0.00    -0.013 C 
ATOM     30  C   UNL     1       1.297  -1.304   5.005  0.00  0.00    +0.007 C 
ENDBRANCH  27  29
ENDBRANCH   1  27
TORSDOF 7
