REMARK  Name = CHEMBL183455
REMARK  4 active torsions:
REMARK  status: ('A' for Active; 'I' for Inactive)
REMARK    1  A    between atoms: C_1  and  O_2
REMARK    2  A    between atoms: O_2  and  C_3
REMARK    3  A    between atoms: C_12  and  C_13
REMARK    4  A    between atoms: N_18  and  C_19
REMARK                            x       y       z     vdW  Elec       q    Type
REMARK                         _______ _______ _______ _____ _____    ______ ____
ROOT
ATOM      1  C   UNL     1      -1.248  -0.640  -0.516  0.00  0.00    +0.126 A 
ATOM      2  C   UNL     1      -2.408   0.115  -0.314  0.00  0.00    +0.046 A 
ATOM      3  C   UNL     1      -3.605  -0.490  -0.088  0.00  0.00    +0.015 A 
ATOM      4  C   UNL     1      -3.682  -1.891  -0.056  0.00  0.00    +0.019 A 
ATOM      5  C   UNL     1      -4.895  -2.564   0.174  0.00  0.00    +0.124 A 
ATOM      6  N   UNL     1      -4.890  -3.881   0.189  0.00  0.00    -0.222 NA
ATOM      7  C   UNL     1      -3.771  -4.577  -0.006  0.00  0.00    +0.220 A 
ATOM      8  N   UNL     1      -2.606  -4.001  -0.226  0.00  0.00    -0.214 NA
ATOM      9  C   UNL     1      -2.510  -2.665  -0.260  0.00  0.00    +0.083 A 
ATOM     10  C   UNL     1      -1.291  -2.017  -0.497  0.00  0.00    +0.023 A 
ATOM     11  N   UNL     1      -3.835  -5.960   0.023  0.00  0.00    -0.284 N 
ATOM     12  H   UNL     1      -3.021  -6.484  -0.036  0.00  0.00    +0.155 HD
ENDROOT
BRANCH  11  13
ATOM     13  C   UNL     1      -5.072  -6.600   0.137  0.00  0.00    +0.034 A 
ATOM     14  C   UNL     1      -6.201  -6.043  -0.450  0.00  0.00    +0.023 A 
ATOM     15  C   UNL     1      -7.422  -6.679  -0.335  0.00  0.00    +0.002 A 
ATOM     16  C   UNL     1      -7.521  -7.868   0.364  0.00  0.00    +0.000 A 
ATOM     17  C   UNL     1      -6.399  -8.425   0.950  0.00  0.00    +0.002 A 
ATOM     18  C   UNL     1      -5.174  -7.798   0.833  0.00  0.00    +0.023 A 
ENDBRANCH  11  13
BRANCH  10  19
ATOM     19  C   UNL     1      -0.035  -2.819  -0.722  0.00  0.00    +0.025 C 
ATOM     20  C   UNL     1       1.037  -2.425   0.315  0.00  0.00    +0.008 C 
ATOM     21  C   UNL     1       2.368  -2.478  -0.476  0.00  0.00    +0.001 C 
ATOM     22  C   UNL     1       1.963  -1.921  -1.864  0.00  0.00    +0.001 C 
ATOM     23  C   UNL     1       0.554  -2.498  -2.107  0.00  0.00    +0.008 C 
ENDBRANCH  10  19
BRANCH   1  25
ATOM     24  C   UNL     1      -0.087   1.420  -0.748  0.00  0.00    +0.277 C 
ATOM     25  O   UNL     1      -0.067  -0.009  -0.740  0.00  0.00    -0.495 OA
ENDBRANCH   1  25
TORSDOF 3
