REMARK  Name = CHEMBL187353
REMARK  4 active torsions:
REMARK  status: ('A' for Active; 'I' for Inactive)
REMARK    1  A    between atoms: C_1  and  S_2
REMARK    2  A    between atoms: S_2  and  C_3
REMARK    3  A    between atoms: C_7  and  C_11
REMARK    4  A    between atoms: N_14  and  C_16
REMARK                            x       y       z     vdW  Elec       q    Type
REMARK                         _______ _______ _______ _____ _____    ______ ____
ROOT
ATOM      1  C   UNL     1       0.728  -0.430  -1.498  0.00  0.00    +0.133 A 
ATOM      2  C   UNL     1       1.211  -1.719  -1.977  0.00  0.00    +0.117 A 
ATOM      3  C   UNL     1       1.858  -1.476  -3.199  0.00  0.00    +0.172 A 
ATOM      4  N   UNL     1       2.405  -2.506  -3.865  0.00  0.00    -0.214 NA
ATOM      5  C   UNL     1       2.345  -3.721  -3.400  0.00  0.00    +0.115 A 
ATOM      6  N   UNL     1       1.734  -4.021  -2.225  0.00  0.00    -0.310 N 
ATOM      7  C   UNL     1       1.157  -3.046  -1.487  0.00  0.00    +0.263 A 
ATOM      8  O   UNL     1       0.606  -3.302  -0.431  0.00  0.00    -0.267 OA
ATOM      9  N   UNL     1       1.769  -0.140  -3.434  0.00  0.00    -0.210 N 
ATOM     10  N   UNL     1       1.071   0.471  -2.387  0.00  0.00    -0.157 NA
ATOM     11  H   UNL     1       1.711  -4.939  -1.914  0.00  0.00    +0.170 HD
ENDROOT
BRANCH   9  12
ATOM     12  C   UNL     1       2.290   0.521  -4.554  0.00  0.00    +0.104 A 
ATOM     13  C   UNL     1       1.933   0.110  -5.833  0.00  0.00    +0.069 A 
ATOM     14  C   UNL     1       2.449   0.764  -6.936  0.00  0.00    +0.042 A 
ATOM     15  C   UNL     1       3.320   1.827  -6.768  0.00  0.00    +0.044 A 
ATOM     16  C   UNL     1       3.677   2.238  -5.496  0.00  0.00    +0.042 A 
ATOM     17  C   UNL     1       3.159   1.592  -4.388  0.00  0.00    +0.069 A 
ATOM     18 CL   UNL     1       3.602   2.113  -2.793  0.00  0.00    -0.081 Cl
ATOM     19 CL   UNL     1       3.966   2.646  -8.156  0.00  0.00    -0.083 Cl
ATOM     20 CL   UNL     1       0.842  -1.223  -6.045  0.00  0.00    -0.081 Cl
ENDBRANCH   9  12
BRANCH   5  21
ATOM     21  C   UNL     1       2.978  -4.835  -4.194  0.00  0.00    +0.055 C 
ATOM     22  C   UNL     1       4.356  -4.572  -4.805  0.00  0.00    +0.012 C 
ATOM     23  C   UNL     1       3.119  -4.633  -5.704  0.00  0.00    +0.012 C 
ENDBRANCH   5  21
BRANCH   1  25
ATOM     24  C   UNL     1      -0.462   1.652  -0.017  0.00  0.00    +0.091 C 
ATOM     25  S   UNL     1      -0.161  -0.137  -0.005  0.00  0.00    -0.107 S 
ENDBRANCH   1  25
TORSDOF 3
