REMARK  Name = CHEMBL346184
REMARK  7 active torsions:
REMARK  status: ('A' for Active; 'I' for Inactive)
REMARK    1  A    between atoms: C_1  and  O_2
REMARK    2  A    between atoms: O_2  and  C_3
REMARK    3  A    between atoms: C_6  and  C_9
REMARK    4  A    between atoms: C_19  and  N_23
REMARK    5  A    between atoms: C_24  and  C_26
REMARK    6  A    between atoms: C_26  and  N_27
REMARK    7  A    between atoms: C_30  and  C_33
REMARK                            x       y       z     vdW  Elec       q    Type
REMARK                         _______ _______ _______ _____ _____    ______ ____
ROOT
ATOM      1  C   UNL     1       2.523  -2.485  -4.384  0.00  0.00    +0.104 A 
ATOM      2  C   UNL     1       3.258  -3.694  -4.340  0.00  0.00    +0.075 A 
ATOM      3  C   UNL     1       3.706  -3.952  -5.628  0.00  0.00    +0.078 A 
ATOM      4  N   UNL     1       3.263  -2.948  -6.416  0.00  0.00    -0.276 N 
ATOM      5  N   UNL     1       2.529  -2.054  -5.628  0.00  0.00    -0.173 NA
ATOM      6  H   UNL     1       3.424  -2.863  -7.368  0.00  0.00    +0.189 HD
ATOM      7  C   UNL     1       4.483  -5.215  -5.622  0.00  0.00    +0.013 A 
ATOM      8  C   UNL     1       5.137  -5.907  -6.631  0.00  0.00    +0.011 A 
ATOM      9  C   UNL     1       5.804  -7.092  -6.345  0.00  0.00    +0.002 A 
ATOM     10  C   UNL     1       5.825  -7.592  -5.062  0.00  0.00    +0.024 A 
ATOM     11  C   UNL     1       5.174  -6.910  -4.032  0.00  0.00    +0.045 A 
ATOM     12  C   UNL     1       4.501  -5.720  -4.309  0.00  0.00    +0.053 A 
ATOM     13  C   UNL     1       3.732  -4.782  -3.461  0.00  0.00    +0.200 C 
ATOM     14  O   UNL     1       3.530  -4.887  -2.267  0.00  0.00    -0.286 OA
ENDROOT
BRANCH   1  18
ATOM     15  C   UNL     1       0.616  -0.592  -1.089  0.00  0.00    +0.120 A 
ATOM     16  C   UNL     1       1.193   0.177  -2.091  0.00  0.00    +0.046 A 
ATOM     17  C   UNL     1       1.812  -0.433  -3.161  0.00  0.00    +0.013 A 
ATOM     18  C   UNL     1       1.859  -1.825  -3.235  0.00  0.00    +0.003 A 
ATOM     19  C   UNL     1       1.279  -2.595  -2.227  0.00  0.00    +0.013 A 
ATOM     20  C   UNL     1       0.666  -1.978  -1.157  0.00  0.00    +0.046 A 
BRANCH  15  22
ATOM     21  C   UNL     1      -0.007   1.442  -0.028  0.00  0.00    +0.277 C 
ATOM     22  O   UNL     1       0.007   0.013  -0.036  0.00  0.00    -0.495 OA
ENDBRANCH  15  22
ENDBRANCH   1  18
BRANCH  11  23
ATOM     23  N   UNL     1       5.195  -7.415  -2.736  0.00  0.00    -0.286 N 
ATOM     24  C   UNL     1       5.176  -8.747  -2.532  0.00  0.00    +0.201 C 
ATOM     25  O   UNL     1       5.223  -9.506  -3.477  0.00  0.00    -0.278 OA
ATOM     26  H   UNL     1       5.224  -6.809  -1.980  0.00  0.00    +0.155 HD
BRANCH  24  27
ATOM     27  C   UNL     1       5.098  -9.293  -1.130  0.00  0.00    +0.019 C 
BRANCH  27  28
ATOM     28  N   UNL     1       5.092 -10.762  -1.175  0.00  0.00    +0.385 N 
ATOM     29  C   UNL     1       3.873 -11.224  -1.850  0.00  0.00    -0.077 C 
ATOM     30  C   UNL     1       3.900 -12.749  -1.973  0.00  0.00    -0.006 C 
ATOM     31  C   UNL     1       3.976 -13.367  -0.574  0.00  0.00    +0.071 C 
ATOM     32  C   UNL     1       5.211 -12.820   0.148  0.00  0.00    -0.006 C 
ATOM     33  C   UNL     1       5.135 -11.293   0.192  0.00  0.00    -0.077 C 
ATOM     34  H   UNL     1       5.899 -11.084  -1.687  0.00  0.00    -0.081 HD
BRANCH  31  35
ATOM     35  C   UNL     1       4.082 -14.865  -0.690  0.00  0.00    +0.213 C 
ATOM     36  O   UNL     1       4.095 -15.389  -1.784  0.00  0.00    -0.276 OA
ATOM     37  N   UNL     1       4.162 -15.623   0.421  0.00  0.00    -0.329 N 
ATOM     38  H   UNL     1       4.151 -15.204   1.296  0.00  0.00    +0.145 HD
ATOM     39  H   UNL     1       4.230 -16.588   0.347  0.00  0.00    +0.145 HD
ENDBRANCH  31  35
ENDBRANCH  27  28
ENDBRANCH  24  27
ENDBRANCH  11  23
TORSDOF 6
