REMARK  Name = CHEMBL192440
REMARK  7 active torsions:
REMARK  status: ('A' for Active; 'I' for Inactive)
REMARK    1  A    between atoms: C_1  and  C_2
REMARK    2  A    between atoms: C_2  and  C_3
REMARK    3  A    between atoms: C_2  and  C_21
REMARK    4  A    between atoms: C_6  and  N_9
REMARK    5  A    between atoms: C_10  and  C_15
REMARK    6  A    between atoms: N_23  and  C_24
REMARK    7  A    between atoms: C_26  and  C_30
REMARK                            x       y       z     vdW  Elec       q    Type
REMARK                         _______ _______ _______ _____ _____    ______ ____
ROOT
ATOM      1  C   UNL     1       0.707  -0.490  -1.238  0.00  0.00    -0.036 A 
ATOM      2  C   UNL     1       0.239  -0.124  -2.486  0.00  0.00    +0.006 A 
ATOM      3  C   UNL     1       0.883  -0.568  -3.625  0.00  0.00    +0.024 A 
ATOM      4  C   UNL     1       2.003  -1.382  -3.514  0.00  0.00    +0.037 A 
ATOM      5  C   UNL     1       2.471  -1.747  -2.259  0.00  0.00    +0.024 A 
ATOM      6  C   UNL     1       1.825  -1.296  -1.125  0.00  0.00    +0.006 A 
ENDROOT
BRANCH   4   7
ATOM      7  N   UNL     1       2.658  -1.834  -4.665  0.00  0.00    -0.264 N 
ATOM      8  C   UNL     1       3.918  -2.586  -4.660  0.00  0.00    +0.112 C 
ATOM      9  C   UNL     1       4.466  -2.481  -6.101  0.00  0.00    +0.037 C 
ATOM     10  C   UNL     1       3.172  -2.248  -6.915  0.00  0.00    +0.098 C 
ATOM     11  C   UNL     1       2.210  -1.640  -5.918  0.00  0.00    +0.220 C 
ATOM     12  O   UNL     1       1.185  -1.059  -6.207  0.00  0.00    -0.275 OA
BRANCH   8  13
ATOM     13  C   UNL     1       4.889  -1.969  -3.687  0.00  0.00    -0.027 A 
ATOM     14  C   UNL     1       4.981  -0.594  -3.580  0.00  0.00    +0.005 A 
ATOM     15  C   UNL     1       5.872  -0.028  -2.687  0.00  0.00    +0.000 A 
ATOM     16  C   UNL     1       6.670  -0.838  -1.900  0.00  0.00    +0.000 A 
ATOM     17  C   UNL     1       6.577  -2.213  -2.006  0.00  0.00    +0.000 A 
ATOM     18  C   UNL     1       5.683  -2.778  -2.896  0.00  0.00    +0.005 A 
ENDBRANCH   8  13
ENDBRANCH   4   7
BRANCH   1  20
ATOM     19  C   UNL     1       0.015   1.526   0.029  0.00  0.00    +0.022 C 
ATOM     20  C   UNL     1       0.002  -0.004   0.002  0.00  0.00    +0.102 C 
BRANCH  20  21
ATOM     21  C   UNL     1      -1.423  -0.495  -0.006  0.00  0.00    +0.225 C 
ATOM     22  O   UNL     1      -1.826  -1.172  -0.927  0.00  0.00    -0.275 OA
ATOM     23  N   UNL     1      -2.249  -0.180   1.011  0.00  0.00    -0.270 N 
ATOM     24  H   UNL     1      -1.927   0.361   1.748  0.00  0.00    +0.156 HD
BRANCH  23  25
ATOM     25  C   UNL     1      -3.568  -0.634   1.004  0.00  0.00    +0.121 A 
ATOM     26  C   UNL     1      -4.150  -1.398   0.040  0.00  0.00    +0.068 A 
ATOM     27  C   UNL     1      -5.476  -1.629   0.419  0.00  0.00    +0.068 A 
ATOM     28  N   UNL     1      -5.686  -1.031   1.563  0.00  0.00    -0.177 NA
ATOM     29  H   UNL     1      -4.368   0.114   2.769  0.00  0.00    +0.190 HD
ATOM     30  N   UNL     1      -4.499  -0.401   1.957  0.00  0.00    -0.264 N 
BRANCH  27  31
ATOM     31  C   UNL     1      -6.489  -2.430  -0.358  0.00  0.00    +0.040 C 
ATOM     32  C   UNL     1      -6.181  -2.723  -1.828  0.00  0.00    +0.010 C 
ATOM     33  C   UNL     1      -7.265  -1.707  -1.460  0.00  0.00    +0.010 C 
ENDBRANCH  27  31
ENDBRANCH  23  25
ENDBRANCH  20  21
ENDBRANCH   1  20
TORSDOF 6
