REMARK  Name = CHEMBL178452
REMARK  4 active torsions:
REMARK  status: ('A' for Active; 'I' for Inactive)
REMARK    1  A    between atoms: C_1  and  C_2
REMARK    2  A    between atoms: C_2  and  C_3
REMARK    3  A    between atoms: C_2  and  C_4
REMARK    4  A    between atoms: C_4  and  C_5
REMARK                            x       y       z     vdW  Elec       q    Type
REMARK                         _______ _______ _______ _____ _____    ______ ____
ROOT
ATOM      1  C   UNL     1       0.065  -0.009   2.387  0.00  0.00    +0.042 C 
ATOM      2  C   UNL     1       0.888  -0.433   3.604  0.00  0.00    +0.048 C 
ATOM      3  C   UNL     1       0.488   0.343   4.830  0.00  0.00    -0.002 A 
ATOM      4  C   UNL     1       0.494  -0.012   6.122  0.00  0.00    +0.109 A 
ATOM      5  N   UNL     1       0.074   1.050   6.850  0.00  0.00    -0.284 N 
ATOM      6  H   UNL     1      -0.014   1.078   7.816  0.00  0.00    +0.188 HD
ATOM      7  N   UNL     1      -0.213   2.104   5.965  0.00  0.00    -0.174 NA
ATOM      8  C   UNL     1       0.015   1.688   4.761  0.00  0.00    +0.099 A 
ATOM      9  C   UNL     1      -0.145   2.301   3.422  0.00  0.00    +0.043 A 
ATOM     10  C   UNL     1      -0.097   1.483   2.310  0.00  0.00    +0.049 A 
ATOM     11  N   UNL     1      -0.225   2.277   1.239  0.00  0.00    -0.281 N 
ATOM     12  N   UNL     1      -0.410   3.595   1.685  0.00  0.00    -0.181 NA
ATOM     13  H   UNL     1      -0.195   1.990   0.313  0.00  0.00    +0.189 HD
ATOM     14  C   UNL     1      -0.369   3.603   2.997  0.00  0.00    +0.144 A 
ENDROOT
BRANCH   1  15
ATOM     15  C   UNL     1       0.764  -0.500   1.118  0.00  0.00    +0.013 C 
BRANCH  15  17
ATOM     16  C   UNL     1      -0.678  -2.535   0.961  0.00  0.00    +0.007 C 
ATOM     17  C   UNL     1       0.760  -2.030   1.093  0.00  0.00    -0.017 C 
ATOM     18  C   UNL     1       1.585  -2.523  -0.098  0.00  0.00    +0.007 C 
ENDBRANCH  15  17
ENDBRANCH   1  15
TORSDOF 2
