REMARK  Name = CHEMBL372467
REMARK  6 active torsions:
REMARK  status: ('A' for Active; 'I' for Inactive)
REMARK    1  A    between atoms: C_1  and  C_2
REMARK    2  A    between atoms: C_2  and  C_3
REMARK    3  A    between atoms: C_2  and  C_16
REMARK    4  A    between atoms: C_6  and  N_9
REMARK    5  A    between atoms: N_18  and  C_19
REMARK    6  A    between atoms: C_21  and  C_25
REMARK                            x       y       z     vdW  Elec       q    Type
REMARK                         _______ _______ _______ _____ _____    ______ ____
ROOT
ATOM      1  C   UNL     1      -0.042   1.525   0.024  0.00  0.00    +0.022 C 
ATOM      2  C   UNL     1       0.002  -0.004   0.002  0.00  0.00    +0.102 C 
ENDROOT
BRANCH   2   3
ATOM      3  C   UNL     1       0.731  -0.503   1.223  0.00  0.00    -0.036 A 
ATOM      4  C   UNL     1       2.044  -0.129   1.444  0.00  0.00    +0.006 A 
ATOM      5  C   UNL     1       2.714  -0.585   2.562  0.00  0.00    +0.024 A 
ATOM      6  C   UNL     1       2.069  -1.420   3.464  0.00  0.00    +0.045 A 
ATOM      7  C   UNL     1       0.751  -1.794   3.240  0.00  0.00    +0.024 A 
ATOM      8  C   UNL     1       0.084  -1.330   2.123  0.00  0.00    +0.006 A 
BRANCH   6   9
ATOM      9  N   UNL     1       2.748  -1.885   4.599  0.00  0.00    -0.193 N 
ATOM     10  C   UNL     1       2.172  -2.605   5.583  0.00  0.00    +0.245 C 
ATOM     11  O   UNL     1       1.015  -2.958   5.651  0.00  0.00    -0.273 OA
ATOM     12  C   UNL     1       3.274  -2.881   6.587  0.00  0.00    +0.202 C 
ATOM     13  N   UNL     1       4.453  -2.223   5.997  0.00  0.00    -0.290 N 
ATOM     14  C   UNL     1       4.047  -1.675   4.837  0.00  0.00    +0.313 C 
ATOM     15  O   UNL     1       4.779  -1.055   4.091  0.00  0.00    -0.252 OA
ATOM     16  H   UNL     1       5.348  -2.193   6.370  0.00  0.00    +0.151 HD
ENDBRANCH   6   9
ENDBRANCH   2   3
BRANCH   2  17
ATOM     17  C   UNL     1       0.723  -0.468  -1.238  0.00  0.00    +0.225 C 
ATOM     18  O   UNL     1       1.729  -1.138  -1.140  0.00  0.00    -0.275 OA
ATOM     19  N   UNL     1       0.249  -0.138  -2.456  0.00  0.00    -0.270 N 
ATOM     20  H   UNL     1      -0.556   0.398  -2.534  0.00  0.00    +0.156 HD
BRANCH  19  21
ATOM     21  C   UNL     1       0.915  -0.568  -3.603  0.00  0.00    +0.121 A 
ATOM     22  C   UNL     1       2.049  -1.320  -3.640  0.00  0.00    +0.068 A 
ATOM     23  C   UNL     1       2.381  -1.526  -4.982  0.00  0.00    +0.068 A 
ATOM     24  N   UNL     1       1.488  -0.924  -5.725  0.00  0.00    -0.177 NA
ATOM     25  H   UNL     1      -0.224   0.196  -5.163  0.00  0.00    +0.190 HD
ATOM     26  N   UNL     1       0.550  -0.316  -4.881  0.00  0.00    -0.264 N 
BRANCH  23  27
ATOM     27  C   UNL     1       3.567  -2.308  -5.487  0.00  0.00    +0.040 C 
ATOM     28  C   UNL     1       4.691  -2.607  -4.494  0.00  0.00    +0.010 C 
ATOM     29  C   UNL     1       4.903  -1.571  -5.600  0.00  0.00    +0.010 C 
ENDBRANCH  23  27
ENDBRANCH  19  21
ENDBRANCH   2  17
TORSDOF 5
