REMARK  Name = CHEMBL183269
REMARK  5 active torsions:
REMARK  status: ('A' for Active; 'I' for Inactive)
REMARK    1  A    between atoms: C_1  and  O_2
REMARK    2  A    between atoms: O_2  and  C_3
REMARK    3  A    between atoms: C_12  and  C_13
REMARK    4  A    between atoms: N_18  and  C_19
REMARK    5  A    between atoms: C_22  and  N_25
REMARK                            x       y       z     vdW  Elec       q    Type
REMARK                         _______ _______ _______ _____ _____    ______ ____
ROOT
ATOM      1  C   UNL     1       1.085  -0.607  -0.834  0.00  0.00    +0.126 A 
ATOM      2  C   UNL     1       1.478   0.177  -1.924  0.00  0.00    +0.046 A 
ATOM      3  C   UNL     1       1.890  -0.399  -3.086  0.00  0.00    +0.015 A 
ATOM      4  C   UNL     1       1.923  -1.798  -3.196  0.00  0.00    +0.019 A 
ATOM      5  C   UNL     1       2.340  -2.441  -4.375  0.00  0.00    +0.124 A 
ATOM      6  N   UNL     1       2.345  -3.758  -4.405  0.00  0.00    -0.222 NA
ATOM      7  C   UNL     1       1.966  -4.481  -3.352  0.00  0.00    +0.220 A 
ATOM      8  N   UNL     1       1.565  -3.934  -2.221  0.00  0.00    -0.214 NA
ATOM      9  C   UNL     1       1.526  -2.601  -2.095  0.00  0.00    +0.083 A 
ATOM     10  C   UNL     1       1.111  -1.982  -0.908  0.00  0.00    +0.023 A 
ATOM     11  N   UNL     1       1.994  -5.862  -3.450  0.00  0.00    -0.284 N 
ATOM     12  H   UNL     1       1.647  -6.406  -2.726  0.00  0.00    +0.155 HD
ENDROOT
BRANCH  11  13
ATOM     13  C   UNL     1       2.524  -6.471  -4.591  0.00  0.00    +0.034 A 
ATOM     14  C   UNL     1       3.587  -5.884  -5.264  0.00  0.00    +0.025 A 
ATOM     15  C   UNL     1       4.108  -6.489  -6.391  0.00  0.00    +0.023 A 
ATOM     16  C   UNL     1       3.571  -7.678  -6.850  0.00  0.00    +0.014 A 
ATOM     17  C   UNL     1       2.512  -8.265  -6.183  0.00  0.00    +0.023 A 
ATOM     18  C   UNL     1       1.991  -7.669  -5.051  0.00  0.00    +0.025 A 
BRANCH  16  19
ATOM     19  N   UNL     1       4.100  -8.287  -7.991  0.00  0.00    -0.393 NA
ATOM     20  C   UNL     1       3.055  -8.393  -9.017  0.00  0.00    +0.085 C 
ATOM     21  C   UNL     1       3.649  -8.985 -10.297  0.00  0.00    +0.017 C 
ATOM     22  C   UNL     1       4.212 -10.377  -9.995  0.00  0.00    +0.003 C 
ATOM     23  C   UNL     1       5.248 -10.265  -8.872  0.00  0.00    +0.017 C 
ATOM     24  C   UNL     1       4.595  -9.625  -7.645  0.00  0.00    +0.085 C 
ATOM     25  H   UNL     1       4.862  -7.730  -8.347  0.00  0.00    +0.126 HD
ENDBRANCH  16  19
ENDBRANCH  11  13
BRANCH  10  26
ATOM     26  C   UNL     1       0.692  -2.815   0.276  0.00  0.00    +0.025 C 
ATOM     27  C   UNL     1      -0.748  -2.452   0.694  0.00  0.00    +0.008 C 
ATOM     28  C   UNL     1      -0.727  -2.535   2.240  0.00  0.00    +0.001 C 
ATOM     29  C   UNL     1       0.668  -1.963   2.595  0.00  0.00    +0.001 C 
ATOM     30  C   UNL     1       1.592  -2.504   1.484  0.00  0.00    +0.008 C 
ENDBRANCH  10  26
BRANCH   1  32
ATOM     31  C   UNL     1       0.674   1.425   0.329  0.00  0.00    +0.277 C 
ATOM     32  O   UNL     1       0.679  -0.004   0.313  0.00  0.00    -0.495 OA
ENDBRANCH   1  32
TORSDOF 4
