REMARK  Name = CHEMBL210765
REMARK  8 active torsions:
REMARK  status: ('A' for Active; 'I' for Inactive)
REMARK    1  A    between atoms: C_1  and  N_2
REMARK    2  A    between atoms: N_5  and  C_8
REMARK    3  A    between atoms: C_8  and  C_9
REMARK    4  A    between atoms: C_9  and  C_10
REMARK    5  A    between atoms: N_12  and  S_13
REMARK    6  A    between atoms: S_13  and  C_16
REMARK    7  A    between atoms: C_19  and  N_22
REMARK    8  A    between atoms: C_28  and  C_30
REMARK                            x       y       z     vdW  Elec       q    Type
REMARK                         _______ _______ _______ _____ _____    ______ ____
ROOT
ATOM      1  C   UNL     1      -0.959  -8.895  -0.413  0.00  0.00    +0.113 A 
ATOM      2  C   UNL     1      -2.312  -9.146  -0.546  0.00  0.00    +0.031 A 
ATOM      3  C   UNL     1      -2.830  -9.513  -1.773  0.00  0.00    +0.025 A 
ATOM      4  C   UNL     1      -1.990  -9.630  -2.873  0.00  0.00    +0.034 A 
ATOM      5  C   UNL     1      -0.631  -9.377  -2.735  0.00  0.00    +0.025 A 
ATOM      6  C   UNL     1      -0.120  -9.005  -1.507  0.00  0.00    +0.031 A 
ENDROOT
BRANCH   4   7
ATOM      7  N   UNL     1      -2.511 -10.002  -4.115  0.00  0.00    -0.282 N 
ATOM      8  C   UNL     1      -3.848  -9.750  -4.414  0.00  0.00    +0.241 A 
ATOM      9  N   UNL     1      -4.699  -9.062  -3.641  0.00  0.00    -0.180 NA
ATOM     10  C   UNL     1      -5.880  -9.011  -4.218  0.00  0.00    +0.220 A 
ATOM     11  N   UNL     1      -5.796  -9.685  -5.400  0.00  0.00    -0.161 N 
ATOM     12  N   UNL     1      -4.472 -10.145  -5.497  0.00  0.00    -0.124 NA
ATOM     13  C   UNL     1      -6.784  -9.871  -6.297  0.00  0.00    +0.287 C 
ATOM     14  O   UNL     1      -7.863  -9.335  -6.133  0.00  0.00    -0.265 OA
ATOM     15  N   UNL     1      -7.003  -8.387  -3.716  0.00  0.00    -0.327 N 
ATOM     16  H   UNL     1      -1.941 -10.435  -4.770  0.00  0.00    +0.155 HD
ATOM     17  H   UNL     1      -6.963  -7.930  -2.861  0.00  0.00    +0.145 HD
ATOM     18  H   UNL     1      -7.833  -8.404  -4.218  0.00  0.00    +0.145 HD
BRANCH  13  19
ATOM     19  C   UNL     1      -6.557 -10.722  -7.478  0.00  0.00    +0.111 A 
ATOM     20  C   UNL     1      -6.738 -12.108  -7.392  0.00  0.00    +0.139 A 
ATOM     21  C   UNL     1      -6.522 -12.899  -8.505  0.00  0.00    +0.039 A 
ATOM     22  C   UNL     1      -6.129 -12.325  -9.701  0.00  0.00    +0.006 A 
ATOM     23  C   UNL     1      -5.947 -10.957  -9.795  0.00  0.00    +0.039 A 
ATOM     24  C   UNL     1      -6.164 -10.150  -8.694  0.00  0.00    +0.139 A 
ATOM     25  F   UNL     1      -5.992  -8.814  -8.790  0.00  0.00    -0.205 F 
ATOM     26  F   UNL     1      -7.121 -12.670  -6.225  0.00  0.00    -0.205 F 
ENDBRANCH  13  19
ENDBRANCH   4   7
BRANCH   1  27
ATOM     27  S   UNL     1      -0.302  -8.426   1.153  0.00  0.00    +0.102 S 
ATOM     28  O   UNL     1       1.076  -8.772   1.136  0.00  0.00    -0.146 OA
ATOM     29  O   UNL     1      -1.200  -8.924   2.136  0.00  0.00    -0.146 OA
BRANCH  27  32
ATOM     30  C   UNL     1       0.049  -6.164   2.296  0.00  0.00    +0.263 C 
ATOM     31  O   UNL     1       0.550  -6.873   3.329  0.00  0.00    -0.270 OA
ATOM     32  N   UNL     1      -0.374  -6.774   1.240  0.00  0.00    -0.091 NA
BRANCH  30  33
ATOM     33  C   UNL     1      -0.016  -4.661   2.374  0.00  0.00    +0.083 C 
BRANCH  33  34
ATOM     34  C   UNL     1      -0.621  -4.108   1.082  0.00  0.00    -0.069 C 
BRANCH  34  39
ATOM     35  C   UNL     1      -0.134   1.432   0.175  0.00  0.00    +0.104 C 
ATOM     36  N   UNL     1      -0.099  -0.037   0.146  0.00  0.00    -0.309 NA
ATOM     37  C   UNL     1      -1.456  -0.594   0.060  0.00  0.00    +0.065 C 
ATOM     38  C   UNL     1      -1.373  -2.120  -0.029  0.00  0.00    -0.063 C 
ATOM     39  N   UNL     1      -0.684  -2.643   1.159  0.00  0.00    +0.382 N 
ATOM     40  C   UNL     1       0.678  -2.096   1.217  0.00  0.00    -0.063 C 
ATOM     41  C   UNL     1       0.611  -0.570   1.316  0.00  0.00    +0.065 C 
ATOM     42  H   UNL     1      -1.192  -2.371   1.988  0.00  0.00    -0.082 HD
ENDBRANCH  34  39
ENDBRANCH  33  34
ENDBRANCH  30  33
ENDBRANCH  27  32
ENDBRANCH   1  27
TORSDOF 7
