REMARK  Name = CHEMBL378420
REMARK  7 active torsions:
REMARK  status: ('A' for Active; 'I' for Inactive)
REMARK    1  A    between atoms: C_4  and  C_8
REMARK    2  A    between atoms: N_15  and  C_16
REMARK    3  A    between atoms: C_19  and  S_22
REMARK    4  A    between atoms: S_22  and  N_25
REMARK    5  A    between atoms: C_26  and  C_28
REMARK    6  A    between atoms: C_28  and  C_29
REMARK    7  A    between atoms: C_29  and  N_30
REMARK                            x       y       z     vdW  Elec       q    Type
REMARK                         _______ _______ _______ _____ _____    ______ ____
ROOT
ATOM      1  C   UNL     1       3.152  -6.396   0.366  0.00  0.00    +0.034 A 
ATOM      2  C   UNL     1       4.540  -6.375   0.412  0.00  0.00    +0.025 A 
ATOM      3  C   UNL     1       5.242  -7.550   0.596  0.00  0.00    +0.030 A 
ATOM      4  C   UNL     1       4.564  -8.748   0.732  0.00  0.00    +0.109 A 
ATOM      5  C   UNL     1       3.182  -8.773   0.686  0.00  0.00    +0.030 A 
ATOM      6  C   UNL     1       2.474  -7.600   0.509  0.00  0.00    +0.025 A 
ENDROOT
BRANCH   1  14
ATOM      7  C   UNL     1       3.294  -0.870  -1.685  0.00  0.00    +0.287 C 
ATOM      8  O   UNL     1       4.133  -0.342  -2.387  0.00  0.00    -0.265 OA
ATOM      9  N   UNL     1       3.433  -2.160  -1.322  0.00  0.00    -0.161 N 
ATOM     10  C   UNL     1       4.501  -2.970  -1.575  0.00  0.00    +0.220 A 
ATOM     11  N   UNL     1       4.242  -4.150  -1.054  0.00  0.00    -0.180 NA
ATOM     12  C   UNL     1       3.037  -4.131  -0.470  0.00  0.00    +0.241 A 
ATOM     13  N   UNL     1       2.510  -2.938  -0.604  0.00  0.00    -0.124 NA
ATOM     14  N   UNL     1       2.439  -5.209   0.181  0.00  0.00    -0.282 N 
ATOM     15  N   UNL     1       5.647  -2.616  -2.255  0.00  0.00    -0.327 N 
ATOM     16  H   UNL     1       1.528  -5.134   0.506  0.00  0.00    +0.155 HD
ATOM     17  H   UNL     1       5.746  -1.716  -2.604  0.00  0.00    +0.145 HD
ATOM     18  H   UNL     1       6.355  -3.266  -2.384  0.00  0.00    +0.145 HD
BRANCH   7  22
ATOM     19  C   UNL     1      -0.081   1.351  -0.373  0.00  0.00    +0.006 A 
ATOM     20  C   UNL     1      -0.102   0.736  -1.612  0.00  0.00    +0.039 A 
ATOM     21  C   UNL     1       0.992   0.012  -2.047  0.00  0.00    +0.139 A 
ATOM     22  C   UNL     1       2.123  -0.099  -1.230  0.00  0.00    +0.111 A 
ATOM     23  C   UNL     1       2.135   0.526   0.022  0.00  0.00    +0.139 A 
ATOM     24  C   UNL     1       1.032   1.247   0.441  0.00  0.00    +0.039 A 
ATOM     25  F   UNL     1       3.221   0.426   0.820  0.00  0.00    -0.205 F 
ATOM     26  F   UNL     1       0.969  -0.588  -3.258  0.00  0.00    -0.205 F 
ENDBRANCH   7  22
ENDBRANCH   1  14
BRANCH   4  27
ATOM     27  S   UNL     1       5.463 -10.245   0.965  0.00  0.00    +0.074 S 
ATOM     28  O   UNL     1       4.619 -11.299   0.521  0.00  0.00    -0.150 OA
ATOM     29  O   UNL     1       6.759 -10.028   0.426  0.00  0.00    -0.150 OA
BRANCH  27  30
ATOM     30  N   UNL     1       5.657 -10.451   2.597  0.00  0.00    -0.185 N 
ATOM     31  C   UNL     1       4.581 -10.654   3.383  0.00  0.00    +0.233 C 
ATOM     32  O   UNL     1       3.471 -10.686   2.896  0.00  0.00    -0.274 OA
ATOM     33  H   UNL     1       6.545 -10.425   2.987  0.00  0.00    +0.177 HD
BRANCH  31  34
ATOM     34  C   UNL     1       4.758 -10.841   4.868  0.00  0.00    +0.112 C 
BRANCH  34  35
ATOM     35  C   UNL     1       3.391 -11.053   5.522  0.00  0.00    +0.094 C 
BRANCH  35  36
ATOM     36  N   UNL     1       3.564 -11.235   6.969  0.00  0.00    -0.298 NA
ATOM     37  C   UNL     1       4.280 -12.485   7.261  0.00  0.00    +0.112 C 
ATOM     38  C   UNL     1       4.490 -12.606   8.773  0.00  0.00    +0.175 C 
ATOM     39  O   UNL     1       3.223 -12.542   9.432  0.00  0.00    -0.377 OA
ATOM     40  C   UNL     1       2.498 -11.337   9.170  0.00  0.00    +0.175 C 
ATOM     41  C   UNL     1       2.267 -11.204   7.662  0.00  0.00    +0.112 C 
ENDBRANCH  35  36
ENDBRANCH  34  35
ENDBRANCH  31  34
ENDBRANCH  27  30
ENDBRANCH   4  27
TORSDOF 7
