REMARK  Name = CHEMBL254367
REMARK  3 active torsions:
REMARK  status: ('A' for Active; 'I' for Inactive)
REMARK    1  A    between atoms: C_10  and  C_11
REMARK    2  A    between atoms: C_11  and  C_12
REMARK    3  A    between atoms: C_18  and  N_25
REMARK                            x       y       z     vdW  Elec       q    Type
REMARK                         _______ _______ _______ _____ _____    ______ ____
ROOT
ATOM      1  C   UNL     1       5.341   0.519   1.367  0.00  0.00    +0.223 C 
ATOM      2  O   UNL     1       4.633   0.178   2.291  0.00  0.00    -0.275 OA
ATOM      3  N   UNL     1       6.469   1.218   1.605  0.00  0.00    -0.268 N 
ATOM      4  C   UNL     1       6.823   1.550   2.918  0.00  0.00    +0.154 A 
ATOM      5  C   UNL     1       8.008   2.306   3.328  0.00  0.00    +0.043 A 
ATOM      6  C   UNL     1       9.073   2.890   2.635  0.00  0.00    +0.038 A 
ATOM      7  C   UNL     1      10.060   3.551   3.339  0.00  0.00    +0.052 A 
ATOM      8  C   UNL     1       9.995   3.637   4.730  0.00  0.00    +0.027 A 
ATOM      9  C   UNL     1       8.960   3.071   5.417  0.00  0.00    +0.029 A 
ATOM     10  C   UNL     1       7.952   2.398   4.731  0.00  0.00    +0.068 A 
ATOM     11  N   UNL     1       6.813   1.742   5.126  0.00  0.00    -0.275 N 
ATOM     12  H   UNL     1       6.511   1.641   6.043  0.00  0.00    +0.189 HD
ATOM     13  N   UNL     1       6.153   1.246   3.997  0.00  0.00    -0.157 NA
ATOM     14  H   UNL     1       7.035   1.490   0.866  0.00  0.00    +0.156 HD
ENDROOT
BRANCH   7  15
ATOM     15  N   UNL     1      11.130   4.138   2.654  0.00  0.00    -0.207 N 
ATOM     16  C   UNL     1      11.651   3.759   1.328  0.00  0.00    +0.133 C 
ATOM     17  C   UNL     1      12.270   4.975   0.614  0.00  0.00    +0.045 C 
ATOM     18  C   UNL     1      13.147   5.675   1.695  0.00  0.00    +0.190 C 
ATOM     19  S   UNL     1      12.077   5.422   3.169  0.00  0.00    +0.046 S 
ATOM     20  O   UNL     1      12.836   4.919   4.260  0.00  0.00    -0.155 OA
ATOM     21  O   UNL     1      11.181   6.512   3.335  0.00  0.00    -0.155 OA
ENDBRANCH   7  15
BRANCH   1  22
ATOM     22  C   UNL     1       4.960   0.161  -0.046  0.00  0.00    +0.131 C 
BRANCH  22  32
ATOM     23  C   UNL     1      -0.016   1.357   0.009  0.00  0.00    +0.001 A 
ATOM     24  C   UNL     1       1.169   2.091   0.002  0.00  0.00    +0.001 A 
ATOM     25  C   UNL     1       2.378   1.468  -0.013  0.00  0.00    +0.009 A 
ATOM     26  C   UNL     1       2.438   0.064  -0.021  0.00  0.00    -0.014 A 
ATOM     27  C   UNL     1       1.233  -0.683  -0.013  0.00  0.00    -0.018 A 
ATOM     28  C   UNL     1       0.002  -0.004   0.002  0.00  0.00    +0.008 A 
ATOM     29  C   UNL     1       1.292  -2.087  -0.021  0.00  0.00    +0.008 A 
ATOM     30  C   UNL     1       2.502  -2.709  -0.036  0.00  0.00    +0.001 A 
ATOM     31  C   UNL     1       3.687  -1.976  -0.043  0.00  0.00    +0.005 A 
ATOM     32  C   UNL     1       3.668  -0.615  -0.037  0.00  0.00    -0.031 A 
ENDBRANCH  22  32
ENDBRANCH   1  22
TORSDOF 3
