REMARK  Name = CHEMBL184404
REMARK  3 active torsions:
REMARK  status: ('A' for Active; 'I' for Inactive)
REMARK    1  A    between atoms: C_9  and  C_11
REMARK    2  A    between atoms: C_11  and  C_12
REMARK    3  A    between atoms: C_18  and  C_20
REMARK                            x       y       z     vdW  Elec       q    Type
REMARK                         _______ _______ _______ _____ _____    ______ ____
ROOT
ATOM      1  C   UNL     1       1.317  -2.707   1.390  0.00  0.00    +0.223 C 
ATOM      2  O   UNL     1       1.406  -1.925   2.312  0.00  0.00    -0.275 OA
ATOM      3  N   UNL     1       1.342  -4.034   1.627  0.00  0.00    -0.264 N 
ATOM      4  C   UNL     1       1.469  -4.505   2.929  0.00  0.00    +0.165 A 
ATOM      5  N   UNL     1       1.571  -3.812   4.043  0.00  0.00    -0.233 NA
ATOM      6  C   UNL     1       1.686  -4.413   5.212  0.00  0.00    +0.124 A 
ATOM      7  C   UNL     1       1.694  -5.768   5.210  0.00  0.00    +0.014 A 
ATOM      8  S   UNL     1       1.522  -6.099   3.464  0.00  0.00    -0.057 S 
ATOM      9  H   UNL     1       1.270  -4.660   0.890  0.00  0.00    +0.157 HD
ENDROOT
BRANCH   7  10
ATOM     10  C   UNL     1       1.811  -6.731   6.364  0.00  0.00    +0.027 C 
ATOM     11  C   UNL     1       2.650  -7.979   6.043  0.00  0.00    +0.009 C 
ATOM     12  C   UNL     1       1.612  -8.785   6.842  0.00  0.00    +0.001 C 
ATOM     13  C   UNL     1       0.604  -7.674   6.504  0.00  0.00    +0.009 C 
ENDBRANCH   7  10
BRANCH   1  14
ATOM     14  C   UNL     1       1.180  -2.197  -0.021  0.00  0.00    +0.131 C 
BRANCH  14  23
ATOM     15  C   UNL     1      -0.017   1.389   0.010  0.00  0.00    +0.001 A 
ATOM     16  C   UNL     1       1.140   2.108   0.003  0.00  0.00    +0.010 A 
ATOM     17  C   UNL     1       2.372   1.436  -0.013  0.00  0.00    +0.000 A 
ATOM     18  C   UNL     1       3.596   2.123  -0.020  0.00  0.00    +0.119 A 
ATOM     19  N   UNL     1       4.723   1.451  -0.034  0.00  0.00    -0.263 NA
ATOM     20  C   UNL     1       4.769   0.126  -0.042  0.00  0.00    +0.111 A 
ATOM     21  C   UNL     1       3.638  -0.633  -0.036  0.00  0.00    +0.028 A 
ATOM     22  C   UNL     1       2.390   0.017  -0.021  0.00  0.00    -0.011 A 
ATOM     23  C   UNL     1       1.179  -0.690  -0.013  0.00  0.00    -0.031 A 
ATOM     24  C   UNL     1       0.002  -0.004   0.002  0.00  0.00    +0.005 A 
ENDBRANCH  14  23
ENDBRANCH   1  14
TORSDOF 3
