REMARK  Name = CHEMBL104526
REMARK  3 active torsions:
REMARK  status: ('A' for Active; 'I' for Inactive)
REMARK    1  A    between atoms: C_1  and  N_2
REMARK    2  A    between atoms: C_21  and  C_23
REMARK    3  A    between atoms: C_23  and  O_24
REMARK                            x       y       z     vdW  Elec       q    Type
REMARK                         _______ _______ _______ _____ _____    ______ ____
ROOT
ATOM      1  C   UNL     1      -0.018   1.461   0.010  0.00  0.00    +0.149 C 
ATOM      2  N   UNL     1       0.002  -0.004   0.002  0.00  0.00    -0.349 N 
ATOM      3  C   UNL     1      -0.022  -0.749  -1.148  0.00  0.00    +0.086 A 
ATOM      4  C   UNL     1      -0.153  -2.048  -0.840  0.00  0.00    +0.027 A 
ATOM      5  C   UNL     1      -0.190  -2.133   0.620  0.00  0.00    +0.000 A 
ATOM      6  C   UNL     1       0.024  -0.827   1.095  0.00  0.00    +0.057 A 
ATOM      7  C   UNL     1       0.247  -0.659   2.474  0.00  0.00    +0.021 A 
ATOM      8  C   UNL     1      -0.198  -1.676   3.360  0.00  0.00    +0.009 A 
ATOM      9  C   UNL     1      -0.457  -2.963   2.856  0.00  0.00    +0.011 A 
ATOM     10  C   UNL     1      -0.424  -3.189   1.519  0.00  0.00    +0.011 A 
ATOM     11  C   UNL     1      -0.374  -1.387   4.729  0.00  0.00    +0.059 A 
ATOM     12  C   UNL     1       0.141  -0.175   5.248  0.00  0.00    +0.021 A 
ATOM     13  C   UNL     1      -0.176  -0.164   6.673  0.00  0.00    +0.009 A 
ATOM     14  C   UNL     1       0.030   0.721   7.733  0.00  0.00    +0.010 A 
ATOM     15  C   UNL     1      -0.431   0.326   8.983  0.00  0.00    +0.001 A 
ATOM     16  C   UNL     1      -1.082  -0.885   9.202  0.00  0.00    +0.006 A 
ATOM     17  C   UNL     1      -1.308  -1.758   8.168  0.00  0.00    -0.023 A 
ATOM     18  C   UNL     1      -0.845  -1.370   6.913  0.00  0.00    +0.053 A 
ATOM     19  N   UNL     1      -0.971  -2.085   5.744  0.00  0.00    -0.339 N 
ATOM     20  C   UNL     1      -1.669  -3.379   5.743  0.00  0.00    +0.128 C 
ATOM     21  C   UNL     1      -2.672  -3.393   6.904  0.00  0.00    +0.039 C 
ATOM     22  C   UNL     1      -1.999  -3.088   8.248  0.00  0.00    +0.044 C 
ATOM     23  C   UNL     1       0.818   0.713   4.397  0.00  0.00    +0.060 A 
ATOM     24  C   UNL     1       0.936   0.436   3.026  0.00  0.00    +0.060 A 
ATOM     25  C   UNL     1       1.914   1.413   2.519  0.00  0.00    +0.252 C 
ATOM     26  O   UNL     1       2.501   1.364   1.456  0.00  0.00    -0.270 OA
ATOM     27  N   UNL     1       2.087   2.367   3.451  0.00  0.00    -0.248 N 
ATOM     28  C   UNL     1       1.478   2.021   4.598  0.00  0.00    +0.252 C 
ATOM     29  O   UNL     1       1.468   2.679   5.619  0.00  0.00    -0.270 OA
ATOM     30  H   UNL     1       2.579   3.192   3.302  0.00  0.00    +0.158 HD
ENDROOT
BRANCH  21  31
ATOM     31  C   UNL     1      -3.323  -4.776   6.979  0.00  0.00    +0.161 C 
BRANCH  31  32
ATOM     32  O   UNL     1      -4.343  -4.769   7.980  0.00  0.00    -0.395 OA
ATOM     33  H   UNL     1      -4.799  -5.615   8.082  0.00  0.00    +0.209 HD
ENDBRANCH  31  32
ENDBRANCH  21  31
TORSDOF 2
