REMARK  Name = CHEMBL357770
REMARK  5 active torsions:
REMARK  status: ('A' for Active; 'I' for Inactive)
REMARK    1  A    between atoms: C_1  and  O_2
REMARK    2  A    between atoms: O_2  and  C_3
REMARK    3  A    between atoms: C_6  and  C_9
REMARK    4  A    between atoms: C_19  and  N_23
REMARK    5  A    between atoms: N_26  and  N_27
REMARK                            x       y       z     vdW  Elec       q    Type
REMARK                         _______ _______ _______ _____ _____    ______ ____
ROOT
ATOM      1  C   UNL     1       2.521  -2.486  -4.385  0.00  0.00    +0.104 A 
ATOM      2  C   UNL     1       3.256  -3.695  -4.340  0.00  0.00    +0.075 A 
ATOM      3  C   UNL     1       3.703  -3.953  -5.629  0.00  0.00    +0.078 A 
ATOM      4  N   UNL     1       3.260  -2.948  -6.416  0.00  0.00    -0.276 N 
ATOM      5  N   UNL     1       2.526  -2.054  -5.629  0.00  0.00    -0.173 NA
ATOM      6  H   UNL     1       3.421  -2.863  -7.369  0.00  0.00    +0.189 HD
ATOM      7  C   UNL     1       4.481  -5.215  -5.624  0.00  0.00    +0.013 A 
ATOM      8  C   UNL     1       5.134  -5.908  -6.632  0.00  0.00    +0.011 A 
ATOM      9  C   UNL     1       5.802  -7.092  -6.347  0.00  0.00    +0.002 A 
ATOM     10  C   UNL     1       5.823  -7.592  -5.064  0.00  0.00    +0.024 A 
ATOM     11  C   UNL     1       5.171  -6.910  -4.034  0.00  0.00    +0.046 A 
ATOM     12  C   UNL     1       4.499  -5.721  -4.311  0.00  0.00    +0.053 A 
ATOM     13  C   UNL     1       3.730  -4.783  -3.462  0.00  0.00    +0.200 C 
ATOM     14  O   UNL     1       3.528  -4.888  -2.268  0.00  0.00    -0.286 OA
ENDROOT
BRANCH   1  18
ATOM     15  C   UNL     1       0.615  -0.592  -1.088  0.00  0.00    +0.120 A 
ATOM     16  C   UNL     1       1.192   0.177  -2.091  0.00  0.00    +0.046 A 
ATOM     17  C   UNL     1       1.810  -0.434  -3.161  0.00  0.00    +0.013 A 
ATOM     18  C   UNL     1       1.857  -1.826  -3.236  0.00  0.00    +0.003 A 
ATOM     19  C   UNL     1       1.277  -2.595  -2.227  0.00  0.00    +0.013 A 
ATOM     20  C   UNL     1       0.665  -1.978  -1.157  0.00  0.00    +0.046 A 
BRANCH  15  22
ATOM     21  C   UNL     1      -0.008   1.442  -0.028  0.00  0.00    +0.277 C 
ATOM     22  O   UNL     1       0.007   0.013  -0.035  0.00  0.00    -0.495 OA
ENDBRANCH  15  22
ENDBRANCH   1  18
BRANCH  11  23
ATOM     23  N   UNL     1       5.193  -7.416  -2.738  0.00  0.00    -0.268 N 
ATOM     24  C   UNL     1       5.175  -8.748  -2.534  0.00  0.00    +0.318 C 
ATOM     25  O   UNL     1       5.221  -9.509  -3.481  0.00  0.00    -0.251 OA
ATOM     26  N   UNL     1       5.104  -9.236  -1.280  0.00  0.00    -0.232 N 
ATOM     27  H   UNL     1       5.222  -6.809  -1.982  0.00  0.00    +0.156 HD
ATOM     28  H   UNL     1       5.091 -10.195  -1.133  0.00  0.00    +0.171 HD
BRANCH  26  29
ATOM     29  N   UNL     1       5.052  -8.381  -0.216  0.00  0.00    -0.221 NA
ATOM     30  C   UNL     1       6.236  -8.534   0.642  0.00  0.00    +0.133 C 
ATOM     31  C   UNL     1       6.166  -7.519   1.786  0.00  0.00    +0.177 C 
ATOM     32  O   UNL     1       4.946  -7.707   2.509  0.00  0.00    -0.377 OA
ATOM     33  C   UNL     1       3.772  -7.564   1.704  0.00  0.00    +0.177 C 
ATOM     34  C   UNL     1       3.818  -8.580   0.559  0.00  0.00    +0.133 C 
ENDBRANCH  26  29
ENDBRANCH  11  23
TORSDOF 4
