REMARK  Name = CHEMBL496569
REMARK  5 active torsions:
REMARK  status: ('A' for Active; 'I' for Inactive)
REMARK    1  A    between atoms: C_4  and  C_7
REMARK    2  A    between atoms: N_9  and  C_10
REMARK    3  A    between atoms: C_15  and  C_16
REMARK    4  A    between atoms: C_22  and  C_26
REMARK    5  A    between atoms: C_26  and  N_27
REMARK                            x       y       z     vdW  Elec       q    Type
REMARK                         _______ _______ _______ _____ _____    ______ ____
ROOT
ATOM      1  C   UNL     1       4.038  -5.127  -0.065  0.00  0.00    +0.161 A 
ATOM      2  N   UNL     1       4.227  -6.482  -0.068  0.00  0.00    -0.337 N 
ATOM      3  H   UNL     1       5.080  -6.945  -0.075  0.00  0.00    +0.167 HD
ATOM      4  C   UNL     1       2.977  -7.069  -0.060  0.00  0.00    +0.067 A 
ATOM      5  C   UNL     1       2.529  -8.383  -0.059  0.00  0.00    +0.028 A 
ATOM      6  C   UNL     1       1.175  -8.644  -0.051  0.00  0.00    +0.007 A 
ATOM      7  C   UNL     1       0.258  -7.603  -0.042  0.00  0.00    -0.031 A 
ATOM      8  C   UNL     1       0.679  -6.303  -0.043  0.00  0.00    +0.034 A 
ATOM      9  C   UNL     1       2.047  -6.014  -0.052  0.00  0.00    +0.090 A 
ATOM     10  N   UNL     1       2.755  -4.858  -0.050  0.00  0.00    -0.226 NA
ENDROOT
BRANCH   1  16
ATOM     11  C   UNL     1       4.944  -2.714  -0.061  0.00  0.00    +0.082 A 
ATOM     12  C   UNL     1       6.175  -2.146  -0.064  0.00  0.00    +0.129 A 
ATOM     13  N   UNL     1       7.095  -3.145  -0.080  0.00  0.00    -0.282 N 
ATOM     14  H   UNL     1       8.059  -3.031  -0.086  0.00  0.00    +0.188 HD
ATOM     15  N   UNL     1       6.412  -4.368  -0.087  0.00  0.00    -0.169 NA
ATOM     16  C   UNL     1       5.118  -4.118  -0.070  0.00  0.00    +0.149 A 
BRANCH  11  19
ATOM     17  C   UNL     1       3.695  -0.684  -0.037  0.00  0.00    +0.248 C 
ATOM     18  O   UNL     1       4.738  -0.060  -0.044  0.00  0.00    -0.270 OA
ATOM     19  N   UNL     1       3.717  -2.032  -0.045  0.00  0.00    -0.278 N 
ATOM     20  H   UNL     1       2.885  -2.531  -0.039  0.00  0.00    +0.155 HD
BRANCH  17  24
ATOM     21  C   UNL     1      -0.017   1.379   0.010  0.00  0.00    +0.000 A 
ATOM     22  C   UNL     1       1.168   2.094   0.002  0.00  0.00    +0.001 A 
ATOM     23  C   UNL     1       2.377   1.429  -0.013  0.00  0.00    +0.013 A 
ATOM     24  C   UNL     1       2.404   0.034  -0.021  0.00  0.00    +0.037 A 
ATOM     25  C   UNL     1       1.204  -0.681  -0.013  0.00  0.00    +0.013 A 
ATOM     26  C   UNL     1       0.002  -0.004   0.002  0.00  0.00    +0.001 A 
ENDBRANCH  17  24
ENDBRANCH  11  19
ENDBRANCH   1  16
BRANCH   7  27
ATOM     27  C   UNL     1      -1.218  -7.908  -0.033  0.00  0.00    +0.119 C 
BRANCH  27  28
ATOM     28  N   UNL     1      -1.688  -8.011   1.355  0.00  0.00    -0.294 NA
ATOM     29  C   UNL     1      -1.093  -9.174   2.029  0.00  0.00    +0.113 C 
ATOM     30  C   UNL     1      -1.562  -9.208   3.486  0.00  0.00    +0.175 C 
ATOM     31  O   UNL     1      -2.991  -9.236   3.521  0.00  0.00    -0.377 OA
ATOM     32  C   UNL     1      -3.604  -8.117   2.874  0.00  0.00    +0.175 C 
ATOM     33  C   UNL     1      -3.156  -8.071   1.411  0.00  0.00    +0.113 C 
ENDBRANCH  27  28
ENDBRANCH   7  27
TORSDOF 5
