REMARK  Name = CHEMBL358525
REMARK  7 active torsions:
REMARK  status: ('A' for Active; 'I' for Inactive)
REMARK    1  A    between atoms: C_5  and  N_7
REMARK    2  A    between atoms: C_8  and  C_10
REMARK    3  A    between atoms: C_10  and  N_11
REMARK    4  A    between atoms: C_14  and  C_17
REMARK    5  A    between atoms: C_17  and  N_18
REMARK    6  A    between atoms: C_26  and  C_27
REMARK    7  A    between atoms: C_30  and  N_33
REMARK                            x       y       z     vdW  Elec       q    Type
REMARK                         _______ _______ _______ _____ _____    ______ ____
ROOT
ATOM      1  C   UNL     1       0.233   1.990  -0.185  0.00  0.00    +0.002 A 
ATOM      2  C   UNL     1       1.455   2.652  -0.169  0.00  0.00    +0.011 A 
ATOM      3  C   UNL     1       2.637   1.932  -0.076  0.00  0.00    +0.013 A 
ATOM      4  C   UNL     1       2.589   0.528   0.002  0.00  0.00    +0.053 A 
ATOM      5  C   UNL     1       1.359  -0.128  -0.014  0.00  0.00    +0.045 A 
ATOM      6  C   UNL     1       0.180   0.616  -0.109  0.00  0.00    +0.024 A 
ATOM      7  C   UNL     1       3.984   0.040   0.090  0.00  0.00    +0.200 C 
ATOM      8  O   UNL     1       4.340  -1.119   0.171  0.00  0.00    -0.286 OA
ATOM      9  C   UNL     1       4.860   1.228   0.060  0.00  0.00    +0.075 A 
ATOM     10  C   UNL     1       4.057   2.356  -0.039  0.00  0.00    +0.078 A 
ATOM     11  N   UNL     1       4.875   3.430  -0.065  0.00  0.00    -0.276 N 
ATOM     12  H   UNL     1       4.592   4.356  -0.130  0.00  0.00    +0.189 HD
ATOM     13  N   UNL     1       6.199   2.986   0.018  0.00  0.00    -0.173 NA
ATOM     14  C   UNL     1       6.204   1.671   0.094  0.00  0.00    +0.104 A 
ENDROOT
BRANCH  14  15
ATOM     15  C   UNL     1       7.405   0.808   0.196  0.00  0.00    +0.003 A 
ATOM     16  C   UNL     1       7.361  -0.364   0.950  0.00  0.00    +0.012 A 
ATOM     17  C   UNL     1       8.478  -1.165   1.044  0.00  0.00    +0.024 A 
ATOM     18  C   UNL     1       9.650  -0.805   0.387  0.00  0.00    +0.030 A 
ATOM     19  C   UNL     1       9.696   0.363  -0.366  0.00  0.00    +0.024 A 
ATOM     20  C   UNL     1       8.579   1.164  -0.468  0.00  0.00    +0.012 A 
BRANCH  18  21
ATOM     21  N   UNL     1      10.780  -1.617   0.483  0.00  0.00    -0.326 N 
ATOM     22  C   UNL     1      12.066  -1.197  -0.096  0.00  0.00    +0.133 C 
ATOM     23  C   UNL     1      13.151  -1.347   0.977  0.00  0.00    +0.178 C 
ATOM     24  O   UNL     1      13.100  -2.670   1.516  0.00  0.00    -0.377 OA
ATOM     25  C   UNL     1      11.872  -2.985   2.179  0.00  0.00    +0.178 C 
ATOM     26  C   UNL     1      10.723  -2.916   1.173  0.00  0.00    +0.133 C 
ENDBRANCH  18  21
ENDBRANCH  14  15
BRANCH   5  27
ATOM     27  N   UNL     1       1.305  -1.516   0.062  0.00  0.00    -0.286 N 
ATOM     28  C   UNL     1       0.291  -2.115   0.717  0.00  0.00    +0.201 C 
ATOM     29  O   UNL     1      -0.615  -1.450   1.171  0.00  0.00    -0.278 OA
ATOM     30  H   UNL     1       1.997  -2.052  -0.355  0.00  0.00    +0.155 HD
BRANCH  28  31
ATOM     31  C   UNL     1       0.284  -3.613   0.885  0.00  0.00    +0.019 C 
BRANCH  31  32
ATOM     32  N   UNL     1      -0.917  -4.017   1.628  0.00  0.00    +0.385 N 
ATOM     33  C   UNL     1      -0.859  -3.466   2.987  0.00  0.00    -0.078 C 
ATOM     34  C   UNL     1      -2.146  -3.815   3.738  0.00  0.00    -0.017 C 
ATOM     35  C   UNL     1      -2.291  -5.338   3.809  0.00  0.00    -0.032 C 
ATOM     36  C   UNL     1      -2.275  -5.909   2.389  0.00  0.00    -0.017 C 
ATOM     37  C   UNL     1      -0.984  -5.482   1.687  0.00  0.00    -0.078 C 
ATOM     38  H   UNL     1      -1.736  -3.663   1.158  0.00  0.00    -0.081 HD
BRANCH  35  39
ATOM     39  C   UNL     1      -3.614  -5.694   4.490  0.00  0.00    -0.083 C 
BRANCH  39  40
ATOM     40  N   UNL     1      -3.698  -7.150   4.665  0.00  0.00    +0.378 N 
ATOM     41  H   UNL     1      -4.571  -7.385   5.114  0.00  0.00    -0.090 HD
ATOM     42  H   UNL     1      -3.651  -7.601   3.763  0.00  0.00    -0.090 HD
ATOM     43  H   UNL     1      -2.930  -7.465   5.238  0.00  0.00    -0.090 HD
ENDBRANCH  39  40
ENDBRANCH  35  39
ENDBRANCH  31  32
ENDBRANCH  28  31
ENDBRANCH   5  27
TORSDOF 7
