REMARK  Name = CHEMBL382607
REMARK  6 active torsions:
REMARK  status: ('A' for Active; 'I' for Inactive)
REMARK    1  A    between atoms: C_4  and  S_7
REMARK    2  A    between atoms: S_7  and  C_10
REMARK    3  A    between atoms: C_13  and  N_16
REMARK    4  A    between atoms: N_16  and  C_17
REMARK    5  A    between atoms: N_26  and  C_27
REMARK    6  A    between atoms: C_30  and  N_33
REMARK                            x       y       z     vdW  Elec       q    Type
REMARK                         _______ _______ _______ _____ _____    ______ ____
ROOT
ATOM      1  C   UNL     1       5.221  -2.862   6.305  0.00  0.00    +0.131 A 
ATOM      2  C   UNL     1       4.540  -3.886   5.707  0.00  0.00    +0.087 A 
ATOM      3  C   UNL     1       4.249  -5.038   6.451  0.00  0.00    +0.126 A 
ATOM      4  N   UNL     1       4.630  -5.129   7.716  0.00  0.00    -0.196 NA
ATOM      5  C   UNL     1       5.296  -4.131   8.308  0.00  0.00    +0.256 A 
ATOM      6  N   UNL     1       5.602  -2.995   7.612  0.00  0.00    -0.182 N 
ATOM      7  N   UNL     1       6.297  -2.163   8.499  0.00  0.00    -0.151 NA
ATOM      8  C   UNL     1       6.383  -2.802   9.639  0.00  0.00    +0.247 A 
ATOM      9  N   UNL     1       5.778  -3.980   9.537  0.00  0.00    -0.197 NA
ATOM     10  N   UNL     1       3.561  -6.084   5.862  0.00  0.00    -0.326 N 
ATOM     11  H   UNL     1       3.281  -6.019   4.936  0.00  0.00    +0.148 HD
ENDROOT
BRANCH  10  12
ATOM     12  C   UNL     1       3.255  -7.289   6.637  0.00  0.00    +0.072 C 
ATOM     13  C   UNL     1       4.451  -8.242   6.590  0.00  0.00    +0.020 C 
ATOM     14  C   UNL     1       4.132  -9.501   7.399  0.00  0.00    -0.014 C 
ATOM     15  C   UNL     1       2.904 -10.192   6.804  0.00  0.00    -0.075 C 
ATOM     16  C   UNL     1       1.708  -9.239   6.851  0.00  0.00    -0.014 C 
ATOM     17  C   UNL     1       2.028  -7.980   6.042  0.00  0.00    +0.020 C 
BRANCH  15  18
ATOM     18  N   UNL     1       2.598 -11.401   7.581  0.00  0.00    +0.380 N 
ATOM     19  H   UNL     1       2.409 -11.146   8.539  0.00  0.00    -0.090 HD
ATOM     20  H   UNL     1       1.788 -11.857   7.188  0.00  0.00    -0.090 HD
ATOM     21  H   UNL     1       3.386 -12.030   7.550  0.00  0.00    -0.090 HD
ENDBRANCH  15  18
ENDBRANCH  10  12
BRANCH   1  22
ATOM     22  N   UNL     1       5.522  -1.715   5.601  0.00  0.00    -0.299 N 
ATOM     23  H   UNL     1       6.046  -1.770   4.786  0.00  0.00    +0.154 HD
BRANCH  22  27
ATOM     24  C   UNL     1       4.187   1.984   6.973  0.00  0.00    +0.094 A 
ATOM     25  C   UNL     1       3.764   0.823   7.595  0.00  0.00    +0.029 A 
ATOM     26  C   UNL     1       4.205  -0.405   7.142  0.00  0.00    +0.025 A 
ATOM     27  C   UNL     1       5.074  -0.474   6.061  0.00  0.00    +0.032 A 
ATOM     28  C   UNL     1       5.496   0.694   5.438  0.00  0.00    +0.025 A 
ATOM     29  C   UNL     1       5.048   1.918   5.892  0.00  0.00    +0.029 A 
BRANCH  24  30
ATOM     30  S   UNL     1       3.622   3.548   7.553  0.00  0.00    +0.025 S 
ATOM     31  O   UNL     1       4.588   4.507   7.142  0.00  0.00    -0.164 OA
ATOM     32  O   UNL     1       3.259   3.369   8.915  0.00  0.00    -0.164 OA
BRANCH  30  36
ATOM     33  C   UNL     1      -0.191   4.512   5.312  0.00  0.00    +0.000 A 
ATOM     34  C   UNL     1      -0.248   3.817   6.506  0.00  0.00    +0.002 A 
ATOM     35  C   UNL     1       0.917   3.523   7.190  0.00  0.00    +0.027 A 
ATOM     36  C   UNL     1       2.138   3.923   6.680  0.00  0.00    +0.094 A 
ATOM     37  C   UNL     1       2.195   4.617   5.486  0.00  0.00    +0.027 A 
ATOM     38  C   UNL     1       1.030   4.912   4.803  0.00  0.00    +0.002 A 
ENDBRANCH  30  36
ENDBRANCH  24  30
ENDBRANCH  22  27
ENDBRANCH   1  22
TORSDOF 6
