REMARK  Name = CHEMBL313682
REMARK  9 active torsions:
REMARK  status: ('A' for Active; 'I' for Inactive)
REMARK    1  A    between atoms: C_3  and  C_24
REMARK    2  A    between atoms: C_9  and  O_23
REMARK    3  A    between atoms: C_10  and  N_11
REMARK    4  A    between atoms: N_12  and  C_13
REMARK    5  A    between atoms: C_16  and  S_19
REMARK    6  A    between atoms: S_19  and  N_22
REMARK    7  A    between atoms: C_24  and  C_25
REMARK    8  A    between atoms: C_25  and  C_26
REMARK    9  A    between atoms: C_29  and  O_32
REMARK                            x       y       z     vdW  Elec       q    Type
REMARK                         _______ _______ _______ _____ _____    ______ ____
ROOT
ATOM      1  C   UNL     1       0.408   1.204  -0.935  0.00  0.00    +0.002 A 
ATOM      2  C   UNL     1       1.666   1.774  -0.804  0.00  0.00    +0.004 A 
ATOM      3  C   UNL     1       2.768   0.978  -0.575  0.00  0.00    -0.036 A 
ATOM      4  C   UNL     1       2.613  -0.403  -0.476  0.00  0.00    +0.034 A 
ATOM      5  C   UNL     1       1.341  -0.981  -0.608  0.00  0.00    +0.052 A 
ATOM      6  C   UNL     1       0.242  -0.161  -0.839  0.00  0.00    +0.026 A 
ATOM      7  N   UNL     1       1.481  -2.350  -0.467  0.00  0.00    -0.324 N 
ATOM      8  H   UNL     1       0.752  -2.988  -0.516  0.00  0.00    +0.169 HD
ATOM      9  C   UNL     1       2.784  -2.675  -0.251  0.00  0.00    +0.219 A 
ATOM     10  C   UNL     1       3.549  -1.519  -0.243  0.00  0.00    +0.155 A 
ENDROOT
BRANCH  10  11
ATOM     11  N   UNL     1       4.882  -1.432  -0.058  0.00  0.00    -0.143 NA
ATOM     12  N   UNL     1       5.588  -2.506   0.059  0.00  0.00    -0.149 NA
BRANCH  12  13
ATOM     13  C   UNL     1       6.919  -2.419   0.363  0.00  0.00    +0.086 A 
ATOM     14  C   UNL     1       7.491  -1.181   0.664  0.00  0.00    +0.031 A 
ATOM     15  C   UNL     1       8.834  -1.101   0.969  0.00  0.00    +0.030 A 
ATOM     16  C   UNL     1       9.614  -2.244   0.978  0.00  0.00    +0.105 A 
ATOM     17  C   UNL     1       9.054  -3.474   0.680  0.00  0.00    +0.030 A 
ATOM     18  C   UNL     1       7.712  -3.570   0.379  0.00  0.00    +0.031 A 
BRANCH  16  19
ATOM     19  S   UNL     1      11.328  -2.133   1.369  0.00  0.00    +0.056 S 
ATOM     20  O   UNL     1      11.954  -3.263   0.777  0.00  0.00    -0.153 OA
ATOM     21  O   UNL     1      11.726  -0.800   1.076  0.00  0.00    -0.153 OA
BRANCH  19  22
ATOM     22  N   UNL     1      11.469  -2.319   3.009  0.00  0.00    -0.204 NA
ATOM     23  H   UNL     1      12.271  -2.715   3.385  0.00  0.00    +0.144 HD
ATOM     24  H   UNL     1      10.750  -2.032   3.593  0.00  0.00    +0.144 HD
ENDBRANCH  19  22
ENDBRANCH  16  19
ENDBRANCH  12  13
ENDBRANCH  10  11
BRANCH   9  25
ATOM     25  O   UNL     1       3.258  -3.929  -0.072  0.00  0.00    -0.492 OA
ATOM     26  H   UNL     1       3.522  -4.370  -0.891  0.00  0.00    +0.294 HD
ENDBRANCH   9  25
BRANCH   3  27
ATOM     27  C   UNL     1       4.133   1.599  -0.434  0.00  0.00    +0.040 C 
BRANCH  27  28
ATOM     28  C   UNL     1       4.836   1.603  -1.793  0.00  0.00    +0.040 C 
BRANCH  28  29
ATOM     29  C   UNL     1       6.147   2.336  -1.679  0.00  0.00    -0.047 A 
ATOM     30  C   UNL     1       6.208   3.688  -1.962  0.00  0.00    +0.007 A 
ATOM     31  C   UNL     1       7.410   4.363  -1.858  0.00  0.00    +0.045 A 
ATOM     32  C   UNL     1       8.555   3.682  -1.471  0.00  0.00    +0.117 A 
ATOM     33  C   UNL     1       8.491   2.326  -1.188  0.00  0.00    +0.045 A 
ATOM     34  C   UNL     1       7.286   1.657  -1.287  0.00  0.00    +0.007 A 
BRANCH  32  35
ATOM     35  O   UNL     1       9.738   4.344  -1.369  0.00  0.00    -0.507 OA
ATOM     36  H   UNL     1       9.904   4.720  -0.494  0.00  0.00    +0.292 HD
ENDBRANCH  32  35
ENDBRANCH  28  29
ENDBRANCH  27  28
ENDBRANCH   3  27
TORSDOF 9
