REMARK  Name = CHEMBL186952
REMARK  5 active torsions:
REMARK  status: ('A' for Active; 'I' for Inactive)
REMARK    1  A    between atoms: C_4  and  C_8
REMARK    2  A    between atoms: C_8  and  C_10
REMARK    3  A    between atoms: C_15  and  N_26
REMARK    4  A    between atoms: C_16  and  C_19
REMARK    5  A    between atoms: C_19  and  C_21
REMARK                            x       y       z     vdW  Elec       q    Type
REMARK                         _______ _______ _______ _____ _____    ______ ____
ROOT
ATOM      1  C   UNL     1       3.734  -2.143   0.059  0.00  0.00    +0.039 A 
ATOM      2  C   UNL     1       2.523  -2.877   0.062  0.00  0.00    +0.017 A 
ATOM      3  C   UNL     1       2.564  -4.231   0.159  0.00  0.00    +0.047 A 
ATOM      4  C   UNL     1       3.808  -4.887   0.255  0.00  0.00    +0.140 A 
ATOM      5  N   UNL     1       4.115  -6.178   0.359  0.00  0.00    -0.213 NA
ATOM      6  C   UNL     1       5.434  -6.327   0.422  0.00  0.00    +0.146 A 
ATOM      7  C   UNL     1       6.015  -5.059   0.356  0.00  0.00    +0.136 A 
ATOM      8  N   UNL     1       4.965  -4.157   0.251  0.00  0.00    -0.294 N 
ATOM      9  C   UNL     1       4.937  -2.812   0.149  0.00  0.00    +0.105 A 
ENDROOT
BRANCH   6  10
ATOM     10  N   UNL     1       6.114  -7.530   0.535  0.00  0.00    -0.341 N 
ATOM     11  H   UNL     1       5.627  -8.368   0.501  0.00  0.00    +0.144 HD
ATOM     12  H   UNL     1       7.078  -7.534   0.648  0.00  0.00    +0.144 HD
ENDBRANCH   6  10
BRANCH   1  13
ATOM     13  C   UNL     1       3.709  -0.672  -0.046  0.00  0.00    +0.200 C 
ATOM     14  O   UNL     1       4.750  -0.052  -0.150  0.00  0.00    -0.286 OA
BRANCH  13  18
ATOM     15  C   UNL     1       0.001   1.399   0.014  0.00  0.00    +0.006 A 
ATOM     16  C   UNL     1       0.582   1.066  -1.196  0.00  0.00    +0.039 A 
ATOM     17  C   UNL     1       1.788   0.392  -1.225  0.00  0.00    +0.137 A 
ATOM     18  C   UNL     1       2.422   0.047  -0.025  0.00  0.00    +0.093 A 
ATOM     19  C   UNL     1       1.826   0.389   1.195  0.00  0.00    +0.137 A 
ATOM     20  C   UNL     1       0.619   1.062   1.205  0.00  0.00    +0.039 A 
ATOM     21  F   UNL     1       2.428   0.060   2.358  0.00  0.00    -0.205 F 
ATOM     22  F   UNL     1       2.355   0.068  -2.408  0.00  0.00    -0.205 F 
ENDBRANCH  13  18
ENDBRANCH   1  13
BRANCH   7  23
ATOM     23  C   UNL     1       7.394  -4.755   0.391  0.00  0.00    +0.220 C 
ATOM     24  O   UNL     1       7.928  -4.463   1.448  0.00  0.00    -0.284 OA
BRANCH  23  25
ATOM     25  C   UNL     1       8.185  -4.792  -0.847  0.00  0.00    +0.061 A 
ATOM     26  C   UNL     1       9.550  -4.624  -1.016  0.00  0.00    +0.019 A 
ATOM     27  C   UNL     1      10.007  -4.714  -2.310  0.00  0.00    +0.008 A 
ATOM     28  C   UNL     1       9.120  -4.953  -3.306  0.00  0.00    +0.046 A 
ATOM     29  S   UNL     1       7.640  -5.071  -2.521  0.00  0.00    -0.093 S 
ENDBRANCH  23  25
ENDBRANCH   7  23
TORSDOF 5
