REMARK  Name = CHEMBL193288
REMARK  5 active torsions:
REMARK  status: ('A' for Active; 'I' for Inactive)
REMARK    1  A    between atoms: C_1  and  C_2
REMARK    2  A    between atoms: C_2  and  C_3
REMARK    3  A    between atoms: C_2  and  C_16
REMARK    4  A    between atoms: C_6  and  N_9
REMARK    5  A    between atoms: C_21  and  C_25
REMARK                            x       y       z     vdW  Elec       q    Type
REMARK                         _______ _______ _______ _____ _____    ______ ____
ROOT
ATOM      1  C   UNL     1      -0.019   1.526   0.010  0.00  0.00    +0.022 C 
ATOM      2  C   UNL     1       0.002  -0.004   0.002  0.00  0.00    +0.102 C 
ENDROOT
BRANCH   2   3
ATOM      3  C   UNL     1       0.707  -0.490  -1.238  0.00  0.00    +0.225 C 
ATOM      4  O   UNL     1       1.704  -1.175  -1.140  0.00  0.00    -0.275 OA
ATOM      5  N   UNL     1       0.231  -0.164  -2.456  0.00  0.00    -0.268 N 
ATOM      6  C   UNL     1       0.887  -0.616  -3.609  0.00  0.00    +0.147 A 
ATOM      7  C   UNL     1       2.041  -1.416  -3.642  0.00  0.00    +0.068 A 
ATOM      8  C   UNL     1       2.358  -1.633  -4.938  0.00  0.00    +0.041 A 
ATOM      9  N   UNL     1       1.444  -0.997  -5.700  0.00  0.00    -0.280 N 
ATOM     10  H   UNL     1       1.423  -0.981  -6.670  0.00  0.00    +0.189 HD
ATOM     11  N   UNL     1       0.527  -0.371  -4.847  0.00  0.00    -0.158 NA
ATOM     12  H   UNL     1      -0.566   0.383  -2.534  0.00  0.00    +0.156 HD
BRANCH   8  13
ATOM     13  C   UNL     1       3.527  -2.441  -5.442  0.00  0.00    +0.037 C 
ATOM     14  C   UNL     1       4.192  -1.985  -6.742  0.00  0.00    +0.010 C 
ATOM     15  C   UNL     1       3.327  -3.246  -6.727  0.00  0.00    +0.010 C 
ENDBRANCH   8  13
ENDBRANCH   2   3
BRANCH   2  16
ATOM     16  C   UNL     1       0.731  -0.503   1.223  0.00  0.00    -0.036 A 
ATOM     17  C   UNL     1       2.050  -0.147   1.433  0.00  0.00    +0.006 A 
ATOM     18  C   UNL     1       2.721  -0.603   2.550  0.00  0.00    +0.024 A 
ATOM     19  C   UNL     1       2.069  -1.420   3.465  0.00  0.00    +0.038 A 
ATOM     20  C   UNL     1       0.744  -1.776   3.251  0.00  0.00    +0.024 A 
ATOM     21  C   UNL     1       0.077  -1.312   2.134  0.00  0.00    +0.006 A 
BRANCH  19  22
ATOM     22  N   UNL     1       2.746  -1.884   4.598  0.00  0.00    -0.246 N 
ATOM     23  C   UNL     1       2.202  -2.757   5.652  0.00  0.00    +0.211 C 
ATOM     24  C   UNL     1       3.365  -2.927   6.609  0.00  0.00    +0.238 C 
ATOM     25  O   UNL     1       3.381  -3.573   7.635  0.00  0.00    -0.274 OA
ATOM     26  N   UNL     1       4.378  -2.212   6.082  0.00  0.00    -0.238 N 
ATOM     27  C   UNL     1       4.023  -1.624   4.934  0.00  0.00    +0.313 C 
ATOM     28  O   UNL     1       4.768  -0.930   4.271  0.00  0.00    -0.252 OA
ATOM     29  H   UNL     1       5.258  -2.136   6.483  0.00  0.00    +0.159 HD
ENDBRANCH  19  22
ENDBRANCH   2  16
TORSDOF 4
