REMARK  Name = CHEMBL189657
REMARK  3 active torsions:
REMARK  status: ('A' for Active; 'I' for Inactive)
REMARK    1  A    between atoms: C_1  and  C_2
REMARK    2  A    between atoms: C_2  and  N_3
REMARK    3  A    between atoms: C_11  and  C_12
REMARK                            x       y       z     vdW  Elec       q    Type
REMARK                         _______ _______ _______ _____ _____    ______ ____
ROOT
ATOM      1  N   UNL     1       0.688  -0.476  -1.203  0.00  0.00    -0.322 N 
ATOM      2  C   UNL     1       0.107  -0.744  -2.420  0.00  0.00    +0.072 A 
ATOM      3  C   UNL     1      -1.186  -0.684  -2.928  0.00  0.00    +0.045 A 
ATOM      4  C   UNL     1      -1.400  -1.042  -4.242  0.00  0.00    +0.084 A 
ATOM      5  N   UNL     1      -0.405  -1.437  -5.018  0.00  0.00    -0.365 N 
ATOM      6  C   UNL     1       0.837  -1.512  -4.588  0.00  0.00    +0.112 A 
ATOM      7  C   UNL     1       1.148  -1.169  -3.270  0.00  0.00    +0.106 A 
ATOM      8  N   UNL     1       2.290  -1.141  -2.546  0.00  0.00    -0.224 NA
ATOM      9  C   UNL     1       2.029  -0.728  -1.330  0.00  0.00    +0.167 A 
ATOM     10  H   UNL     1      -0.597  -1.681  -5.937  0.00  0.00    +0.165 HD
ENDROOT
BRANCH   9  11
ATOM     11  C   UNL     1       3.031  -0.563  -0.254  0.00  0.00    +0.190 A 
ATOM     12  C   UNL     1       4.471  -0.821  -0.372  0.00  0.00    +0.191 A 
ATOM     13  N   UNL     1       5.029  -0.564   0.779  0.00  0.00    -0.033 NA
ATOM     14  O   UNL     1       4.014  -0.140   1.671  0.00  0.00    -0.240 OA
ATOM     15  N   UNL     1       2.787  -0.155   0.965  0.00  0.00    -0.044 NA
ATOM     16  N   UNL     1       5.127  -1.264  -1.513  0.00  0.00    -0.339 N 
ATOM     17  H   UNL     1       4.626  -1.430  -2.327  0.00  0.00    +0.144 HD
ATOM     18  H   UNL     1       6.086  -1.408  -1.496  0.00  0.00    +0.144 HD
ENDBRANCH   9  11
BRANCH   1  20
ATOM     19  C   UNL     1      -0.019   1.526   0.010  0.00  0.00    +0.027 C 
ATOM     20  C   UNL     1       0.002  -0.004   0.002  0.00  0.00    +0.120 C 
ENDBRANCH   1  20
TORSDOF 2
