REMARK  Name = CHEMBL482193
REMARK  10 active torsions:
REMARK  status: ('A' for Active; 'I' for Inactive)
REMARK    1  A    between atoms: C_1  and  C_2
REMARK    2  A    between atoms: C_2  and  CA_3
REMARK    3  A    between atoms: CA_3  and  C_5
REMARK    4  A    between atoms: CA_3  and  N_7
REMARK    5  A    between atoms: C_5  and  O_6
REMARK    6  A    between atoms: C_11  and  C_25
REMARK    7  A    between atoms: N_17  and  C_18
REMARK    8  A    between atoms: C_18  and  C_19
REMARK    9  A    between atoms: C_25  and  C_26
REMARK   10  A    between atoms: C_25  and  C_27
REMARK                            x       y       z     vdW  Elec       q    Type
REMARK                         _______ _______ _______ _____ _____    ______ ____
ROOT
ATOM      1  N   UNL     1      -2.105  -0.148  -1.230  0.00  0.00    -0.308 N 
ATOM      2  C   UNL     1      -3.482  -0.037  -1.266  0.00  0.00    +0.220 A 
ATOM      3  N   UNL     1      -4.077   0.306  -2.394  0.00  0.00    -0.195 NA
ATOM      4  C   UNL     1      -5.415   0.418  -2.442  0.00  0.00    +0.166 A 
ATOM      5  C   UNL     1      -6.309   0.750  -3.443  0.00  0.00    +0.019 A 
ATOM      6  C   UNL     1      -7.588   0.700  -2.898  0.00  0.00    +0.141 A 
ATOM      7  N   UNL     1      -7.500   0.359  -1.634  0.00  0.00    -0.170 NA
ATOM      8  N   UNL     1      -6.153   0.173  -1.310  0.00  0.00    -0.183 N 
ATOM      9  C   UNL     1      -5.504  -0.180  -0.157  0.00  0.00    +0.221 A 
ATOM     10  N   UNL     1      -4.189  -0.283  -0.158  0.00  0.00    -0.181 NA
ATOM     11  N   UNL     1      -6.216  -0.430   0.987  0.00  0.00    -0.309 N 
ATOM     12  H   UNL     1      -1.584   0.029  -2.029  0.00  0.00    +0.149 HD
ATOM     13  H   UNL     1      -7.184  -0.357   0.982  0.00  0.00    +0.149 HD
ENDROOT
BRANCH   5  14
ATOM     14  C   UNL     1      -5.961   1.101  -4.867  0.00  0.00    +0.018 C 
ATOM     15  C   UNL     1      -6.633   0.106  -5.816  0.00  0.00    +0.012 C 
ATOM     16  C   UNL     1      -6.454   2.515  -5.178  0.00  0.00    +0.012 C 
ENDBRANCH   5  14
BRANCH   1  17
ATOM     17  CA  UNL     1      -1.433  -0.534   0.013  0.00  0.00    +0.098 C 
BRANCH  17  19
ATOM     18  C   UNL     1      -0.019   1.526   0.010  0.00  0.00    +0.006 C 
ATOM     19  C   UNL     1       0.002  -0.004   0.002  0.00  0.00    +0.021 C 
ENDBRANCH  17  19
BRANCH  17  20
ATOM     20  C   UNL     1      -1.413  -2.059   0.130  0.00  0.00    +0.178 C 
BRANCH  20  21
ATOM     21  O   UNL     1      -0.612  -2.607  -0.918  0.00  0.00    -0.393 OA
ATOM     22  H   UNL     1      -0.554  -3.572  -0.906  0.00  0.00    +0.209 HD
ENDBRANCH  20  21
ENDBRANCH  17  20
ENDBRANCH   1  17
BRANCH  11  23
ATOM     23  C   UNL     1      -5.516  -0.807   2.217  0.00  0.00    +0.139 C 
BRANCH  23  24
ATOM     24  C   UNL     1      -6.520  -1.025   3.320  0.00  0.00    -0.030 A 
ATOM     25  C   UNL     1      -6.900   0.031   4.127  0.00  0.00    +0.005 A 
ATOM     26  C   UNL     1      -7.821  -0.168   5.139  0.00  0.00    +0.000 A 
ATOM     27  C   UNL     1      -8.363  -1.423   5.342  0.00  0.00    +0.000 A 
ATOM     28  C   UNL     1      -7.984  -2.479   4.534  0.00  0.00    +0.000 A 
ATOM     29  C   UNL     1      -7.066  -2.279   3.520  0.00  0.00    +0.005 A 
ENDBRANCH  23  24
ENDBRANCH  11  23
TORSDOF 7
