REMARK  Name = CHEMBL183941
REMARK  5 active torsions:
REMARK  status: ('A' for Active; 'I' for Inactive)
REMARK    1  A    between atoms: C_4  and  C_8
REMARK    2  A    between atoms: C_8  and  C_10
REMARK    3  A    between atoms: C_11  and  N_29
REMARK    4  A    between atoms: C_16  and  C_19
REMARK    5  A    between atoms: C_19  and  C_21
REMARK                            x       y       z     vdW  Elec       q    Type
REMARK                         _______ _______ _______ _____ _____    ______ ____
ROOT
ATOM      1  C   UNL     1       3.830  -2.083  -0.052  0.00  0.00    +0.135 A 
ATOM      2  C   UNL     1       2.796  -3.022  -0.110  0.00  0.00    +0.146 A 
ATOM      3  N   UNL     1       3.342  -4.233  -0.109  0.00  0.00    -0.213 NA
ATOM      4  C   UNL     1       4.668  -4.135  -0.055  0.00  0.00    +0.140 A 
ATOM      5  N   UNL     1       5.013  -2.812  -0.024  0.00  0.00    -0.294 N 
ATOM      6  C   UNL     1       6.306  -2.432   0.028  0.00  0.00    +0.105 A 
ATOM      7  C   UNL     1       7.311  -3.377   0.046  0.00  0.00    +0.039 A 
ATOM      8  C   UNL     1       6.980  -4.753   0.011  0.00  0.00    +0.017 A 
ATOM      9  C   UNL     1       5.673  -5.123  -0.031  0.00  0.00    +0.047 A 
ENDROOT
BRANCH   2  10
ATOM     10  N   UNL     1       1.441  -2.738  -0.159  0.00  0.00    -0.341 N 
ATOM     11  H   UNL     1       1.139  -1.819  -0.228  0.00  0.00    +0.144 HD
ATOM     12  H   UNL     1       0.793  -3.460  -0.124  0.00  0.00    +0.144 HD
ENDBRANCH   2  10
BRANCH   1  13
ATOM     13  C   UNL     1       3.700  -0.681  -0.033  0.00  0.00    +0.219 C 
ATOM     14  O   UNL     1       3.587  -0.065  -1.080  0.00  0.00    -0.285 OA
BRANCH  13  18
ATOM     15  C   UNL     1       3.700   1.404   3.671  0.00  0.00    +0.006 A 
ATOM     16  C   UNL     1       3.685   2.113   2.483  0.00  0.00    +0.039 A 
ATOM     17  C   UNL     1       3.685   1.442   1.274  0.00  0.00    +0.137 A 
ATOM     18  C   UNL     1       3.701   0.044   1.254  0.00  0.00    +0.094 A 
ATOM     19  C   UNL     1       3.716  -0.664   2.460  0.00  0.00    +0.137 A 
ATOM     20  C   UNL     1       3.715   0.021   3.660  0.00  0.00    +0.039 A 
ATOM     21  F   UNL     1       3.730  -2.015   2.451  0.00  0.00    -0.205 F 
ATOM     22  F   UNL     1       3.670   2.136   0.115  0.00  0.00    -0.205 F 
ENDBRANCH  13  18
ENDBRANCH   1  13
BRANCH   7  23
ATOM     23  C   UNL     1       8.724  -2.956   0.102  0.00  0.00    +0.199 C 
ATOM     24  O   UNL     1       9.009  -1.775   0.036  0.00  0.00    -0.286 OA
BRANCH  23  25
ATOM     25  C   UNL     1       9.791  -3.966   0.237  0.00  0.00    +0.076 A 
ATOM     26  C   UNL     1      10.445  -4.455  -0.900  0.00  0.00    +0.136 A 
ATOM     27  C   UNL     1      11.443  -5.401  -0.764  0.00  0.00    +0.039 A 
ATOM     28  C   UNL     1      11.795  -5.865   0.490  0.00  0.00    +0.004 A 
ATOM     29  C   UNL     1      11.152  -5.387   1.619  0.00  0.00    +0.021 A 
ATOM     30  C   UNL     1      10.157  -4.437   1.501  0.00  0.00    +0.055 A 
ATOM     31 CL   UNL     1       9.358  -3.834   2.920  0.00  0.00    -0.083 Cl
ATOM     32  F   UNL     1      10.102  -4.003  -2.126  0.00  0.00    -0.205 F 
ENDBRANCH  23  25
ENDBRANCH   7  23
TORSDOF 5
