REMARK  Name = CHEMBL1081437
REMARK  8 active torsions:
REMARK  status: ('A' for Active; 'I' for Inactive)
REMARK    1  A    between atoms: C_3  and  C_31
REMARK    2  A    between atoms: C_6  and  C_7
REMARK    3  A    between atoms: C_7  and  C_8
REMARK    4  A    between atoms: C_8  and  C_10
REMARK    5  A    between atoms: C_8  and  N_30
REMARK    6  A    between atoms: C_10  and  N_11
REMARK    7  A    between atoms: C_15  and  C_17
REMARK    8  A    between atoms: C_23  and  C_27
REMARK                            x       y       z     vdW  Elec       q    Type
REMARK                         _______ _______ _______ _____ _____    ______ ____
ROOT
ATOM      1  N   UNL     1      -3.494  -2.062  -2.791  0.00  0.00    -0.324 N 
ATOM      2  C   UNL     1      -4.622  -2.827  -3.038  0.00  0.00    +0.182 A 
ATOM      3  N   UNL     1      -5.395  -3.502  -2.196  0.00  0.00    -0.126 NA
ATOM      4  N   UNL     1      -6.399  -4.156  -2.591  0.00  0.00    -0.140 NA
ATOM      5  C   UNL     1      -6.742  -4.208  -3.871  0.00  0.00    +0.134 A 
ATOM      6  S   UNL     1      -5.458  -3.182  -4.581  0.00  0.00    -0.031 S 
ATOM      7  H   UNL     1      -3.037  -1.621  -3.525  0.00  0.00    +0.148 HD
ENDROOT
BRANCH   5   8
ATOM      8  C   UNL     1      -7.866  -4.911  -4.526  0.00  0.00    +0.010 A 
ATOM      9  C   UNL     1      -8.030  -4.827  -5.916  0.00  0.00    +0.013 A 
ATOM     10  C   UNL     1      -9.060  -5.468  -6.535  0.00  0.00    +0.028 A 
ATOM     11  C   UNL     1      -9.969  -6.218  -5.789  0.00  0.00    +0.066 A 
ATOM     12  C   UNL     1      -9.817  -6.311  -4.391  0.00  0.00    +0.024 A 
ATOM     13  C   UNL     1      -8.755  -5.656  -3.763  0.00  0.00    +0.022 A 
ATOM     14  C   UNL     1     -10.911  -7.153  -3.915  0.00  0.00    +0.074 A 
ATOM     15  N   UNL     1     -11.620  -7.506  -4.949  0.00  0.00    -0.177 NA
ATOM     16  N   UNL     1     -11.077  -6.956  -6.114  0.00  0.00    -0.277 N 
ATOM     17  H   UNL     1     -11.429  -7.076  -7.010  0.00  0.00    +0.189 HD
BRANCH  14  18
ATOM     18  C   UNL     1     -11.172  -7.544  -2.483  0.00  0.00    +0.040 C 
ATOM     19  C   UNL     1     -12.252  -8.597  -2.224  0.00  0.00    +0.010 C 
ATOM     20  C   UNL     1     -12.512  -7.131  -1.872  0.00  0.00    +0.010 C 
ENDBRANCH  14  18
ENDBRANCH   5   8
BRANCH   1  21
ATOM     21  C   UNL     1      -2.991  -1.917  -1.423  0.00  0.00    +0.087 C 
BRANCH  21  22
ATOM     22  C   UNL     1      -1.745  -1.028  -1.429  0.00  0.00    -0.053 C 
BRANCH  22  23
ATOM     23  N   UNL     1      -2.060   0.252  -2.076  0.00  0.00    +0.381 N 
ATOM     24  H   UNL     1      -2.799   0.713  -1.567  0.00  0.00    -0.090 HD
ATOM     25  H   UNL     1      -1.238   0.838  -2.079  0.00  0.00    -0.090 HD
ATOM     26  H   UNL     1      -2.358   0.085  -3.025  0.00  0.00    -0.090 HD
ENDBRANCH  22  23
BRANCH  22  27
ATOM     27  C   UNL     1      -1.293  -0.775   0.011  0.00  0.00    +0.020 C 
BRANCH  27  33
ATOM     28  C   UNL     1      -0.017   1.378   0.010  0.00  0.00    +0.004 A 
ATOM     29  C   UNL     1       1.171   2.086   0.002  0.00  0.00    +0.012 A 
ATOM     30  C   UNL     1       2.377   1.411  -0.013  0.00  0.00    +0.055 A 
ATOM     31  C   UNL     1       2.396   0.029  -0.020  0.00  0.00    +0.012 A 
ATOM     32  C   UNL     1       1.208  -0.679  -0.012  0.00  0.00    +0.004 A 
ATOM     33  C   UNL     1       0.002  -0.004   0.002  0.00  0.00    -0.049 A 
BRANCH  30  34
ATOM     34  C   UNL     1       3.672   2.182  -0.022  0.00  0.00    +0.417 C 
ATOM     35  F   UNL     1       4.086   2.414   1.294  0.00  0.00    -0.166 F 
ATOM     36  F   UNL     1       4.651   1.442  -0.695  0.00  0.00    -0.166 F 
ATOM     37  F   UNL     1       3.482   3.405  -0.674  0.00  0.00    -0.166 F 
ENDBRANCH  30  34
ENDBRANCH  27  33
ENDBRANCH  22  27
ENDBRANCH  21  22
ENDBRANCH   1  21
TORSDOF 8
