REMARK  Name = CHEMBL183950
REMARK  6 active torsions:
REMARK  status: ('A' for Active; 'I' for Inactive)
REMARK    1  A    between atoms: C_1  and  O_2
REMARK    2  A    between atoms: O_2  and  C_3
REMARK    3  A    between atoms: C_6  and  C_9
REMARK    4  A    between atoms: C_19  and  N_23
REMARK    5  A    between atoms: N_26  and  N_27
REMARK    6  A    between atoms: N_30  and  C_31
REMARK                            x       y       z     vdW  Elec       q    Type
REMARK                         _______ _______ _______ _____ _____    ______ ____
ROOT
ATOM      1  C   UNL     1       2.274  -2.269   4.410  0.00  0.00    +0.104 A 
ATOM      2  C   UNL     1       1.957  -3.534   4.961  0.00  0.00    +0.075 A 
ATOM      3  C   UNL     1       2.920  -3.819   5.920  0.00  0.00    +0.078 A 
ATOM      4  N   UNL     1       3.780  -2.777   5.947  0.00  0.00    -0.276 N 
ATOM      5  N   UNL     1       3.365  -1.832   5.003  0.00  0.00    -0.173 NA
ATOM      6  H   UNL     1       4.556  -2.699   6.523  0.00  0.00    +0.189 HD
ATOM      7  C   UNL     1       2.621  -5.140   6.522  0.00  0.00    +0.013 A 
ATOM      8  C   UNL     1       3.260  -5.877   7.508  0.00  0.00    +0.011 A 
ATOM      9  C   UNL     1       2.757  -7.114   7.892  0.00  0.00    +0.002 A 
ATOM     10  C   UNL     1       1.622  -7.622   7.302  0.00  0.00    +0.024 A 
ATOM     11  C   UNL     1       0.962  -6.896   6.308  0.00  0.00    +0.046 A 
ATOM     12  C   UNL     1       1.460  -5.654   5.915  0.00  0.00    +0.053 A 
ATOM     13  C   UNL     1       1.005  -4.662   4.915  0.00  0.00    +0.200 C 
ATOM     14  O   UNL     1       0.032  -4.758   4.193  0.00  0.00    -0.286 OA
ENDROOT
BRANCH   1  18
ATOM     15  C   UNL     1       0.098  -0.248   1.366  0.00  0.00    +0.120 A 
ATOM     16  C   UNL     1       0.705   0.478   2.382  0.00  0.00    +0.046 A 
ATOM     17  C   UNL     1       1.411  -0.174   3.371  0.00  0.00    +0.013 A 
ATOM     18  C   UNL     1       1.515  -1.565   3.349  0.00  0.00    +0.003 A 
ATOM     19  C   UNL     1       0.904  -2.291   2.327  0.00  0.00    +0.013 A 
ATOM     20  C   UNL     1       0.195  -1.633   1.345  0.00  0.00    +0.046 A 
BRANCH  15  22
ATOM     21  C   UNL     1      -0.657   1.823   0.476  0.00  0.00    +0.277 C 
ATOM     22  O   UNL     1      -0.597   0.397   0.394  0.00  0.00    -0.495 OA
ENDBRANCH  15  22
ENDBRANCH   1  18
BRANCH  11  23
ATOM     23  N   UNL     1      -0.184  -7.409   5.711  0.00  0.00    -0.268 N 
ATOM     24  C   UNL     1      -0.898  -8.367   6.336  0.00  0.00    +0.320 C 
ATOM     25  O   UNL     1      -0.597  -8.711   7.463  0.00  0.00    -0.251 OA
ATOM     26  N   UNL     1      -1.944  -8.943   5.712  0.00  0.00    -0.217 N 
ATOM     27  H   UNL     1      -0.471  -7.078   4.846  0.00  0.00    +0.156 HD
ATOM     28  H   UNL     1      -2.457  -9.633   6.162  0.00  0.00    +0.174 HD
BRANCH  26  29
ATOM     29  N   UNL     1      -2.290  -8.547   4.414  0.00  0.00    -0.217 N 
ATOM     30  C   UNL     1      -3.337  -9.123   3.789  0.00  0.00    +0.320 C 
ATOM     31  O   UNL     1      -3.637  -8.779   2.663  0.00  0.00    -0.251 OA
ATOM     32  N   UNL     1      -4.050 -10.081   4.414  0.00  0.00    -0.268 N 
ATOM     33  H   UNL     1      -1.777  -7.857   3.964  0.00  0.00    +0.174 HD
ATOM     34  H   UNL     1      -3.860 -10.301   5.340  0.00  0.00    +0.156 HD
BRANCH  32  35
ATOM     35  C   UNL     1      -5.064 -10.758   3.728  0.00  0.00    +0.035 A 
ATOM     36  C   UNL     1      -6.201 -11.179   4.404  0.00  0.00    +0.023 A 
ATOM     37  C   UNL     1      -7.200 -11.847   3.724  0.00  0.00    +0.002 A 
ATOM     38  C   UNL     1      -7.069 -12.097   2.370  0.00  0.00    +0.000 A 
ATOM     39  C   UNL     1      -5.938 -11.680   1.694  0.00  0.00    +0.002 A 
ATOM     40  C   UNL     1      -4.938 -11.005   2.367  0.00  0.00    +0.023 A 
ENDBRANCH  32  35
ENDBRANCH  26  29
ENDBRANCH  11  23
TORSDOF 5
