REMARK  Name = CHEMBL370724
REMARK  6 active torsions:
REMARK  status: ('A' for Active; 'I' for Inactive)
REMARK    1  A    between atoms: C_1  and  C_2
REMARK    2  A    between atoms: C_2  and  C_3
REMARK    3  A    between atoms: C_2  and  C_16
REMARK    4  A    between atoms: C_6  and  N_9
REMARK    5  A    between atoms: N_18  and  C_19
REMARK    6  A    between atoms: C_21  and  C_25
REMARK                            x       y       z     vdW  Elec       q    Type
REMARK                         _______ _______ _______ _____ _____    ______ ____
ROOT
ATOM      1  C   UNL     1      -0.019   1.526   0.010  0.00  0.00    +0.022 C 
ATOM      2  C   UNL     1       0.002  -0.004   0.002  0.00  0.00    +0.102 C 
ENDROOT
BRANCH   2   3
ATOM      3  C   UNL     1      -1.412  -0.526   0.013  0.00  0.00    -0.036 A 
ATOM      4  C   UNL     1      -2.275  -0.201  -1.018  0.00  0.00    +0.006 A 
ATOM      5  C   UNL     1      -3.571  -0.678  -1.012  0.00  0.00    +0.025 A 
ATOM      6  C   UNL     1      -4.008  -1.483   0.032  0.00  0.00    +0.051 A 
ATOM      7  C   UNL     1      -3.138  -1.807   1.066  0.00  0.00    +0.025 A 
ATOM      8  C   UNL     1      -1.842  -1.332   1.050  0.00  0.00    +0.006 A 
BRANCH   6   9
ATOM      9  N   UNL     1      -5.318  -1.966   0.043  0.00  0.00    -0.207 N 
ATOM     10  C   UNL     1      -6.489  -1.372  -0.627  0.00  0.00    +0.133 C 
ATOM     11  C   UNL     1      -7.512  -2.459  -1.009  0.00  0.00    +0.045 C 
ATOM     12  C   UNL     1      -7.633  -3.361   0.256  0.00  0.00    +0.190 C 
ATOM     13  S   UNL     1      -5.881  -3.345   0.813  0.00  0.00    +0.046 S 
ATOM     14  O   UNL     1      -5.157  -4.424   0.236  0.00  0.00    -0.155 OA
ATOM     15  O   UNL     1      -5.799  -3.063   2.203  0.00  0.00    -0.155 OA
ENDBRANCH   6   9
ENDBRANCH   2   3
BRANCH   2  16
ATOM     16  C   UNL     1       0.707  -0.490  -1.238  0.00  0.00    +0.225 C 
ATOM     17  O   UNL     1       0.120  -1.191  -2.034  0.00  0.00    -0.275 OA
ATOM     18  N   UNL     1       1.991  -0.146  -1.462  0.00  0.00    -0.270 N 
ATOM     19  H   UNL     1       2.461   0.415  -0.825  0.00  0.00    +0.156 HD
BRANCH  18  20
ATOM     20  C   UNL     1       2.644  -0.596  -2.609  0.00  0.00    +0.121 A 
ATOM     21  C   UNL     1       2.109  -1.383  -3.582  0.00  0.00    +0.068 A 
ATOM     22  C   UNL     1       3.096  -1.598  -4.548  0.00  0.00    +0.068 A 
ATOM     23  N   UNL     1       4.180  -0.968  -4.177  0.00  0.00    -0.177 NA
ATOM     24  H   UNL     1       4.548   0.220  -2.458  0.00  0.00    +0.190 HD
ATOM     25  N   UNL     1       3.921  -0.323  -2.960  0.00  0.00    -0.264 N 
BRANCH  22  26
ATOM     26  C   UNL     1       2.937  -2.417  -5.804  0.00  0.00    +0.040 C 
ATOM     27  C   UNL     1       1.747  -3.376  -5.877  0.00  0.00    +0.010 C 
ATOM     28  C   UNL     1       3.164  -3.926  -5.697  0.00  0.00    +0.010 C 
ENDBRANCH  22  26
ENDBRANCH  18  20
ENDBRANCH   2  16
TORSDOF 5
