REMARK  Name = CHEMBL427909
REMARK  4 active torsions:
REMARK  status: ('A' for Active; 'I' for Inactive)
REMARK    1  A    between atoms: C_4  and  C_7
REMARK    2  A    between atoms: C_16  and  C_18
REMARK    3  A    between atoms: C_22  and  C_23
REMARK    4  A    between atoms: C_26  and  O_29
REMARK                            x       y       z     vdW  Elec       q    Type
REMARK                         _______ _______ _______ _____ _____    ______ ____
ROOT
ATOM      1  C   UNL     1       3.698  -0.688  -0.038  0.00  0.00    +0.009 A 
ATOM      2  C   UNL     1       4.680  -0.348  -0.961  0.00  0.00    +0.025 A 
ATOM      3  C   UNL     1       5.883  -1.060  -0.934  0.00  0.00    +0.061 A 
ATOM      4  C   UNL     1       6.064  -2.087   0.015  0.00  0.00    +0.158 A 
ATOM      5  N   UNL     1       7.318  -2.597  -0.195  0.00  0.00    -0.258 N 
ATOM      6  H   UNL     1       7.721  -3.320   0.311  0.00  0.00    +0.191 HD
ATOM      7  N   UNL     1       7.925  -1.913  -1.252  0.00  0.00    -0.156 NA
ATOM      8  C   UNL     1       7.117  -0.999  -1.718  0.00  0.00    +0.156 A 
ATOM      9  N   UNL     1       7.383  -0.121  -2.775  0.00  0.00    -0.268 N 
ATOM     10  C   UNL     1       8.569  -0.175  -3.413  0.00  0.00    +0.221 C 
ATOM     11  O   UNL     1       9.405  -0.984  -3.072  0.00  0.00    -0.275 OA
ATOM     12  N   UNL     1       5.100  -2.378   0.878  0.00  0.00    -0.227 NA
ATOM     13  C   UNL     1       3.951  -1.722   0.884  0.00  0.00    +0.081 A 
ATOM     14  H   UNL     1       6.714   0.526  -3.048  0.00  0.00    +0.156 HD
ENDROOT
BRANCH   1  18
ATOM     15  C   UNL     1      -0.017   1.379   0.010  0.00  0.00    +0.000 A 
ATOM     16  C   UNL     1       1.169   2.092   0.002  0.00  0.00    +0.001 A 
ATOM     17  C   UNL     1       2.377   1.427  -0.013  0.00  0.00    +0.008 A 
ATOM     18  C   UNL     1       2.402   0.033  -0.021  0.00  0.00    -0.016 A 
ATOM     19  C   UNL     1       1.205  -0.680  -0.013  0.00  0.00    +0.008 A 
ATOM     20  C   UNL     1       0.002  -0.004   0.002  0.00  0.00    +0.001 A 
ENDBRANCH   1  18
BRANCH  13  21
ATOM     21  C   UNL     1       2.912  -2.085   1.874  0.00  0.00    +0.001 A 
ATOM     22  C   UNL     1       2.084  -1.099   2.412  0.00  0.00    +0.013 A 
ATOM     23  C   UNL     1       1.117  -1.440   3.333  0.00  0.00    +0.046 A 
ATOM     24  C   UNL     1       0.967  -2.764   3.727  0.00  0.00    +0.117 A 
ATOM     25  C   UNL     1       1.789  -3.748   3.194  0.00  0.00    +0.046 A 
ATOM     26  C   UNL     1       2.754  -3.414   2.268  0.00  0.00    +0.013 A 
BRANCH  24  27
ATOM     27  O   UNL     1       0.013  -3.096   4.635  0.00  0.00    -0.507 OA
ATOM     28  H   UNL     1      -0.842  -3.321   4.243  0.00  0.00    +0.292 HD
ENDBRANCH  24  27
ENDBRANCH  13  21
BRANCH  10  29
ATOM     29  C   UNL     1       8.855   0.771  -4.551  0.00  0.00    +0.075 C 
ATOM     30  C   UNL     1       8.960   0.174  -5.957  0.00  0.00    +0.013 C 
ATOM     31  C   UNL     1      10.219   0.660  -5.236  0.00  0.00    +0.013 C 
ENDBRANCH  10  29
TORSDOF 4
