REMARK  Name = CHEMBL1080569
REMARK  7 active torsions:
REMARK  status: ('A' for Active; 'I' for Inactive)
REMARK    1  A    between atoms: C_3  and  C_28
REMARK    2  A    between atoms: C_6  and  C_7
REMARK    3  A    between atoms: C_7  and  C_8
REMARK    4  A    between atoms: C_8  and  C_10
REMARK    5  A    between atoms: C_8  and  N_27
REMARK    6  A    between atoms: C_10  and  N_11
REMARK    7  A    between atoms: C_15  and  C_17
REMARK                            x       y       z     vdW  Elec       q    Type
REMARK                         _______ _______ _______ _____ _____    ______ ____
ROOT
ATOM      1  C   UNL     1      -2.991  -1.917  -1.423  0.00  0.00    +0.087 C 
ENDROOT
BRANCH   1   2
ATOM      2  N   UNL     1      -3.494  -2.062  -2.791  0.00  0.00    -0.324 N 
ATOM      3  C   UNL     1      -4.622  -2.827  -3.037  0.00  0.00    +0.182 A 
ATOM      4  N   UNL     1      -5.378  -3.492  -2.183  0.00  0.00    -0.126 NA
ATOM      5  N   UNL     1      -6.388  -4.152  -2.558  0.00  0.00    -0.140 NA
ATOM      6  C   UNL     1      -6.693  -4.177  -3.849  0.00  0.00    +0.134 A 
ATOM      7  S   UNL     1      -5.389  -3.145  -4.504  0.00  0.00    -0.031 S 
ATOM      8  H   UNL     1      -3.037  -1.621  -3.525  0.00  0.00    +0.148 HD
BRANCH   6   9
ATOM      9  C   UNL     1      -7.802  -4.860  -4.548  0.00  0.00    +0.010 A 
ATOM     10  C   UNL     1      -7.923  -4.745  -5.944  0.00  0.00    +0.011 A 
ATOM     11  C   UNL     1      -8.931  -5.362  -6.611  0.00  0.00    +0.010 A 
ATOM     12  C   UNL     1      -9.872  -6.130  -5.903  0.00  0.00    +0.000 A 
ATOM     13  C   UNL     1     -10.931  -6.786  -6.550  0.00  0.00    +0.119 A 
ATOM     14  N   UNL     1     -11.788  -7.493  -5.852  0.00  0.00    -0.263 NA
ATOM     15  C   UNL     1     -11.707  -7.625  -4.535  0.00  0.00    +0.111 A 
ATOM     16  C   UNL     1     -10.718  -7.029  -3.813  0.00  0.00    +0.028 A 
ATOM     17  C   UNL     1      -9.760  -6.253  -4.492  0.00  0.00    -0.014 A 
ATOM     18  C   UNL     1      -8.711  -5.614  -3.822  0.00  0.00    +0.019 A 
ENDBRANCH   6   9
ENDBRANCH   1   2
BRANCH   1  19
ATOM     19  C   UNL     1      -1.745  -1.028  -1.429  0.00  0.00    -0.053 C 
BRANCH  19  20
ATOM     20  N   UNL     1      -2.060   0.252  -2.076  0.00  0.00    +0.381 N 
ATOM     21  H   UNL     1      -2.799   0.713  -1.567  0.00  0.00    -0.090 HD
ATOM     22  H   UNL     1      -1.238   0.838  -2.079  0.00  0.00    -0.090 HD
ATOM     23  H   UNL     1      -2.358   0.085  -3.025  0.00  0.00    -0.090 HD
ENDBRANCH  19  20
BRANCH  19  24
ATOM     24  C   UNL     1      -1.293  -0.775   0.011  0.00  0.00    +0.020 C 
BRANCH  24  30
ATOM     25  C   UNL     1      -0.017   1.378   0.010  0.00  0.00    +0.004 A 
ATOM     26  C   UNL     1       1.171   2.086   0.002  0.00  0.00    +0.012 A 
ATOM     27  C   UNL     1       2.377   1.411  -0.013  0.00  0.00    +0.055 A 
ATOM     28  C   UNL     1       2.396   0.029  -0.020  0.00  0.00    +0.012 A 
ATOM     29  C   UNL     1       1.208  -0.679  -0.012  0.00  0.00    +0.004 A 
ATOM     30  C   UNL     1       0.002  -0.004   0.002  0.00  0.00    -0.049 A 
BRANCH  27  31
ATOM     31  C   UNL     1       3.672   2.182  -0.022  0.00  0.00    +0.417 C 
ATOM     32  F   UNL     1       4.086   2.414   1.294  0.00  0.00    -0.166 F 
ATOM     33  F   UNL     1       4.651   1.442  -0.695  0.00  0.00    -0.166 F 
ATOM     34  F   UNL     1       3.482   3.405  -0.674  0.00  0.00    -0.166 F 
ENDBRANCH  27  31
ENDBRANCH  24  30
ENDBRANCH  19  24
ENDBRANCH   1  19
TORSDOF 7
