REMARK  Name = CHEMBL104526
REMARK  3 active torsions:
REMARK  status: ('A' for Active; 'I' for Inactive)
REMARK    1  A    between atoms: C_1  and  N_2
REMARK    2  A    between atoms: C_21  and  C_23
REMARK    3  A    between atoms: C_23  and  O_24
REMARK                            x       y       z     vdW  Elec       q    Type
REMARK                         _______ _______ _______ _____ _____    ______ ____
ROOT
ATOM      1  C   UNL     1      -0.018   1.462   0.010  0.00  0.00    +0.149 C 
ATOM      2  N   UNL     1       0.002  -0.004   0.002  0.00  0.00    -0.349 N 
ATOM      3  C   UNL     1       0.025  -0.743  -1.151  0.00  0.00    +0.086 A 
ATOM      4  C   UNL     1       0.180  -2.041  -0.851  0.00  0.00    +0.027 A 
ATOM      5  C   UNL     1       0.246  -2.131   0.607  0.00  0.00    +0.000 A 
ATOM      6  C   UNL     1       0.024  -0.831   1.093  0.00  0.00    +0.057 A 
ATOM      7  C   UNL     1      -0.158  -0.674   2.481  0.00  0.00    +0.021 A 
ATOM      8  C   UNL     1       0.332  -1.693   3.343  0.00  0.00    +0.009 A 
ATOM      9  C   UNL     1       0.596  -2.974   2.823  0.00  0.00    +0.011 A 
ATOM     10  C   UNL     1       0.512  -3.194   1.489  0.00  0.00    +0.011 A 
ATOM     11  C   UNL     1       0.554  -1.417   4.710  0.00  0.00    +0.059 A 
ATOM     12  C   UNL     1       0.043  -0.215   5.253  0.00  0.00    +0.021 A 
ATOM     13  C   UNL     1       0.405  -0.205   6.668  0.00  0.00    +0.009 A 
ATOM     14  C   UNL     1       0.215   0.672   7.737  0.00  0.00    +0.010 A 
ATOM     15  C   UNL     1       0.725   0.281   8.967  0.00  0.00    +0.001 A 
ATOM     16  C   UNL     1       1.398  -0.921   9.160  0.00  0.00    +0.006 A 
ATOM     17  C   UNL     1       1.601  -1.790   8.119  0.00  0.00    -0.023 A 
ATOM     18  C   UNL     1       1.096  -1.404   6.880  0.00  0.00    +0.053 A 
ATOM     19  N   UNL     1       1.192  -2.114   5.703  0.00  0.00    -0.339 N 
ATOM     20  C   UNL     1       1.902  -3.403   5.682  0.00  0.00    +0.128 C 
ATOM     21  C   UNL     1       2.942  -3.405   6.810  0.00  0.00    +0.039 C 
ATOM     22  C   UNL     1       2.310  -3.111   8.175  0.00  0.00    +0.044 C 
ATOM     23  C   UNL     1      -0.672   0.670   4.433  0.00  0.00    +0.060 A 
ATOM     24  C   UNL     1      -0.836   0.411   3.063  0.00  0.00    +0.060 A 
ATOM     25  C   UNL     1      -1.832   1.394   2.605  0.00  0.00    +0.252 C 
ATOM     26  O   UNL     1      -2.442   1.372   1.554  0.00  0.00    -0.270 OA
ATOM     27  N   UNL     1      -2.001   2.320   3.566  0.00  0.00    -0.248 N 
ATOM     28  C   UNL     1      -1.342   1.964   4.682  0.00  0.00    +0.252 C 
ATOM     29  O   UNL     1      -1.294   2.595   5.719  0.00  0.00    -0.270 OA
ATOM     30  H   UNL     1      -2.525   3.131   3.469  0.00  0.00    +0.158 HD
ENDROOT
BRANCH  21  31
ATOM     31  C   UNL     1       3.621  -4.775   6.860  0.00  0.00    +0.161 C 
BRANCH  31  32
ATOM     32  O   UNL     1       4.671  -4.751   7.829  0.00  0.00    -0.395 OA
ATOM     33  H   UNL     1       5.147  -5.589   7.915  0.00  0.00    +0.209 HD
ENDBRANCH  31  32
ENDBRANCH  21  31
TORSDOF 2
