REMARK  Name = CHEMBL518383
REMARK  4 active torsions:
REMARK  status: ('A' for Active; 'I' for Inactive)
REMARK    1  A    between atoms: C_4  and  C_8
REMARK    2  A    between atoms: N_10  and  C_11
REMARK    3  A    between atoms: C_16  and  C_17
REMARK    4  A    between atoms: N_19  and  C_20
REMARK                            x       y       z     vdW  Elec       q    Type
REMARK                         _______ _______ _______ _____ _____    ______ ____
ROOT
ATOM      1  C   UNL     1       5.505  -1.679  -1.230  0.00  0.00    +0.084 A 
ATOM      2  C   UNL     1       6.238  -2.081  -0.158  0.00  0.00    +0.129 A 
ATOM      3  N   UNL     1       7.351  -2.689  -0.642  0.00  0.00    -0.282 N 
ATOM      4  H   UNL     1       8.055  -3.075  -0.097  0.00  0.00    +0.188 HD
ATOM      5  N   UNL     1       7.338  -2.681  -1.927  0.00  0.00    -0.167 NA
ATOM      6  C   UNL     1       6.245  -2.090  -2.369  0.00  0.00    +0.168 A 
ENDROOT
BRANCH   1   9
ATOM      7  C   UNL     1       3.697  -0.685  -0.038  0.00  0.00    +0.254 C 
ATOM      8  O   UNL     1       4.244  -0.979   1.008  0.00  0.00    -0.270 OA
ATOM      9  N   UNL     1       4.274  -1.006  -1.213  0.00  0.00    -0.278 N 
ATOM     10  H   UNL     1       3.838  -0.772  -2.047  0.00  0.00    +0.155 HD
BRANCH   7  14
ATOM     11  C   UNL     1      -0.030   1.353   0.011  0.00  0.00    +0.006 A 
ATOM     12  C   UNL     1       1.148   2.076  -0.002  0.00  0.00    +0.039 A 
ATOM     13  C   UNL     1       2.365   1.421  -0.018  0.00  0.00    +0.138 A 
ATOM     14  C   UNL     1       2.403   0.022  -0.021  0.00  0.00    +0.107 A 
ATOM     15  C   UNL     1       1.205  -0.701  -0.007  0.00  0.00    +0.138 A 
ATOM     16  C   UNL     1      -0.003  -0.030   0.008  0.00  0.00    +0.039 A 
ATOM     17  F   UNL     1       1.230  -2.052  -0.011  0.00  0.00    -0.205 F 
ATOM     18  F   UNL     1       3.516   2.130  -0.031  0.00  0.00    -0.205 F 
ENDBRANCH   7  14
ENDBRANCH   1   9
BRANCH   6  19
ATOM     19  C   UNL     1       5.865  -1.890  -3.780  0.00  0.00    +0.270 C 
ATOM     20  O   UNL     1       4.825  -1.323  -4.055  0.00  0.00    -0.268 OA
ATOM     21  N   UNL     1       6.671  -2.335  -4.764  0.00  0.00    -0.280 N 
ATOM     22  H   UNL     1       7.532  -2.727  -4.546  0.00  0.00    +0.155 HD
BRANCH  21  23
ATOM     23  C   UNL     1       6.267  -2.233  -6.100  0.00  0.00    +0.034 A 
ATOM     24  C   UNL     1       6.610  -3.225  -7.008  0.00  0.00    +0.026 A 
ATOM     25  C   UNL     1       6.209  -3.123  -8.326  0.00  0.00    +0.040 A 
ATOM     26  C   UNL     1       5.466  -2.031  -8.742  0.00  0.00    +0.124 A 
ATOM     27  C   UNL     1       5.124  -1.039  -7.837  0.00  0.00    +0.040 A 
ATOM     28  C   UNL     1       5.517  -1.141  -6.517  0.00  0.00    +0.026 A 
ATOM     29  F   UNL     1       5.076  -1.932 -10.031  0.00  0.00    -0.205 F 
ENDBRANCH  21  23
ENDBRANCH   6  19
TORSDOF 4
