REMARK  Name = CHEMBL179511
REMARK  3 active torsions:
REMARK  status: ('A' for Active; 'I' for Inactive)
REMARK    1  A    between atoms: C_3  and  N_12
REMARK    2  A    between atoms: C_6  and  C_7
REMARK    3  A    between atoms: C_15  and  C_17
REMARK                            x       y       z     vdW  Elec       q    Type
REMARK                         _______ _______ _______ _____ _____    ______ ____
ROOT
ATOM      1  N   UNL     1       3.582   2.134  -0.022  0.00  0.00    -0.231 N 
ATOM      2  C   UNL     1       4.699   1.820   0.660  0.00  0.00    +0.082 A 
ATOM      3  C   UNL     1       5.670   2.751   0.354  0.00  0.00    +0.011 A 
ATOM      4  C   UNL     1       5.088   3.681  -0.514  0.00  0.00    +0.151 A 
ATOM      5  N   UNL     1       3.840   3.309  -0.749  0.00  0.00    -0.161 NA
ATOM      6  C   UNL     1       7.079   2.679   0.875  0.00  0.00    +0.046 C 
ATOM      7  C   UNL     1       7.141   2.049   2.267  0.00  0.00    +0.063 C 
ATOM      8  C   UNL     1       6.241   0.845   2.361  0.00  0.00    +0.072 A 
ATOM      9  C   UNL     1       5.037   0.734   1.602  0.00  0.00    +0.041 A 
ATOM     10  C   UNL     1       4.438  -0.423   1.931  0.00  0.00    +0.115 A 
ATOM     11  N   UNL     1       5.230  -1.043   2.838  0.00  0.00    -0.284 N 
ATOM     12  H   UNL     1       5.055  -1.903   3.251  0.00  0.00    +0.188 HD
ATOM     13  N   UNL     1       6.348  -0.228   3.078  0.00  0.00    -0.178 NA
ENDROOT
BRANCH   1  16
ATOM     14  C   UNL     1       0.688   0.226   1.197  0.00  0.00    +0.013 A 
ATOM     15  C   UNL     1       1.871   0.932   1.185  0.00  0.00    +0.028 A 
ATOM     16  C   UNL     1       2.381   1.417  -0.013  0.00  0.00    +0.066 A 
ATOM     17  C   UNL     1       1.700   1.191  -1.204  0.00  0.00    +0.028 A 
ATOM     18  C   UNL     1       0.516   0.486  -1.199  0.00  0.00    +0.013 A 
ATOM     19  C   UNL     1       0.001  -0.003   0.004  0.00  0.00    +0.017 A 
BRANCH  19  20
ATOM     20  C   UNL     1      -1.268  -0.761   0.013  0.00  0.00    +0.138 A 
ATOM     21  N   UNL     1      -1.856  -1.265   1.075  0.00  0.00    -0.236 NA
ATOM     22  C   UNL     1      -2.984  -1.882   0.704  0.00  0.00    +0.130 A 
ATOM     23  C   UNL     1      -3.113  -1.765  -0.633  0.00  0.00    +0.104 A 
ATOM     24  N   UNL     1      -2.033  -1.051  -1.079  0.00  0.00    -0.344 N 
ATOM     25  H   UNL     1      -1.846  -0.801  -1.998  0.00  0.00    +0.167 HD
ENDBRANCH  19  20
ENDBRANCH   1  16
BRANCH   4  26
ATOM     26  C   UNL     1       5.756   4.872  -1.079  0.00  0.00    +0.262 C 
ATOM     27  O   UNL     1       6.914   5.112  -0.795  0.00  0.00    -0.269 OA
ATOM     28  N   UNL     1       5.082   5.693  -1.908  0.00  0.00    -0.324 N 
ATOM     29  H   UNL     1       4.158   5.502  -2.134  0.00  0.00    +0.145 HD
ATOM     30  H   UNL     1       5.520   6.475  -2.278  0.00  0.00    +0.145 HD
ENDBRANCH   4  26
TORSDOF 3
