REMARK  Name = CHEMBL388956
REMARK  4 active torsions:
REMARK  status: ('A' for Active; 'I' for Inactive)
REMARK    1  A    between atoms: C_1  and  O_2
REMARK    2  A    between atoms: O_2  and  C_3
REMARK    3  A    between atoms: C_4  and  O_21
REMARK    4  A    between atoms: C_11  and  O_20
REMARK                            x       y       z     vdW  Elec       q    Type
REMARK                         _______ _______ _______ _____ _____    ______ ____
ROOT
ATOM      1  C   UNL     1      -1.198  -0.636   0.010  0.00  0.00    +0.170 A 
ATOM      2  C   UNL     1      -1.819  -0.969   1.216  0.00  0.00    +0.160 A 
ATOM      3  C   UNL     1      -3.047  -1.617   1.270  0.00  0.00    +0.063 A 
ATOM      4  C   UNL     1      -3.701  -1.955   0.090  0.00  0.00    +0.050 A 
ATOM      5  C   UNL     1      -3.068  -1.613  -1.111  0.00  0.00    +0.020 A 
ATOM      6  C   UNL     1      -1.841  -0.962  -1.190  0.00  0.00    +0.038 A 
ATOM      7  C   UNL     1      -1.335  -0.684  -2.535  0.00  0.00    -0.003 A 
ATOM      8  C   UNL     1      -0.115  -0.048  -2.749  0.00  0.00    +0.054 A 
ATOM      9  C   UNL     1       0.314   0.191  -4.040  0.00  0.00    +0.117 A 
ATOM     10  C   UNL     1      -0.470  -0.203  -5.126  0.00  0.00    +0.046 A 
ATOM     11  C   UNL     1      -1.665  -0.827  -4.939  0.00  0.00    +0.012 A 
ATOM     12  C   UNL     1      -2.131  -1.087  -3.639  0.00  0.00    -0.015 A 
ATOM     13  C   UNL     1      -3.373  -1.741  -3.455  0.00  0.00    +0.032 A 
ATOM     14  C   UNL     1      -3.845  -2.014  -2.205  0.00  0.00    +0.043 A 
ATOM     15  N   UNL     1      -4.986  -2.619  -1.683  0.00  0.00    -0.281 N 
ATOM     16  C   UNL     1      -4.945  -2.608  -0.326  0.00  0.00    +0.249 C 
ATOM     17  O   UNL     1      -5.796  -3.062   0.417  0.00  0.00    -0.270 OA
ATOM     18  H   UNL     1      -5.706  -2.995  -2.213  0.00  0.00    +0.155 HD
ENDROOT
BRANCH   1  20
ATOM     19  C   UNL     1      -0.017   1.425   0.010  0.00  0.00    +0.277 C 
ATOM     20  O   UNL     1       0.002  -0.004   0.002  0.00  0.00    -0.491 OA
ENDBRANCH   1  20
BRANCH   9  21
ATOM     21  O   UNL     1       1.503   0.811  -4.254  0.00  0.00    -0.507 OA
ATOM     22  H   UNL     1       2.255   0.207  -4.326  0.00  0.00    +0.292 HD
ENDBRANCH   9  21
BRANCH   2  23
ATOM     23  O   UNL     1      -1.197  -0.647   2.382  0.00  0.00    -0.503 OA
ATOM     24  H   UNL     1      -1.429   0.228   2.723  0.00  0.00    +0.292 HD
ENDBRANCH   2  23
TORSDOF 3
