REMARK  Name = CHEMBL445945
REMARK  4 active torsions:
REMARK  status: ('A' for Active; 'I' for Inactive)
REMARK    1  A    between atoms: C_10  and  N_11
REMARK    2  A    between atoms: N_11  and  C_12
REMARK    3  A    between atoms: C_15  and  S_18
REMARK    4  A    between atoms: S_18  and  N_21
REMARK                            x       y       z     vdW  Elec       q    Type
REMARK                         _______ _______ _______ _____ _____    ______ ____
ROOT
ATOM      1  C   UNL     1       0.762   2.080  -2.884  0.00  0.00    +0.020 A 
ATOM      2  C   UNL     1       1.702   2.567  -2.017  0.00  0.00    +0.012 A 
ATOM      3  C   UNL     1       2.811   1.761  -1.719  0.00  0.00    +0.010 A 
ATOM      4  C   UNL     1       2.915   0.483  -2.323  0.00  0.00    +0.072 A 
ATOM      5  C   UNL     1       4.026  -0.327  -2.026  0.00  0.00    +0.030 A 
ATOM      6  C   UNL     1       4.989   0.107  -1.171  0.00  0.00    +0.026 A 
ATOM      7  C   UNL     1       4.908   1.367  -0.562  0.00  0.00    +0.042 A 
ATOM      8  C   UNL     1       3.822   2.193  -0.835  0.00  0.00    +0.019 A 
ATOM      9  C   UNL     1       4.026   3.430  -0.053  0.00  0.00    +0.060 C 
ATOM     10  C   UNL     1       3.206   4.536  -0.004  0.00  0.00    +0.085 C 
ATOM     11  C   UNL     1       5.292   3.225   0.662  0.00  0.00    +0.250 C 
ATOM     12  O   UNL     1       5.823   4.015   1.422  0.00  0.00    -0.270 OA
ATOM     13  N   UNL     1       5.759   2.010   0.330  0.00  0.00    -0.281 N 
ATOM     14  N   UNL     1       1.963   0.066  -3.162  0.00  0.00    -0.255 NA
ATOM     15  C   UNL     1       0.924   0.816  -3.443  0.00  0.00    +0.111 A 
ATOM     16  H   UNL     1       6.585   1.630   0.668  0.00  0.00    +0.155 HD
ENDROOT
BRANCH  10  17
ATOM     17  N   UNL     1       1.857   4.386  -0.093  0.00  0.00    -0.320 N 
ATOM     18  H   UNL     1       1.467   3.498  -0.094  0.00  0.00    +0.152 HD
BRANCH  17  19
ATOM     19  C   UNL     1       1.034   5.512  -0.183  0.00  0.00    +0.031 A 
ATOM     20  C   UNL     1       1.592   6.784  -0.188  0.00  0.00    +0.025 A 
ATOM     21  C   UNL     1       0.776   7.894  -0.277  0.00  0.00    +0.030 A 
ATOM     22  C   UNL     1      -0.596   7.741  -0.362  0.00  0.00    +0.105 A 
ATOM     23  C   UNL     1      -1.155   6.476  -0.358  0.00  0.00    +0.030 A 
ATOM     24  C   UNL     1      -0.344   5.361  -0.275  0.00  0.00    +0.025 A 
BRANCH  22  25
ATOM     25  S   UNL     1      -1.634   9.160  -0.476  0.00  0.00    +0.056 S 
ATOM     26  O   UNL     1      -2.912   8.768   0.005  0.00  0.00    -0.153 OA
ATOM     27  O   UNL     1      -0.906  10.242   0.090  0.00  0.00    -0.153 OA
BRANCH  25  28
ATOM     28  N   UNL     1      -1.819   9.504  -2.085  0.00  0.00    -0.204 NA
ATOM     29  H   UNL     1      -1.384   8.950  -2.752  0.00  0.00    +0.144 HD
ATOM     30  H   UNL     1      -2.362  10.259  -2.360  0.00  0.00    +0.144 HD
ENDBRANCH  25  28
ENDBRANCH  22  25
ENDBRANCH  17  19
ENDBRANCH  10  17
TORSDOF 4
