REMARK  Name = CHEMBL188587
REMARK  7 active torsions:
REMARK  status: ('A' for Active; 'I' for Inactive)
REMARK    1  A    between atoms: C_1  and  C_2
REMARK    2  A    between atoms: C_2  and  C_3
REMARK    3  A    between atoms: C_7  and  C_11
REMARK    4  A    between atoms: C_11  and  C_12
REMARK    5  A    between atoms: C_15  and  N_18
REMARK    6  A    between atoms: C_19  and  C_21
REMARK    7  A    between atoms: N_22  and  C_24
REMARK                            x       y       z     vdW  Elec       q    Type
REMARK                         _______ _______ _______ _____ _____    ______ ____
ROOT
ATOM      1  C   UNL     1       1.449  -0.365  -1.278  0.00  0.00    +0.078 A 
ATOM      2  C   UNL     1       0.692  -0.715  -2.417  0.00  0.00    +0.108 A 
ATOM      3  C   UNL     1       1.608  -1.029  -3.441  0.00  0.00    +0.171 A 
ATOM      4  N   UNL     1       1.140  -1.395  -4.632  0.00  0.00    -0.212 NA
ATOM      5  C   UNL     1      -0.155  -1.463  -4.851  0.00  0.00    +0.140 A 
ATOM      6  N   UNL     1      -1.051  -1.178  -3.921  0.00  0.00    -0.193 NA
ATOM      7  C   UNL     1      -0.682  -0.803  -2.703  0.00  0.00    +0.284 A 
ATOM      8  O   UNL     1      -1.607  -0.513  -1.758  0.00  0.00    -0.265 OA
ATOM      9  N   UNL     1       2.856  -0.866  -2.909  0.00  0.00    -0.211 N 
ATOM     10  N   UNL     1       2.713  -0.452  -1.579  0.00  0.00    -0.169 NA
ENDROOT
BRANCH   9  11
ATOM     11  C   UNL     1       4.069  -1.072  -3.581  0.00  0.00    +0.104 A 
ATOM     12  C   UNL     1       4.314  -0.429  -4.788  0.00  0.00    +0.069 A 
ATOM     13  C   UNL     1       5.511  -0.634  -5.447  0.00  0.00    +0.042 A 
ATOM     14  C   UNL     1       6.465  -1.478  -4.907  0.00  0.00    +0.044 A 
ATOM     15  C   UNL     1       6.223  -2.120  -3.705  0.00  0.00    +0.042 A 
ATOM     16  C   UNL     1       5.030  -1.915  -3.038  0.00  0.00    +0.069 A 
ATOM     17 CL   UNL     1       4.731  -2.715  -1.526  0.00  0.00    -0.081 Cl
ATOM     18 CL   UNL     1       7.967  -1.734  -5.739  0.00  0.00    -0.083 Cl
ATOM     19 CL   UNL     1       3.118   0.631  -5.467  0.00  0.00    -0.081 Cl
ENDBRANCH   9  11
BRANCH   1  21
ATOM     20  C   UNL     1       0.692   1.563   0.086  0.00  0.00    +0.010 C 
ATOM     21  C   UNL     1       0.888   0.046   0.059  0.00  0.00    +0.055 C 
ENDBRANCH   1  21
BRANCH   5  22
ATOM     22  C   UNL     1      -0.638  -1.883  -6.215  0.00  0.00    +0.111 C 
BRANCH  22  23
ATOM     23  C   UNL     1      -0.797  -3.381  -6.253  0.00  0.00    -0.040 A 
ATOM     24  C   UNL     1       0.266  -4.179  -6.631  0.00  0.00    +0.006 A 
ATOM     25  C   UNL     1       0.123  -5.552  -6.667  0.00  0.00    +0.023 A 
ATOM     26  C   UNL     1      -1.091  -6.131  -6.321  0.00  0.00    +0.033 A 
ATOM     27  C   UNL     1      -2.157  -5.327  -5.941  0.00  0.00    +0.023 A 
ATOM     28  C   UNL     1      -2.006  -3.955  -5.903  0.00  0.00    +0.006 A 
BRANCH  26  29
ATOM     29  N   UNL     1      -1.240  -7.522  -6.356  0.00  0.00    -0.286 N 
ATOM     30  C   UNL     1      -0.193  -8.319  -6.065  0.00  0.00    +0.214 C 
ATOM     31  O   UNL     1       0.851  -7.834  -5.683  0.00  0.00    -0.276 OA
ATOM     32  C   UNL     1      -0.319  -9.814  -6.215  0.00  0.00    +0.109 C 
ATOM     33  H   UNL     1      -2.096  -7.913  -6.591  0.00  0.00    +0.155 HD
ENDBRANCH  26  29
ENDBRANCH  22  23
ENDBRANCH   5  22
TORSDOF 5
