REMARK  Name = CHEMBL1172241
REMARK  13 active torsions:
REMARK  status: ('A' for Active; 'I' for Inactive)
REMARK    1  A    between atoms: C_1  and  C_2
REMARK    2  A    between atoms: C_4  and  C_8
REMARK    3  A    between atoms: C_8  and  N_9
REMARK    4  A    between atoms: C_10  and  C_12
REMARK    5  A    between atoms: N_15  and  C_17
REMARK    6  A    between atoms: C_17  and  C_18
REMARK    7  A    between atoms: C_18  and  C_19
REMARK    8  A    between atoms: C_19  and  N_20
REMARK    9  A    between atoms: N_27  and  C_28
REMARK   10  A    between atoms: C_32  and  C_34
REMARK   11  A    between atoms: C_34  and  C_35
REMARK   12  A    between atoms: N_37  and  C_38
REMARK   13  A    between atoms: N_37  and  C_39
REMARK                            x       y       z     vdW  Elec       q    Type
REMARK                         _______ _______ _______ _____ _____    ______ ____
ROOT
ATOM      1  C   UNL     1       3.131  -3.564  -4.680  0.00  0.00    +0.151 A 
ATOM      2  C   UNL     1       3.510  -4.457  -5.683  0.00  0.00    +0.012 A 
ATOM      3  C   UNL     1       4.883  -4.369  -5.759  0.00  0.00    +0.091 A 
ATOM      4  N   UNL     1       5.274  -3.476  -4.827  0.00  0.00    -0.261 N 
ATOM      5  N   UNL     1       4.239  -3.008  -4.213  0.00  0.00    -0.166 NA
ATOM      6  C   UNL     1       5.626  -5.165  -6.750  0.00  0.00    +0.097 A 
ATOM      7  C   UNL     1       4.882  -5.771  -7.774  0.00  0.00    -0.001 A 
ATOM      8  C   UNL     1       5.560  -6.557  -8.687  0.00  0.00    +0.120 A 
ATOM      9  N   UNL     1       6.875  -6.680  -8.582  0.00  0.00    -0.222 NA
ATOM     10  C   UNL     1       7.551  -6.061  -7.625  0.00  0.00    +0.220 A 
ATOM     11  N   UNL     1       6.942  -5.309  -6.718  0.00  0.00    -0.212 NA
ATOM     12  N   UNL     1       8.928  -6.204  -7.570  0.00  0.00    -0.284 N 
ATOM     13  C   UNL     1       3.405  -5.539  -7.909  0.00  0.00    +0.043 C 
ATOM     14  C   UNL     1       2.711  -5.379  -6.556  0.00  0.00    +0.044 C 
ATOM     15  H   UNL     1       9.426  -5.823  -6.830  0.00  0.00    +0.155 HD
ENDROOT
BRANCH  12  16
ATOM     16  C   UNL     1       9.600  -6.896  -8.582  0.00  0.00    +0.034 A 
ATOM     17  C   UNL     1       9.205  -6.750  -9.906  0.00  0.00    +0.023 A 
ATOM     18  C   UNL     1       9.871  -7.435 -10.903  0.00  0.00    +0.002 A 
ATOM     19  C   UNL     1      10.930  -8.265 -10.585  0.00  0.00    +0.004 A 
ATOM     20  C   UNL     1      11.326  -8.413  -9.269  0.00  0.00    -0.037 A 
ATOM     21  C   UNL     1      10.668  -7.726  -8.267  0.00  0.00    +0.027 A 
BRANCH  20  22
ATOM     22  C   UNL     1      12.481  -9.319  -8.927  0.00  0.00    +0.131 C 
BRANCH  22  23
ATOM     23  C   UNL     1      13.765  -8.531  -8.962  0.00  0.00    +0.219 C 
ATOM     24  O   UNL     1      13.745  -7.350  -9.236  0.00  0.00    -0.275 OA
ATOM     25  N   UNL     1      14.936  -9.139  -8.687  0.00  0.00    -0.307 N 
ATOM     26  C   UNL     1      16.184  -8.373  -8.720  0.00  0.00    +0.131 C 
ATOM     27  C   UNL     1      14.961 -10.565  -8.355  0.00  0.00    +0.131 C 
ENDBRANCH  22  23
ENDBRANCH  20  22
ENDBRANCH  12  16
BRANCH   1  29
ATOM     28  N   UNL     1       1.532  -2.391  -3.245  0.00  0.00    -0.306 N 
ATOM     29  C   UNL     1       1.752  -3.288  -4.227  0.00  0.00    +0.265 C 
ATOM     30  O   UNL     1       0.815  -3.869  -4.740  0.00  0.00    -0.268 OA
ATOM     31  H   UNL     1       2.279  -1.927  -2.836  0.00  0.00    +0.149 HD
BRANCH  28  32
ATOM     32  C   UNL     1       0.165  -2.117  -2.796  0.00  0.00    +0.140 C 
BRANCH  32  36
ATOM     33  C   UNL     1       0.058   2.658  -1.270  0.00  0.00    +0.065 C 
ATOM     34  C   UNL     1       0.144   1.185  -0.961  0.00  0.00    +0.039 A 
ATOM     35  C   UNL     1       0.114   0.268  -1.994  0.00  0.00    +0.028 A 
ATOM     36  C   UNL     1       0.194  -1.085  -1.699  0.00  0.00    -0.027 A 
ATOM     37  C   UNL     1       0.300  -1.465  -0.369  0.00  0.00    +0.025 A 
ATOM     38  C   UNL     1       0.323  -0.490   0.610  0.00  0.00    +0.111 A 
ATOM     39  N   UNL     1       0.251   0.788   0.292  0.00  0.00    -0.260 NA
ENDBRANCH  32  36
ENDBRANCH  28  32
ENDBRANCH   1  29
BRANCH   4  40
ATOM     40  C   UNL     1       6.661  -3.091  -4.556  0.00  0.00    +0.142 C 
BRANCH  40  41
ATOM     41  C   UNL     1       7.039  -1.896  -5.435  0.00  0.00    +0.004 C 
BRANCH  41  42
ATOM     42  C   UNL     1       8.488  -1.494  -5.152  0.00  0.00    -0.085 C 
BRANCH  42  43
ATOM     43  N   UNL     1       8.852  -0.347  -5.995  0.00  0.00    +0.378 N 
ATOM     44  H   UNL     1       9.807  -0.082  -5.809  0.00  0.00    -0.090 HD
ATOM     45  H   UNL     1       8.757  -0.601  -6.967  0.00  0.00    -0.090 HD
ATOM     46  H   UNL     1       8.241   0.429  -5.789  0.00  0.00    -0.090 HD
ENDBRANCH  42  43
ENDBRANCH  41  42
ENDBRANCH  40  41
ENDBRANCH   4  40
TORSDOF 10
