REMARK  Name = CHEMBL434257
REMARK  9 active torsions:
REMARK  status: ('A' for Active; 'I' for Inactive)
REMARK    1  A    between atoms: C_1  and  C_2
REMARK    2  A    between atoms: C_2  and  C_3
REMARK    3  A    between atoms: C_2  and  C_4
REMARK    4  A    between atoms: C_4  and  C_5
REMARK    5  A    between atoms: C_5  and  C_7
REMARK    6  A    between atoms: C_13  and  C_18
REMARK    7  A    between atoms: N_19  and  C_20
REMARK    8  A    between atoms: C_23  and  S_26
REMARK    9  A    between atoms: S_26  and  N_29
REMARK                            x       y       z     vdW  Elec       q    Type
REMARK                         _______ _______ _______ _____ _____    ______ ____
ROOT
ATOM      1  C   UNL     1       3.070  -0.436  -2.309  0.00  0.00    +0.018 A 
ATOM      2  C   UNL     1       2.587  -1.160  -3.410  0.00  0.00    +0.013 A 
ATOM      3  C   UNL     1       3.418  -1.497  -4.437  0.00  0.00    +0.027 A 
ATOM      4  C   UNL     1       4.761  -1.124  -4.408  0.00  0.00    +0.050 A 
ATOM      5  C   UNL     1       5.256  -0.398  -3.310  0.00  0.00    +0.013 A 
ATOM      6  C   UNL     1       4.412  -0.049  -2.265  0.00  0.00    +0.022 A 
ATOM      7  C   UNL     1       6.688  -0.166  -3.585  0.00  0.00    +0.066 A 
ATOM      8  C   UNL     1       6.947  -0.761  -4.809  0.00  0.00    +0.258 A 
ATOM      9  N   UNL     1       5.805  -1.323  -5.287  0.00  0.00    -0.322 N 
ATOM     10  H   UNL     1       5.734  -1.799  -6.130  0.00  0.00    +0.169 HD
ATOM     11  O   UNL     1       8.147  -0.779  -5.432  0.00  0.00    -0.267 OA
ENDROOT
BRANCH   1  12
ATOM     12  C   UNL     1       2.165  -0.079  -1.208  0.00  0.00    +0.163 C 
ATOM     13  O   UNL     1       2.583   0.551  -0.260  0.00  0.00    -0.292 OA
BRANCH  12  14
ATOM     14  C   UNL     1       0.718  -0.497  -1.257  0.00  0.00    +0.082 C 
BRANCH  14  16
ATOM     15  C   UNL     1      -0.019   1.526   0.010  0.00  0.00    +0.007 C 
ATOM     16  C   UNL     1       0.002  -0.004   0.002  0.00  0.00    -0.010 C 
ATOM     17  C   UNL     1      -1.433  -0.534   0.013  0.00  0.00    +0.007 C 
ENDBRANCH  14  16
ENDBRANCH  12  14
ENDBRANCH   1  12
BRANCH   7  18
ATOM     18  C   UNL     1       7.611   0.525  -2.763  0.00  0.00    +0.125 C 
ATOM     19  N   UNL     1       8.859   0.651  -3.141  0.00  0.00    -0.255 NA
BRANCH  19  20
ATOM     20  C   UNL     1       9.750   1.319  -2.347  0.00  0.00    +0.064 A 
ATOM     21  C   UNL     1       9.393   2.535  -1.760  0.00  0.00    +0.029 A 
ATOM     22  C   UNL     1      10.297   3.203  -0.960  0.00  0.00    +0.030 A 
ATOM     23  C   UNL     1      11.555   2.670  -0.738  0.00  0.00    +0.105 A 
ATOM     24  C   UNL     1      11.915   1.466  -1.316  0.00  0.00    +0.030 A 
ATOM     25  C   UNL     1      11.020   0.785  -2.114  0.00  0.00    +0.029 A 
BRANCH  23  26
ATOM     26  S   UNL     1      12.704   3.530   0.285  0.00  0.00    +0.056 S 
ATOM     27  O   UNL     1      13.999   3.096  -0.105  0.00  0.00    -0.153 OA
ATOM     28  O   UNL     1      12.320   4.898   0.264  0.00  0.00    -0.153 OA
BRANCH  26  29
ATOM     29  N   UNL     1      12.472   2.997   1.836  0.00  0.00    -0.204 NA
ATOM     30  H   UNL     1      11.795   2.328   2.023  0.00  0.00    +0.144 HD
ATOM     31  H   UNL     1      13.014   3.354   2.557  0.00  0.00    +0.144 HD
ENDBRANCH  26  29
ENDBRANCH  23  26
ENDBRANCH  19  20
ENDBRANCH   7  18
TORSDOF 7
