REMARK  Name = CHEMBL76925
REMARK  7 active torsions:
REMARK  status: ('A' for Active; 'I' for Inactive)
REMARK    1  A    between atoms: C_1  and  C_2
REMARK    2  A    between atoms: C_2  and  C_3
REMARK    3  A    between atoms: C_3  and  C_4
REMARK    4  A    between atoms: C_4  and  O_5
REMARK    5  A    between atoms: O_5  and  C_6
REMARK    6  A    between atoms: C_7  and  S_16
REMARK    7  A    between atoms: S_16  and  C_18
REMARK                            x       y       z     vdW  Elec       q    Type
REMARK                         _______ _______ _______ _____ _____    ______ ____
ROOT
ATOM      1  C   UNL     1      -3.020  -3.918  -0.099  0.00  0.00    +0.150 A 
ATOM      2  C   UNL     1      -3.058  -4.713   1.036  0.00  0.00    +0.104 A 
ATOM      3  C   UNL     1      -3.121  -6.091   0.901  0.00  0.00    +0.134 A 
ATOM      4  N   UNL     1      -3.146  -6.667  -0.281  0.00  0.00    -0.235 NA
ATOM      5  H   UNL     1      -3.164  -7.199  -3.088  0.00  0.00    +0.191 HD
ATOM      6  C   UNL     1      -3.111  -5.959  -1.405  0.00  0.00    +0.159 A 
ATOM      7  N   UNL     1      -3.124  -6.298  -2.732  0.00  0.00    -0.260 N 
ATOM      8  N   UNL     1      -3.068  -5.119  -3.485  0.00  0.00    -0.180 NA
ATOM      9  C   UNL     1      -3.023  -4.090  -2.689  0.00  0.00    +0.148 A 
ATOM     10  C   UNL     1      -3.053  -4.554  -1.353  0.00  0.00    +0.081 A 
ENDROOT
BRANCH   2  11
ATOM     11  S   UNL     1      -3.027  -3.978   2.637  0.00  0.00    +0.091 S 
ATOM     12  O   UNL     1      -2.747  -5.065   3.509  0.00  0.00    -0.247 OA
BRANCH  11  13
ATOM     13  C   UNL     1      -4.716  -3.594   2.963  0.00  0.00    +0.044 A 
ATOM     14  C   UNL     1      -5.201  -2.328   2.693  0.00  0.00    +0.017 A 
ATOM     15  C   UNL     1      -6.526  -2.027   2.949  0.00  0.00    +0.001 A 
ATOM     16  C   UNL     1      -7.365  -2.992   3.474  0.00  0.00    +0.000 A 
ATOM     17  C   UNL     1      -6.880  -4.258   3.743  0.00  0.00    +0.001 A 
ATOM     18  C   UNL     1      -5.556  -4.561   3.483  0.00  0.00    +0.017 A 
ENDBRANCH  11  13
ENDBRANCH   2  11
BRANCH   1  19
ATOM     19  O   UNL     1      -2.958  -2.566  -0.003  0.00  0.00    -0.490 OA
BRANCH  19  20
ATOM     20  C   UNL     1      -1.661  -1.970  -0.066  0.00  0.00    +0.229 C 
BRANCH  20  21
ATOM     21  C   UNL     1      -1.800  -0.446  -0.066  0.00  0.00    +0.041 C 
BRANCH  21  23
ATOM     22  C   UNL     1      -0.550   1.716  -0.132  0.00  0.00    +0.004 C 
ATOM     23  C   UNL     1      -0.411   0.192  -0.132  0.00  0.00    -0.000 C 
ENDBRANCH  21  23
ENDBRANCH  20  21
ENDBRANCH  19  20
ENDBRANCH   1  19
TORSDOF 6
