REMARK  Name = CHEMBL336906
REMARK  5 active torsions:
REMARK  status: ('A' for Active; 'I' for Inactive)
REMARK    1  A    between atoms: C_3  and  S_25
REMARK    2  A    between atoms: C_6  and  N_7
REMARK    3  A    between atoms: N_8  and  C_9
REMARK    4  A    between atoms: C_23  and  O_24
REMARK    5  A    between atoms: S_25  and  N_28
REMARK                            x       y       z     vdW  Elec       q    Type
REMARK                         _______ _______ _______ _____ _____    ______ ____
ROOT
ATOM      1  C   UNL     1      -2.308  -2.691   0.011  0.00  0.00    +0.155 A 
ATOM      2  C   UNL     1      -2.460  -4.155   0.010  0.00  0.00    +0.043 A 
ATOM      3  C   UNL     1      -3.834  -4.407   0.020  0.00  0.00    +0.052 A 
ATOM      4  C   UNL     1      -4.296  -5.725   0.022  0.00  0.00    +0.028 A 
ATOM      5  C   UNL     1      -3.421  -6.771   0.014  0.00  0.00    +0.030 A 
ATOM      6  C   UNL     1      -2.044  -6.547   0.005  0.00  0.00    +0.068 A 
ATOM      7  C   UNL     1      -1.549  -5.232   0.002  0.00  0.00    +0.050 A 
ATOM      8  C   UNL     1      -0.139  -5.322  -0.008  0.00  0.00    +0.159 A 
ATOM      9  N   UNL     1       0.200  -6.580  -0.012  0.00  0.00    -0.161 NA
ATOM     10  N   UNL     1      -0.951  -7.377  -0.004  0.00  0.00    -0.276 N 
ATOM     11  H   UNL     1      -0.972  -8.347  -0.005  0.00  0.00    +0.189 HD
ATOM     12 CL   UNL     1       0.961  -3.978  -0.016  0.00  0.00    -0.059 Cl
ATOM     13  N   UNL     1      -4.490  -3.187   0.026  0.00  0.00    -0.324 N 
ATOM     14  H   UNL     1      -5.454  -3.077   0.034  0.00  0.00    +0.169 HD
ATOM     15  C   UNL     1      -3.593  -2.167   0.027  0.00  0.00    +0.219 A 
ENDROOT
BRANCH   1  17
ATOM     16  N   UNL     1      -1.171  -0.707   0.010  0.00  0.00    -0.149 NA
ATOM     17  N   UNL     1      -1.150  -1.997   0.003  0.00  0.00    -0.143 NA
BRANCH  16  23
ATOM     18  C   UNL     1      -0.017   1.393   0.010  0.00  0.00    +0.031 A 
ATOM     19  C   UNL     1       1.170   2.095   0.002  0.00  0.00    +0.030 A 
ATOM     20  C   UNL     1       2.378   1.420  -0.013  0.00  0.00    +0.105 A 
ATOM     21  C   UNL     1       2.404   0.036  -0.021  0.00  0.00    +0.030 A 
ATOM     22  C   UNL     1       1.225  -0.679  -0.014  0.00  0.00    +0.031 A 
ATOM     23  C   UNL     1       0.002  -0.004   0.002  0.00  0.00    +0.086 A 
BRANCH  20  24
ATOM     24  S   UNL     1       3.889   2.326  -0.023  0.00  0.00    +0.056 S 
ATOM     25  O   UNL     1       4.872   1.469  -0.587  0.00  0.00    -0.153 OA
ATOM     26  O   UNL     1       3.592   3.606  -0.564  0.00  0.00    -0.153 OA
BRANCH  24  27
ATOM     27  N   UNL     1       4.324   2.569   1.557  0.00  0.00    -0.204 NA
ATOM     28  H   UNL     1       3.765   2.226   2.272  0.00  0.00    +0.144 HD
ATOM     29  H   UNL     1       5.137   3.054   1.766  0.00  0.00    +0.144 HD
ENDBRANCH  24  27
ENDBRANCH  20  24
ENDBRANCH  16  23
ENDBRANCH   1  17
BRANCH  15  30
ATOM     30  O   UNL     1      -3.902  -0.850   0.037  0.00  0.00    -0.492 OA
ATOM     31  H   UNL     1      -4.001  -0.462  -0.843  0.00  0.00    +0.294 HD
ENDBRANCH  15  30
TORSDOF 5
