REMARK  Name = CHEMBL364805
REMARK  6 active torsions:
REMARK  status: ('A' for Active; 'I' for Inactive)
REMARK    1  A    between atoms: C_1  and  O_2
REMARK    2  A    between atoms: O_2  and  C_3
REMARK    3  A    between atoms: C_6  and  C_9
REMARK    4  A    between atoms: C_19  and  N_23
REMARK    5  A    between atoms: N_26  and  N_27
REMARK    6  A    between atoms: C_28  and  C_30
REMARK                            x       y       z     vdW  Elec       q    Type
REMARK                         _______ _______ _______ _____ _____    ______ ____
ROOT
ATOM      1  C   UNL     1       2.568  -2.521   4.313  0.00  0.00    +0.104 A 
ATOM      2  C   UNL     1       2.184  -3.748   4.905  0.00  0.00    +0.075 A 
ATOM      3  C   UNL     1       3.093  -4.019   5.919  0.00  0.00    +0.078 A 
ATOM      4  N   UNL     1       3.983  -3.004   5.941  0.00  0.00    -0.276 N 
ATOM      5  N   UNL     1       3.645  -2.091   4.937  0.00  0.00    -0.173 NA
ATOM      6  H   UNL     1       4.735  -2.924   6.550  0.00  0.00    +0.189 HD
ATOM      7  C   UNL     1       2.723  -5.301   6.565  0.00  0.00    +0.013 A 
ATOM      8  C   UNL     1       3.291  -6.012   7.612  0.00  0.00    +0.011 A 
ATOM      9  C   UNL     1       2.730  -7.213   8.027  0.00  0.00    +0.002 A 
ATOM     10  C   UNL     1       1.607  -7.713   7.406  0.00  0.00    +0.024 A 
ATOM     11  C   UNL     1       1.019  -7.013   6.350  0.00  0.00    +0.046 A 
ATOM     12  C   UNL     1       1.575  -5.806   5.927  0.00  0.00    +0.053 A 
ATOM     13  C   UNL     1       1.199  -4.848   4.864  0.00  0.00    +0.200 C 
ATOM     14  O   UNL     1       0.258  -4.947   4.101  0.00  0.00    -0.286 OA
ENDROOT
BRANCH   1  18
ATOM     15  C   UNL     1       0.602  -0.576   1.083  0.00  0.00    +0.120 A 
ATOM     16  C   UNL     1       1.185   0.177   2.094  0.00  0.00    +0.046 A 
ATOM     17  C   UNL     1       1.823  -0.451   3.143  0.00  0.00    +0.013 A 
ATOM     18  C   UNL     1       1.882  -1.843   3.188  0.00  0.00    +0.003 A 
ATOM     19  C   UNL     1       1.296  -2.596   2.171  0.00  0.00    +0.013 A 
ATOM     20  C   UNL     1       0.654  -1.963   1.128  0.00  0.00    +0.046 A 
BRANCH  15  22
ATOM     21  C   UNL     1      -0.043   1.474   0.068  0.00  0.00    +0.277 C 
ATOM     22  O   UNL     1      -0.026   0.046   0.051  0.00  0.00    -0.495 OA
ENDBRANCH  15  22
ENDBRANCH   1  18
BRANCH  11  23
ATOM     23  N   UNL     1      -0.115  -7.519   5.723  0.00  0.00    -0.268 N 
ATOM     24  C   UNL     1      -0.934  -8.359   6.386  0.00  0.00    +0.320 C 
ATOM     25  O   UNL     1      -0.740  -8.594   7.563  0.00  0.00    -0.251 OA
ATOM     26  N   UNL     1      -1.967  -8.939   5.744  0.00  0.00    -0.218 N 
ATOM     27  H   UNL     1      -0.317  -7.266   4.808  0.00  0.00    +0.156 HD
ATOM     28  H   UNL     1      -2.557  -9.544   6.221  0.00  0.00    +0.174 HD
BRANCH  26  29
ATOM     29  N   UNL     1      -2.191  -8.668   4.388  0.00  0.00    -0.229 N 
ATOM     30  C   UNL     1      -3.224  -9.248   3.746  0.00  0.00    +0.261 C 
ATOM     31  O   UNL     1      -3.963 -10.007   4.344  0.00  0.00    -0.269 OA
ATOM     32  H   UNL     1      -1.601  -8.063   3.911  0.00  0.00    +0.173 HD
BRANCH  30  33
ATOM     33  C   UNL     1      -3.459  -8.963   2.318  0.00  0.00    +0.046 A 
ATOM     34  C   UNL     1      -2.560  -8.188   1.601  0.00  0.00    +0.014 A 
ATOM     35  C   UNL     1      -2.776  -7.917   0.256  0.00  0.00    +0.001 A 
ATOM     36  C   UNL     1      -3.872  -8.400  -0.395  0.00  0.00    +0.008 A 
ATOM     37  C   UNL     1      -4.809  -9.189   0.293  0.00  0.00    -0.017 A 
ATOM     38  C   UNL     1      -4.604  -9.483   1.663  0.00  0.00    -0.006 A 
ATOM     39  C   UNL     1      -5.536 -10.275   2.346  0.00  0.00    +0.009 A 
ATOM     40  C   UNL     1      -6.625 -10.758   1.684  0.00  0.00    +0.001 A 
ATOM     41  C   UNL     1      -6.826 -10.476   0.335  0.00  0.00    +0.001 A 
ATOM     42  C   UNL     1      -5.947  -9.698  -0.356  0.00  0.00    +0.008 A 
ENDBRANCH  30  33
ENDBRANCH  26  29
ENDBRANCH  11  23
TORSDOF 5
