REMARK  Name = CHEMBL356603
REMARK  5 active torsions:
REMARK  status: ('A' for Active; 'I' for Inactive)
REMARK    1  A    between atoms: C_1  and  C_2
REMARK    2  A    between atoms: C_2  and  C_3
REMARK    3  A    between atoms: C_3  and  C_4
REMARK    4  A    between atoms: C_4  and  N_5
REMARK    5  A    between atoms: N_16  and  C_17
REMARK                            x       y       z     vdW  Elec       q    Type
REMARK                         _______ _______ _______ _____ _____    ______ ____
ROOT
ATOM      1  N   UNL     1       1.538  -2.041  -2.627  0.00  0.00    -0.293 N 
ATOM      2  C   UNL     1       0.839  -2.230  -3.760  0.00  0.00    +0.253 A 
ATOM      3  O   UNL     1      -0.318  -1.849  -3.813  0.00  0.00    -0.268 OA
ATOM      4  C   UNL     1       1.406  -2.857  -4.887  0.00  0.00    +0.071 A 
ATOM      5  C   UNL     1       2.693  -3.291  -4.853  0.00  0.00    +0.018 A 
ATOM      6  C   UNL     1       3.459  -3.089  -3.626  0.00  0.00    +0.036 A 
ATOM      7  C   UNL     1       2.843  -2.450  -2.527  0.00  0.00    +0.148 A 
ATOM      8  N   UNL     1       3.550  -2.266  -1.419  0.00  0.00    -0.196 NA
ATOM      9  C   UNL     1       4.809  -2.672  -1.353  0.00  0.00    +0.221 A 
ATOM     10  N   UNL     1       5.420  -3.271  -2.368  0.00  0.00    -0.222 NA
ATOM     11  C   UNL     1       4.789  -3.506  -3.505  0.00  0.00    +0.126 A 
ATOM     12  N   UNL     1       5.513  -2.463  -0.182  0.00  0.00    -0.284 N 
ATOM     13  H   UNL     1       5.063  -2.102   0.597  0.00  0.00    +0.155 HD
ENDROOT
BRANCH  12  14
ATOM     14  C   UNL     1       6.875  -2.774  -0.121  0.00  0.00    +0.034 A 
ATOM     15  C   UNL     1       7.677  -2.610  -1.243  0.00  0.00    +0.023 A 
ATOM     16  C   UNL     1       9.022  -2.917  -1.179  0.00  0.00    +0.002 A 
ATOM     17  C   UNL     1       9.570  -3.388  -0.000  0.00  0.00    +0.000 A 
ATOM     18  C   UNL     1       8.774  -3.553   1.118  0.00  0.00    +0.002 A 
ATOM     19  C   UNL     1       7.430  -3.242   1.063  0.00  0.00    +0.023 A 
ENDBRANCH  12  14
BRANCH   1  20
ATOM     20  C   UNL     1       0.899  -1.383  -1.485  0.00  0.00    +0.127 C 
BRANCH  20  21
ATOM     21  C   UNL     1       1.116   0.129  -1.580  0.00  0.00    +0.021 C 
BRANCH  21  23
ATOM     22  C   UNL     1       0.665   2.328  -0.483  0.00  0.00    +0.004 C 
ATOM     23  C   UNL     1       0.448   0.816  -0.387  0.00  0.00    -0.002 C 
ENDBRANCH  21  23
ENDBRANCH  20  21
ENDBRANCH   1  20
TORSDOF 4
