REMARK  Name = CHEMBL202695
REMARK  8 active torsions:
REMARK  status: ('A' for Active; 'I' for Inactive)
REMARK    1  A    between atoms: C_1  and  N_2
REMARK    2  A    between atoms: N_2  and  C_3
REMARK    3  A    between atoms: N_2  and  S_4
REMARK    4  A    between atoms: S_4  and  C_7
REMARK    5  A    between atoms: C_10  and  N_13
REMARK    6  A    between atoms: N_13  and  C_14
REMARK    7  A    between atoms: N_23  and  C_24
REMARK    8  A    between atoms: C_27  and  N_30
REMARK                            x       y       z     vdW  Elec       q    Type
REMARK                         _______ _______ _______ _____ _____    ______ ____
ROOT
ATOM      1  C   UNL     1       6.384  -2.746  -2.701  0.00  0.00    +0.131 A 
ATOM      2  C   UNL     1       5.804  -3.775  -2.013  0.00  0.00    +0.087 A 
ATOM      3  C   UNL     1       6.569  -4.911  -1.712  0.00  0.00    +0.126 A 
ATOM      4  N   UNL     1       7.836  -4.981  -2.091  0.00  0.00    -0.196 NA
ATOM      5  C   UNL     1       8.409  -3.978  -2.764  0.00  0.00    +0.256 A 
ATOM      6  N   UNL     1       7.693  -2.858  -3.080  0.00  0.00    -0.182 N 
ATOM      7  N   UNL     1       8.565  -2.014  -3.781  0.00  0.00    -0.151 NA
ATOM      8  C   UNL     1       9.717  -2.633  -3.860  0.00  0.00    +0.247 A 
ATOM      9  N   UNL     1       9.636  -3.808  -3.246  0.00  0.00    -0.197 NA
ATOM     10  N   UNL     1       5.999  -5.962  -1.016  0.00  0.00    -0.326 N 
ATOM     11  H   UNL     1       5.071  -5.912  -0.737  0.00  0.00    +0.148 HD
ENDROOT
BRANCH  10  12
ATOM     12  C   UNL     1       6.796  -7.150  -0.700  0.00  0.00    +0.072 C 
ATOM     13  C   UNL     1       6.768  -8.114  -1.888  0.00  0.00    +0.020 C 
ATOM     14  C   UNL     1       7.600  -9.354  -1.558  0.00  0.00    -0.014 C 
ATOM     15  C   UNL     1       7.017 -10.047  -0.325  0.00  0.00    -0.075 C 
ATOM     16  C   UNL     1       7.045  -9.083   0.863  0.00  0.00    -0.014 C 
ATOM     17  C   UNL     1       6.212  -7.843   0.533  0.00  0.00    +0.020 C 
BRANCH  15  18
ATOM     18  N   UNL     1       7.816 -11.238  -0.008  0.00  0.00    +0.380 N 
ATOM     19  H   UNL     1       8.768 -10.963   0.180  0.00  0.00    -0.090 HD
ATOM     20  H   UNL     1       7.431 -11.695   0.805  0.00  0.00    -0.090 HD
ATOM     21  H   UNL     1       7.797 -11.874  -0.791  0.00  0.00    -0.090 HD
ENDBRANCH  15  18
ENDBRANCH  10  12
BRANCH   1  22
ATOM     22  N   UNL     1       5.658  -1.615  -3.013  0.00  0.00    -0.299 N 
ATOM     23  H   UNL     1       4.845  -1.690  -3.536  0.00  0.00    +0.154 HD
BRANCH  22  27
ATOM     24  C   UNL     1       6.959   2.119  -1.706  0.00  0.00    +0.106 A 
ATOM     25  C   UNL     1       7.602   0.974  -1.273  0.00  0.00    +0.030 A 
ATOM     26  C   UNL     1       7.174  -0.266  -1.704  0.00  0.00    +0.025 A 
ATOM     27  C   UNL     1       6.094  -0.362  -2.574  0.00  0.00    +0.032 A 
ATOM     28  C   UNL     1       5.450   0.790  -3.006  0.00  0.00    +0.025 A 
ATOM     29  C   UNL     1       5.881   2.027  -2.567  0.00  0.00    +0.030 A 
BRANCH  24  30
ATOM     30  S   UNL     1       7.510   3.699  -1.153  0.00  0.00    +0.060 S 
ATOM     31  O   UNL     1       7.082   4.642  -2.127  0.00  0.00    -0.153 OA
ATOM     32  O   UNL     1       8.874   3.549  -0.787  0.00  0.00    -0.153 OA
BRANCH  30  34
ATOM     33  C   UNL     1       7.228   3.644   1.536  0.00  0.00    +0.131 C 
ATOM     34  N   UNL     1       6.681   4.047   0.238  0.00  0.00    -0.183 NA
ATOM     35  C   UNL     1       5.402   4.758   0.171  0.00  0.00    +0.131 C 
ENDBRANCH  30  34
ENDBRANCH  24  30
ENDBRANCH  22  27
ENDBRANCH   1  22
TORSDOF 6
