REMARK  Name = CHEMBL323821
REMARK  7 active torsions:
REMARK  status: ('A' for Active; 'I' for Inactive)
REMARK    1  A    between atoms: C_3  and  O_20
REMARK    2  A    between atoms: C_6  and  C_7
REMARK    3  A    between atoms: C_7  and  C_8
REMARK    4  A    between atoms: C_13  and  C_17
REMARK    5  A    between atoms: O_20  and  C_21
REMARK    6  A    between atoms: C_21  and  C_22
REMARK    7  A    between atoms: C_22  and  N_23
REMARK                            x       y       z     vdW  Elec       q    Type
REMARK                         _______ _______ _______ _____ _____    ______ ____
ROOT
ATOM      1  C   UNL     1      -0.017   1.378   0.010  0.00  0.00    +0.007 A 
ATOM      2  C   UNL     1       1.169   2.087   0.002  0.00  0.00    +0.046 A 
ATOM      3  C   UNL     1       2.380   1.409  -0.013  0.00  0.00    +0.120 A 
ATOM      4  C   UNL     1       2.396   0.022  -0.021  0.00  0.00    +0.046 A 
ATOM      5  C   UNL     1       1.207  -0.681  -0.013  0.00  0.00    +0.007 A 
ATOM      6  C   UNL     1       0.002  -0.004   0.002  0.00  0.00    -0.038 A 
ENDROOT
BRANCH   6   7
ATOM      7  C   UNL     1      -1.293  -0.774   0.011  0.00  0.00    +0.131 C 
BRANCH   7   8
ATOM      8  C   UNL     1      -1.739  -1.023  -1.407  0.00  0.00    +0.223 C 
ATOM      9  O   UNL     1      -1.071  -0.615  -2.333  0.00  0.00    -0.275 OA
ATOM     10  N   UNL     1      -2.881  -1.699  -1.646  0.00  0.00    -0.269 N 
ATOM     11  C   UNL     1      -3.295  -1.930  -2.964  0.00  0.00    +0.147 A 
ATOM     12  C   UNL     1      -2.619  -1.522  -4.125  0.00  0.00    +0.068 A 
ATOM     13  C   UNL     1      -3.340  -1.936  -5.192  0.00  0.00    +0.041 A 
ATOM     14  N   UNL     1      -4.431  -2.582  -4.730  0.00  0.00    -0.280 N 
ATOM     15  H   UNL     1      -5.127  -2.986  -5.272  0.00  0.00    +0.189 HD
ATOM     16  N   UNL     1      -4.380  -2.571  -3.330  0.00  0.00    -0.158 NA
ATOM     17  H   UNL     1      -3.415  -2.025  -0.905  0.00  0.00    +0.156 HD
BRANCH  13  18
ATOM     18  C   UNL     1      -2.987  -1.715  -6.641  0.00  0.00    +0.037 C 
ATOM     19  C   UNL     1      -4.141  -1.512  -7.625  0.00  0.00    +0.010 C 
ATOM     20  C   UNL     1      -3.350  -2.821  -7.633  0.00  0.00    +0.010 C 
ENDBRANCH  13  18
ENDBRANCH   7   8
ENDBRANCH   6   7
BRANCH   3  21
ATOM     21  O   UNL     1       3.548   2.104  -0.021  0.00  0.00    -0.494 OA
BRANCH  21  22
ATOM     22  C   UNL     1       4.756   1.341  -0.036  0.00  0.00    +0.210 C 
BRANCH  22  23
ATOM     23  C   UNL     1       5.958   2.288  -0.043  0.00  0.00    -0.037 C 
BRANCH  23  24
ATOM     24  N   UNL     1       5.992   3.044   1.215  0.00  0.00    +0.382 N 
ATOM     25  C   UNL     1       4.816   3.937   1.291  0.00  0.00    -0.079 C 
ATOM     26  C   UNL     1       5.336   5.217   1.994  0.00  0.00    -0.020 C 
ATOM     27  C   UNL     1       6.765   5.340   1.402  0.00  0.00    -0.020 C 
ATOM     28  C   UNL     1       7.213   3.870   1.265  0.00  0.00    -0.079 C 
ATOM     29  H   UNL     1       5.982   2.406   1.996  0.00  0.00    -0.082 HD
ENDBRANCH  23  24
ENDBRANCH  22  23
ENDBRANCH  21  22
ENDBRANCH   3  21
TORSDOF 7
