REMARK  Name = CHEMBL148977
REMARK  4 active torsions:
REMARK  status: ('A' for Active; 'I' for Inactive)
REMARK    1  A    between atoms: C_1  and  C_2
REMARK    2  A    between atoms: C_2  and  C_3
REMARK    3  A    between atoms: C_2  and  C_4
REMARK    4  A    between atoms: C_14  and  N_18
REMARK                            x       y       z     vdW  Elec       q    Type
REMARK                         _______ _______ _______ _____ _____    ______ ____
ROOT
ATOM      1  C   UNL     1      -1.428  -0.544   0.029  0.00  0.00    +0.077 A 
ATOM      2  C   UNL     1      -2.008  -1.361  -0.957  0.00  0.00    +0.071 A 
ATOM      3  C   UNL     1      -3.314  -1.623  -0.562  0.00  0.00    +0.078 A 
ATOM      4  N   UNL     1      -3.508  -0.987   0.613  0.00  0.00    -0.276 N 
ATOM      5  H   UNL     1      -4.329  -0.988   1.130  0.00  0.00    +0.189 HD
ATOM      6  N   UNL     1      -2.322  -0.330   0.959  0.00  0.00    -0.177 NA
ATOM      7  C   UNL     1      -3.960  -2.486  -1.580  0.00  0.00    +0.013 A 
ATOM      8  C   UNL     1      -5.235  -3.025  -1.666  0.00  0.00    +0.011 A 
ATOM      9  C   UNL     1      -5.588  -3.816  -2.752  0.00  0.00    +0.002 A 
ATOM     10  C   UNL     1      -4.680  -4.074  -3.755  0.00  0.00    +0.024 A 
ATOM     11  C   UNL     1      -3.390  -3.541  -3.688  0.00  0.00    +0.046 A 
ATOM     12  C   UNL     1      -3.027  -2.746  -2.602  0.00  0.00    +0.053 A 
ATOM     13  C   UNL     1      -1.770  -2.049  -2.245  0.00  0.00    +0.199 C 
ATOM     14  O   UNL     1      -0.740  -2.043  -2.889  0.00  0.00    -0.286 OA
ENDROOT
BRANCH  11  15
ATOM     15  N   UNL     1      -2.473  -3.802  -4.700  0.00  0.00    -0.269 N 
ATOM     16  C   UNL     1      -2.906  -4.113  -5.938  0.00  0.00    +0.301 C 
ATOM     17  O   UNL     1      -4.093  -4.066  -6.197  0.00  0.00    -0.253 OA
ATOM     18  N   UNL     1      -2.023  -4.477  -6.889  0.00  0.00    -0.313 N 
ATOM     19  H   UNL     1      -1.522  -3.761  -4.515  0.00  0.00    +0.156 HD
ATOM     20  H   UNL     1      -1.076  -4.515  -6.683  0.00  0.00    +0.146 HD
ATOM     21  H   UNL     1      -2.334  -4.700  -7.780  0.00  0.00    +0.146 HD
ENDBRANCH  11  15
BRANCH   1  23
ATOM     22  C   UNL     1      -0.051   1.519   0.035  0.00  0.00    +0.014 C 
ATOM     23  C   UNL     1      -0.018  -0.011   0.018  0.00  0.00    +0.034 C 
ATOM     24  C   UNL     1       0.728  -0.519   1.254  0.00  0.00    +0.014 C 
ENDBRANCH   1  23
TORSDOF 2
