REMARK  Name = CHEMBL434700
REMARK  2 active torsions:
REMARK  status: ('A' for Active; 'I' for Inactive)
REMARK    1  A    between atoms: C_5  and  N_7
REMARK    2  A    between atoms: C_18  and  C_19
REMARK                            x       y       z     vdW  Elec       q    Type
REMARK                         _______ _______ _______ _____ _____    ______ ____
ROOT
ATOM      1  C   UNL     1      -0.030   1.370   0.043  0.00  0.00    +0.002 A 
ATOM      2  C   UNL     1       1.151   2.094   0.038  0.00  0.00    +0.011 A 
ATOM      3  C   UNL     1       2.374   1.437   0.014  0.00  0.00    +0.015 A 
ATOM      4  C   UNL     1       2.409   0.032  -0.006  0.00  0.00    +0.053 A 
ATOM      5  C   UNL     1       1.208  -0.689  -0.002  0.00  0.00    +0.046 A 
ATOM      6  C   UNL     1      -0.006  -0.009   0.024  0.00  0.00    +0.024 A 
ATOM      7  C   UNL     1       3.818  -0.411  -0.030  0.00  0.00    +0.200 C 
ATOM      8  O   UNL     1       4.208  -1.563  -0.051  0.00  0.00    -0.286 OA
ATOM      9  C   UNL     1       4.662   0.788  -0.024  0.00  0.00    +0.078 A 
ATOM     10  C   UNL     1       3.767   1.948   0.003  0.00  0.00    +0.105 A 
ATOM     11  N   UNL     1       4.518   3.022   0.008  0.00  0.00    -0.172 NA
ATOM     12  H   UNL     1       6.617   3.267  -0.016  0.00  0.00    +0.189 HD
ATOM     13  N   UNL     1       5.866   2.653  -0.014  0.00  0.00    -0.273 N 
ATOM     14  C   UNL     1       5.961   1.290  -0.034  0.00  0.00    +0.112 A 
ENDROOT
BRANCH   5  15
ATOM     15  N   UNL     1       1.228  -2.081  -0.021  0.00  0.00    -0.269 N 
ATOM     16  C   UNL     1       0.173  -2.764  -0.508  0.00  0.00    +0.301 C 
ATOM     17  O   UNL     1      -0.752  -2.166  -1.023  0.00  0.00    -0.253 OA
ATOM     18  N   UNL     1       0.144  -4.108  -0.423  0.00  0.00    -0.313 N 
ATOM     19  H   UNL     1       2.002  -2.559   0.316  0.00  0.00    +0.156 HD
ATOM     20  H   UNL     1       0.882  -4.585  -0.012  0.00  0.00    +0.146 HD
ATOM     21  H   UNL     1      -0.616  -4.600  -0.773  0.00  0.00    +0.146 HD
ENDBRANCH   5  15
BRANCH  14  22
ATOM     22  C   UNL     1       7.199   0.504  -0.060  0.00  0.00    +0.153 A 
ATOM     23  C   UNL     1       8.287   0.747  -0.848  0.00  0.00    +0.051 A 
ATOM     24  C   UNL     1       9.234  -0.247  -0.547  0.00  0.00    +0.042 A 
ATOM     25  C   UNL     1       8.689  -1.041   0.399  0.00  0.00    +0.196 A 
ATOM     26  O   UNL     1       7.463  -0.582   0.694  0.00  0.00    -0.461 OA
ENDBRANCH  14  22
TORSDOF 2
