REMARK  Name = CHEMBL1087791
REMARK  10 active torsions:
REMARK  status: ('A' for Active; 'I' for Inactive)
REMARK    1  A    between atoms: C_1  and  C_2
REMARK    2  A    between atoms: C_2  and  CA_3
REMARK    3  A    between atoms: CA_3  and  C_5
REMARK    4  A    between atoms: CA_3  and  N_7
REMARK    5  A    between atoms: C_5  and  O_6
REMARK    6  A    between atoms: N_14  and  C_17
REMARK    7  A    between atoms: C_17  and  C_18
REMARK    8  A    between atoms: C_17  and  C_19
REMARK    9  A    between atoms: N_20  and  C_21
REMARK   10  A    between atoms: C_21  and  C_22
REMARK                            x       y       z     vdW  Elec       q    Type
REMARK                         _______ _______ _______ _____ _____    ______ ____
ROOT
ATOM      1  N   UNL     1       2.125  -0.091  -1.209  0.00  0.00    -0.310 N 
ATOM      2  C   UNL     1       2.498   1.169  -1.652  0.00  0.00    +0.196 A 
ATOM      3  N   UNL     1       1.566   1.992  -2.109  0.00  0.00    -0.315 N 
ATOM      4  C   UNL     1       1.886   3.209  -2.543  0.00  0.00    +0.124 A 
ATOM      5  C   UNL     1       3.223   3.609  -2.509  0.00  0.00    +0.107 A 
ATOM      6  C   UNL     1       4.173   2.717  -2.022  0.00  0.00    +0.151 A 
ATOM      7  N   UNL     1       3.774   1.516  -1.601  0.00  0.00    -0.199 NA
ATOM      8  N   UNL     1       5.435   3.296  -2.069  0.00  0.00    -0.295 N 
ATOM      9  C   UNL     1       5.284   4.648  -2.623  0.00  0.00    +0.212 C 
ATOM     10  N   UNL     1       3.849   4.809  -2.892  0.00  0.00    -0.323 N 
ATOM     11  N   UNL     1       0.905   4.067  -3.022  0.00  0.00    -0.325 N 
ATOM     12  H   UNL     1       2.795  -0.703  -0.868  0.00  0.00    +0.149 HD
ATOM     13  H   UNL     1       3.416   5.594  -3.264  0.00  0.00    +0.148 HD
ATOM     14  H   UNL     1       1.146   4.953  -3.336  0.00  0.00    +0.148 HD
ATOM     15  H   UNL     1       0.640   1.704  -2.128  0.00  0.00    +0.170 HD
ENDROOT
BRANCH   8  16
ATOM     16  C   UNL     1       6.689   2.671  -1.643  0.00  0.00    +0.070 C 
ATOM     17  C   UNL     1       7.651   2.597  -2.831  0.00  0.00    +0.028 C 
ATOM     18  C   UNL     1       7.321   3.505  -0.527  0.00  0.00    +0.028 C 
ENDBRANCH   8  16
BRANCH   1  19
ATOM     19  CA  UNL     1       0.718  -0.497  -1.257  0.00  0.00    +0.098 C 
BRANCH  19  21
ATOM     20  C   UNL     1      -0.019   1.526   0.010  0.00  0.00    +0.006 C 
ATOM     21  C   UNL     1       0.002  -0.004   0.002  0.00  0.00    +0.021 C 
ENDBRANCH  19  21
BRANCH  19  22
ATOM     22  C   UNL     1       0.630  -2.023  -1.329  0.00  0.00    +0.178 C 
BRANCH  22  23
ATOM     23  O   UNL     1       1.146  -2.587  -0.121  0.00  0.00    -0.393 OA
ATOM     24  H   UNL     1       1.122  -3.554  -0.097  0.00  0.00    +0.209 HD
ENDBRANCH  22  23
ENDBRANCH  19  22
ENDBRANCH   1  19
BRANCH  11  25
ATOM     25  C   UNL     1      -0.495   3.636  -3.053  0.00  0.00    +0.138 C 
BRANCH  25  26
ATOM     26  C   UNL     1      -1.350   4.744  -3.612  0.00  0.00    -0.030 A 
ATOM     27  C   UNL     1      -1.896   5.690  -2.765  0.00  0.00    +0.005 A 
ATOM     28  C   UNL     1      -2.680   6.706  -3.278  0.00  0.00    +0.000 A 
ATOM     29  C   UNL     1      -2.919   6.776  -4.638  0.00  0.00    +0.000 A 
ATOM     30  C   UNL     1      -2.372   5.830  -5.485  0.00  0.00    +0.000 A 
ATOM     31  C   UNL     1      -1.584   4.816  -4.972  0.00  0.00    +0.005 A 
ENDBRANCH  25  26
ENDBRANCH  11  25
TORSDOF 7
