REMARK  Name = CHEMBL136397
REMARK  8 active torsions:
REMARK  status: ('A' for Active; 'I' for Inactive)
REMARK    1  A    between atoms: C_3  and  C_24
REMARK    2  A    between atoms: C_9  and  O_23
REMARK    3  A    between atoms: C_10  and  N_11
REMARK    4  A    between atoms: N_12  and  C_13
REMARK    5  A    between atoms: C_16  and  S_19
REMARK    6  A    between atoms: S_19  and  N_22
REMARK    7  A    between atoms: C_25  and  C_26
REMARK    8  A    between atoms: C_29  and  O_32
REMARK                            x       y       z     vdW  Elec       q    Type
REMARK                         _______ _______ _______ _____ _____    ______ ____
ROOT
ATOM      1  C   UNL     1      -0.017   1.377   0.010  0.00  0.00    +0.003 A 
ATOM      2  C   UNL     1       1.161   2.101   0.002  0.00  0.00    +0.009 A 
ATOM      3  C   UNL     1       2.389   1.439  -0.013  0.00  0.00    -0.014 A 
ATOM      4  C   UNL     1       2.414   0.032  -0.021  0.00  0.00    +0.038 A 
ATOM      5  C   UNL     1       1.212  -0.690  -0.013  0.00  0.00    +0.052 A 
ATOM      6  C   UNL     1       0.002  -0.004   0.002  0.00  0.00    +0.026 A 
ATOM      7  N   UNL     1       1.528  -2.038  -0.024  0.00  0.00    -0.324 N 
ATOM      8  H   UNL     1       0.878  -2.758  -0.021  0.00  0.00    +0.169 HD
ATOM      9  C   UNL     1       2.876  -2.209  -0.038  0.00  0.00    +0.219 A 
ATOM     10  C   UNL     1       3.495  -0.967  -0.038  0.00  0.00    +0.155 A 
ENDROOT
BRANCH  10  11
ATOM     11  N   UNL     1       4.822  -0.723  -0.049  0.00  0.00    -0.143 NA
ATOM     12  N   UNL     1       5.658  -1.705  -0.063  0.00  0.00    -0.149 NA
BRANCH  12  13
ATOM     13  C   UNL     1       7.003  -1.458  -0.075  0.00  0.00    +0.086 A 
ATOM     14  C   UNL     1       7.476  -0.143  -0.066  0.00  0.00    +0.031 A 
ATOM     15  C   UNL     1       8.833   0.098  -0.078  0.00  0.00    +0.030 A 
ATOM     16  C   UNL     1       9.727  -0.958  -0.098  0.00  0.00    +0.105 A 
ATOM     17  C   UNL     1       9.267  -2.263  -0.107  0.00  0.00    +0.030 A 
ATOM     18  C   UNL     1       7.912  -2.519  -0.090  0.00  0.00    +0.031 A 
BRANCH  16  19
ATOM     19  S   UNL     1      11.460  -0.639  -0.113  0.00  0.00    +0.056 S 
ATOM     20  O   UNL     1      12.079  -1.785  -0.682  0.00  0.00    -0.153 OA
ATOM     21  O   UNL     1      11.629   0.664  -0.651  0.00  0.00    -0.153 OA
BRANCH  19  22
ATOM     22  N   UNL     1      11.958  -0.568   1.465  0.00  0.00    -0.204 NA
ATOM     23  H   UNL     1      12.861  -0.832   1.701  0.00  0.00    +0.144 HD
ATOM     24  H   UNL     1      11.347  -0.261   2.153  0.00  0.00    +0.144 HD
ENDBRANCH  19  22
ENDBRANCH  16  19
ENDBRANCH  12  13
ENDBRANCH  10  11
BRANCH   9  25
ATOM     25  O   UNL     1       3.514  -3.401  -0.051  0.00  0.00    -0.492 OA
ATOM     26  H   UNL     1       3.691  -3.743  -0.938  0.00  0.00    +0.294 HD
ENDBRANCH   9  25
BRANCH   3  27
ATOM     27  C   UNL     1       3.645   2.204  -0.022  0.00  0.00    +0.009 C 
ATOM     28  C   UNL     1       3.614   3.548  -0.015  0.00  0.00    +0.008 C 
BRANCH  28  29
ATOM     29  C   UNL     1       4.872   4.314  -0.024  0.00  0.00    -0.025 A 
ATOM     30  C   UNL     1       6.099   3.646  -0.046  0.00  0.00    +0.011 A 
ATOM     31  C   UNL     1       7.274   4.367  -0.054  0.00  0.00    +0.046 A 
ATOM     32  C   UNL     1       7.239   5.756  -0.040  0.00  0.00    +0.117 A 
ATOM     33  C   UNL     1       6.021   6.424  -0.019  0.00  0.00    +0.046 A 
ATOM     34  C   UNL     1       4.841   5.712  -0.017  0.00  0.00    +0.011 A 
BRANCH  32  35
ATOM     35  O   UNL     1       8.399   6.463  -0.048  0.00  0.00    -0.507 OA
ATOM     36  H   UNL     1       8.724   6.676  -0.933  0.00  0.00    +0.292 HD
ENDBRANCH  32  35
ENDBRANCH  28  29
ENDBRANCH   3  27
TORSDOF 8
