REMARK  Name = CHEMBL181289
REMARK  6 active torsions:
REMARK  status: ('A' for Active; 'I' for Inactive)
REMARK    1  A    between atoms: C_4  and  C_8
REMARK    2  A    between atoms: C_8  and  C_10
REMARK    3  A    between atoms: C_15  and  N_19
REMARK    4  A    between atoms: N_19  and  C_20
REMARK    5  A    between atoms: C_23  and  S_26
REMARK    6  A    between atoms: S_26  and  N_29
REMARK                            x       y       z     vdW  Elec       q    Type
REMARK                         _______ _______ _______ _____ _____    ______ ____
ROOT
ATOM      1  C   UNL     1       3.720  -2.153   0.098  0.00  0.00    +0.039 A 
ATOM      2  C   UNL     1       2.508  -2.888   0.128  0.00  0.00    +0.017 A 
ATOM      3  C   UNL     1       2.548  -4.240   0.226  0.00  0.00    +0.047 A 
ATOM      4  C   UNL     1       3.794  -4.899   0.298  0.00  0.00    +0.140 A 
ATOM      5  N   UNL     1       4.113  -6.181   0.397  0.00  0.00    -0.213 NA
ATOM      6  C   UNL     1       5.445  -6.304   0.432  0.00  0.00    +0.142 A 
ATOM      7  C   UNL     1       5.995  -5.066   0.352  0.00  0.00    +0.136 A 
ATOM      8  N   UNL     1       4.957  -4.171   0.267  0.00  0.00    -0.304 N 
ATOM      9  C   UNL     1       4.925  -2.817   0.164  0.00  0.00    +0.104 A 
ENDROOT
BRANCH   1  10
ATOM     10  C   UNL     1       3.691  -0.683  -0.010  0.00  0.00    +0.197 C 
ATOM     11  O   UNL     1       4.729  -0.061  -0.134  0.00  0.00    -0.287 OA
BRANCH  10  15
ATOM     12  C   UNL     1      -0.019   1.383   0.114  0.00  0.00    +0.003 A 
ATOM     13  C   UNL     1       0.542   1.049  -1.106  0.00  0.00    +0.021 A 
ATOM     14  C   UNL     1       1.748   0.378  -1.154  0.00  0.00    +0.053 A 
ATOM     15  C   UNL     1       2.402   0.035   0.033  0.00  0.00    +0.059 A 
ATOM     16  C   UNL     1       1.828   0.377   1.262  0.00  0.00    +0.053 A 
ATOM     17  C   UNL     1       0.622   1.048   1.294  0.00  0.00    +0.021 A 
ATOM     18 CL   UNL     1       2.630  -0.043   2.743  0.00  0.00    -0.083 Cl
ATOM     19 CL   UNL     1       2.450  -0.041  -2.686  0.00  0.00    -0.083 Cl
ENDBRANCH  10  15
ENDBRANCH   1  10
BRANCH   6  20
ATOM     20  N   UNL     1       6.153  -7.508   0.533  0.00  0.00    -0.298 N 
ATOM     21  H   UNL     1       7.118  -7.497   0.637  0.00  0.00    +0.154 HD
BRANCH  20  22
ATOM     22  C   UNL     1       5.471  -8.726   0.485  0.00  0.00    +0.033 A 
ATOM     23  C   UNL     1       4.250  -8.814  -0.172  0.00  0.00    +0.025 A 
ATOM     24  C   UNL     1       3.578 -10.020  -0.218  0.00  0.00    +0.031 A 
ATOM     25  C   UNL     1       4.119 -11.139   0.387  0.00  0.00    +0.113 A 
ATOM     26  C   UNL     1       5.335 -11.055   1.042  0.00  0.00    +0.031 A 
ATOM     27  C   UNL     1       6.014  -9.854   1.088  0.00  0.00    +0.025 A 
BRANCH  25  28
ATOM     28  S   UNL     1       3.258 -12.675   0.326  0.00  0.00    +0.102 S 
ATOM     29  O   UNL     1       3.712 -13.440   1.434  0.00  0.00    -0.146 OA
ATOM     30  O   UNL     1       1.886 -12.364   0.126  0.00  0.00    -0.146 OA
BRANCH  28  31
ATOM     31  N   UNL     1       3.768 -13.468  -1.036  0.00  0.00    -0.093 NA
ATOM     32  C   UNL     1       3.283 -14.642  -1.326  0.00  0.00    +0.212 C 
ATOM     33  N   UNL     1       2.350 -15.224  -0.501  0.00  0.00    -0.369 N 
ATOM     34  N   UNL     1       3.706 -15.300  -2.457  0.00  0.00    -0.369 N 
ATOM     35  H   UNL     1       2.051 -14.759   0.297  0.00  0.00    +0.159 HD
ATOM     36  H   UNL     1       4.365 -14.890  -3.039  0.00  0.00    +0.159 HD
ATOM     37  H   UNL     1       3.346 -16.175  -2.672  0.00  0.00    +0.159 HD
ATOM     38  H   UNL     1       1.989 -16.098  -0.717  0.00  0.00    +0.159 HD
ENDBRANCH  28  31
ENDBRANCH  25  28
ENDBRANCH  20  22
ENDBRANCH   6  20
TORSDOF 6
