REMARK  Name = CHEMBL147290
REMARK  6 active torsions:
REMARK  status: ('A' for Active; 'I' for Inactive)
REMARK    1  A    between atoms: C_1  and  O_2
REMARK    2  A    between atoms: O_2  and  C_3
REMARK    3  A    between atoms: C_6  and  C_9
REMARK    4  A    between atoms: C_19  and  N_23
REMARK    5  A    between atoms: N_26  and  C_27
REMARK    6  A    between atoms: C_27  and  C_28
REMARK                            x       y       z     vdW  Elec       q    Type
REMARK                         _______ _______ _______ _____ _____    ______ ____
ROOT
ATOM      1  C   UNL     1      -4.982  -2.612   0.041  0.00  0.00    +0.077 A 
ATOM      2  C   UNL     1      -5.333  -3.692   0.839  0.00  0.00    +0.075 A 
ATOM      3  C   UNL     1      -6.722  -4.022   0.510  0.00  0.00    +0.105 A 
ATOM      4  N   UNL     1      -7.115  -3.178  -0.412  0.00  0.00    -0.173 NA
ATOM      5  N   UNL     1      -6.072  -2.297  -0.715  0.00  0.00    -0.276 N 
ATOM      6  H   UNL     1      -6.116  -1.577  -1.363  0.00  0.00    +0.189 HD
ATOM      7  C   UNL     1      -7.119  -5.177   1.353  0.00  0.00    +0.015 A 
ATOM      8  C   UNL     1      -8.311  -5.885   1.446  0.00  0.00    +0.011 A 
ATOM      9  C   UNL     1      -8.426  -6.944   2.330  0.00  0.00    +0.002 A 
ATOM     10  C   UNL     1      -7.361  -7.310   3.128  0.00  0.00    +0.024 A 
ATOM     11  C   UNL     1      -6.158  -6.616   3.053  0.00  0.00    +0.046 A 
ATOM     12  C   UNL     1      -6.029  -5.542   2.162  0.00  0.00    +0.053 A 
ATOM     13  C   UNL     1      -4.896  -4.641   1.872  0.00  0.00    +0.200 C 
ATOM     14  O   UNL     1      -3.797  -4.678   2.394  0.00  0.00    -0.286 OA
ENDROOT
BRANCH   1  18
ATOM     15  C   UNL     1      -1.221  -0.641  -0.019  0.00  0.00    +0.120 A 
ATOM     16  C   UNL     1      -2.394   0.104   0.002  0.00  0.00    +0.046 A 
ATOM     17  C   UNL     1      -3.616  -0.531   0.022  0.00  0.00    +0.013 A 
ATOM     18  C   UNL     1      -3.676  -1.927   0.019  0.00  0.00    +0.001 A 
ATOM     19  C   UNL     1      -2.494  -2.673  -0.003  0.00  0.00    +0.013 A 
ATOM     20  C   UNL     1      -1.276  -2.030  -0.028  0.00  0.00    +0.046 A 
BRANCH  15  22
ATOM     21  C   UNL     1      -0.035   1.418  -0.029  0.00  0.00    +0.277 C 
ATOM     22  O   UNL     1      -0.019  -0.011  -0.038  0.00  0.00    -0.495 OA
ENDBRANCH  15  22
ENDBRANCH   1  18
BRANCH  11  23
ATOM     23  N   UNL     1      -5.086  -6.986   3.860  0.00  0.00    -0.269 N 
ATOM     24  C   UNL     1      -4.997  -8.248   4.325  0.00  0.00    +0.304 C 
ATOM     25  O   UNL     1      -5.795  -9.089   3.958  0.00  0.00    -0.252 OA
ATOM     26  N   UNL     1      -4.024  -8.578   5.196  0.00  0.00    -0.295 N 
ATOM     27  H   UNL     1      -4.404  -6.336   4.088  0.00  0.00    +0.156 HD
ATOM     28  H   UNL     1      -3.387  -7.907   5.489  0.00  0.00    +0.151 HD
BRANCH  26  29
ATOM     29  C   UNL     1      -3.927  -9.950   5.702  0.00  0.00    +0.141 C 
BRANCH  29  30
ATOM     30  C   UNL     1      -2.763 -10.054   6.653  0.00  0.00    -0.027 A 
ATOM     31  C   UNL     1      -1.497 -10.381   6.192  0.00  0.00    +0.025 A 
ATOM     32  C   UNL     1      -0.454 -10.467   7.095  0.00  0.00    +0.111 A 
ATOM     33  N   UNL     1      -0.652 -10.243   8.379  0.00  0.00    -0.263 NA
ATOM     34  C   UNL     1      -1.842  -9.930   8.852  0.00  0.00    +0.111 A 
ATOM     35  C   UNL     1      -2.932  -9.819   8.009  0.00  0.00    +0.025 A 
ENDBRANCH  29  30
ENDBRANCH  26  29
ENDBRANCH  11  23
TORSDOF 5
