REMARK  Name = CHEMBL187015
REMARK  2 active torsions:
REMARK  status: ('A' for Active; 'I' for Inactive)
REMARK    1  A    between atoms: C_5  and  N_11
REMARK    2  A    between atoms: C_18  and  C_20
REMARK                            x       y       z     vdW  Elec       q    Type
REMARK                         _______ _______ _______ _____ _____    ______ ____
ROOT
ATOM      1  N   UNL     1       6.005   1.900  -0.044  0.00  0.00    -0.269 N 
ATOM      2  C   UNL     1       7.138   1.175   0.043  0.00  0.00    +0.310 C 
ATOM      3  O   UNL     1       7.085  -0.039   0.038  0.00  0.00    -0.252 OA
ATOM      4  N   UNL     1       8.330   1.798   0.137  0.00  0.00    -0.248 N 
ATOM      5  C   UNL     1       9.499   1.050   0.227  0.00  0.00    +0.166 A 
ATOM      6  N   UNL     1       9.634  -0.258   0.230  0.00  0.00    -0.233 NA
ATOM      7  C   UNL     1      10.825  -0.820   0.323  0.00  0.00    +0.124 A 
ATOM      8  C   UNL     1      11.893   0.010   0.414  0.00  0.00    +0.014 A 
ATOM      9  S   UNL     1      11.085   1.600   0.351  0.00  0.00    -0.057 S 
ATOM     10  H   UNL     1       6.051   2.866  -0.117  0.00  0.00    +0.156 HD
ATOM     11  H   UNL     1       8.373   2.767   0.141  0.00  0.00    +0.158 HD
ENDROOT
BRANCH   1  16
ATOM     12  C   UNL     1       1.886  -2.264   1.448  0.00  0.00    +0.020 A 
ATOM     13  C   UNL     1       3.128  -1.695   1.483  0.00  0.00    +0.011 A 
ATOM     14  C   UNL     1       3.343  -0.524   0.732  0.00  0.00    +0.002 A 
ATOM     15  C   UNL     1       4.593   0.115   0.720  0.00  0.00    +0.033 A 
ATOM     16  C   UNL     1       4.762   1.258  -0.029  0.00  0.00    +0.035 A 
ATOM     17  C   UNL     1       3.700   1.785  -0.775  0.00  0.00    +0.025 A 
ATOM     18  C   UNL     1       2.482   1.183  -0.778  0.00  0.00    +0.030 A 
ATOM     19  C   UNL     1       2.272   0.014  -0.025  0.00  0.00    +0.071 A 
ATOM     20  N   UNL     1       1.082  -0.594  -0.017  0.00  0.00    -0.255 NA
ATOM     21  C   UNL     1       0.877  -1.684   0.682  0.00  0.00    +0.111 A 
ENDBRANCH   1  16
BRANCH   8  22
ATOM     22  C   UNL     1      13.359  -0.319   0.530  0.00  0.00    +0.027 C 
ATOM     23  C   UNL     1      14.132   0.632   1.458  0.00  0.00    +0.009 C 
ATOM     24  C   UNL     1      15.277   0.577   0.433  0.00  0.00    +0.001 C 
ATOM     25  C   UNL     1      14.210   0.241  -0.622  0.00  0.00    +0.009 C 
ENDBRANCH   8  22
TORSDOF 2
