REMARK  Name = CHEMBL191046
REMARK  3 active torsions:
REMARK  status: ('A' for Active; 'I' for Inactive)
REMARK    1  A    between atoms: C_3  and  N_24
REMARK    2  A    between atoms: C_6  and  N_7
REMARK    3  A    between atoms: N_16  and  C_19
REMARK                            x       y       z     vdW  Elec       q    Type
REMARK                         _______ _______ _______ _____ _____    ______ ____
ROOT
ATOM      1  N   UNL     1      -1.172  -0.741  -0.314  0.00  0.00    -0.284 N 
ATOM      2  C   UNL     1      -0.980  -2.098  -0.140  0.00  0.00    +0.221 A 
ATOM      3  N   UNL     1       0.259  -2.555   0.012  0.00  0.00    -0.222 NA
ATOM      4  C   UNL     1       0.497  -3.842   0.182  0.00  0.00    +0.126 A 
ATOM      5  C   UNL     1      -0.590  -4.724   0.200  0.00  0.00    +0.036 A 
ATOM      6  C   UNL     1      -0.416  -6.162   0.384  0.00  0.00    +0.018 A 
ATOM      7  C   UNL     1      -1.524  -6.949   0.389  0.00  0.00    +0.071 A 
ATOM      8  C   UNL     1      -2.801  -6.377   0.221  0.00  0.00    +0.253 A 
ATOM      9  O   UNL     1      -3.781  -7.101   0.230  0.00  0.00    -0.268 OA
ATOM     10  N   UNL     1      -2.968  -5.053   0.051  0.00  0.00    -0.290 N 
ATOM     11  C   UNL     1      -1.892  -4.203   0.036  0.00  0.00    +0.149 A 
ATOM     12  N   UNL     1      -2.039  -2.894  -0.124  0.00  0.00    -0.196 NA
ATOM     13  H   UNL     1      -2.070  -0.378  -0.340  0.00  0.00    +0.155 HD
ENDROOT
BRANCH   1  19
ATOM     14  C   UNL     1       1.071  -0.333  -1.113  0.00  0.00    +0.025 A 
ATOM     15  C   UNL     1       2.159   0.505  -1.251  0.00  0.00    +0.025 A 
ATOM     16  C   UNL     1       2.115   1.792  -0.730  0.00  0.00    +0.030 A 
ATOM     17  C   UNL     1       0.976   2.235  -0.070  0.00  0.00    +0.025 A 
ATOM     18  C   UNL     1      -0.112   1.396   0.068  0.00  0.00    +0.025 A 
ATOM     19  C   UNL     1      -0.068   0.110  -0.454  0.00  0.00    +0.034 A 
BRANCH  16  20
ATOM     20  N   UNL     1       3.218   2.642  -0.870  0.00  0.00    -0.326 N 
ATOM     21  C   UNL     1       4.476   2.160  -1.462  0.00  0.00    +0.133 C 
ATOM     22  C   UNL     1       4.901   3.142  -2.559  0.00  0.00    +0.178 C 
ATOM     23  O   UNL     1       4.918   4.467  -2.023  0.00  0.00    -0.377 OA
ATOM     24  C   UNL     1       3.644   4.935  -1.576  0.00  0.00    +0.178 C 
ATOM     25  C   UNL     1       3.152   4.046  -0.434  0.00  0.00    +0.133 C 
ENDBRANCH  16  20
ENDBRANCH   1  19
BRANCH  10  26
ATOM     26  C   UNL     1      -4.318  -4.511  -0.119  0.00  0.00    +0.092 C 
ATOM     27  C   UNL     1      -4.924  -5.011  -1.447  0.00  0.00    +0.025 C 
ATOM     28  C   UNL     1      -5.764  -6.247  -1.040  0.00  0.00    +0.002 C 
ATOM     29  C   UNL     1      -6.370  -5.816   0.319  0.00  0.00    +0.002 C 
ATOM     30  C   UNL     1      -5.237  -5.023   1.003  0.00  0.00    +0.025 C 
ENDBRANCH  10  26
TORSDOF 3
