REMARK  Name = CHEMBL335275
REMARK  7 active torsions:
REMARK  status: ('A' for Active; 'I' for Inactive)
REMARK    1  A    between atoms: C_1  and  C_2
REMARK    2  A    between atoms: C_2  and  C_14
REMARK    3  A    between atoms: N_3  and  C_4
REMARK    4  A    between atoms: C_7  and  S_10
REMARK    5  A    between atoms: S_10  and  N_13
REMARK    6  A    between atoms: C_17  and  C_25
REMARK    7  A    between atoms: C_23  and  O_24
REMARK                            x       y       z     vdW  Elec       q    Type
REMARK                         _______ _______ _______ _____ _____    ______ ____
ROOT
ATOM      1  C   UNL     1      -0.416  -0.664  -1.191  0.00  0.00    +0.064 A 
ATOM      2  C   UNL     1       0.534  -1.301  -2.125  0.00  0.00    +0.013 A 
ATOM      3  C   UNL     1       1.917  -1.445  -2.136  0.00  0.00    +0.022 A 
ATOM      4  C   UNL     1       2.528  -2.117  -3.191  0.00  0.00    +0.020 A 
ATOM      5  C   UNL     1       1.751  -2.641  -4.230  0.00  0.00    +0.013 A 
ATOM      6  C   UNL     1       0.383  -2.498  -4.219  0.00  0.00    +0.027 A 
ATOM      7  C   UNL     1      -0.242  -1.828  -3.170  0.00  0.00    +0.050 A 
ATOM      8  N   UNL     1      -1.568  -1.539  -2.901  0.00  0.00    -0.325 N 
ATOM      9  H   UNL     1      -2.314  -1.792  -3.466  0.00  0.00    +0.169 HD
ATOM     10  C   UNL     1      -1.678  -0.857  -1.731  0.00  0.00    +0.200 A 
ENDROOT
BRANCH   4  11
ATOM     11  C   UNL     1       3.998  -2.277  -3.213  0.00  0.00    +0.155 A 
ATOM     12  C   UNL     1       4.730  -2.899  -4.172  0.00  0.00    +0.160 A 
ATOM     13  N   UNL     1       6.020  -2.820  -3.811  0.00  0.00    -0.224 NA
ATOM     14  C   UNL     1       6.103  -2.180  -2.679  0.00  0.00    +0.308 A 
ATOM     15  O   UNL     1       4.871  -1.826  -2.286  0.00  0.00    -0.442 OA
ENDBRANCH   4  11
BRANCH   1  17
ATOM     16  C   UNL     1       0.434   1.412  -0.018  0.00  0.00    +0.066 C 
ATOM     17  C   UNL     1      -0.101   0.004   0.017  0.00  0.00    +0.052 C 
ATOM     18  N   UNL     1      -0.275  -0.602   1.165  0.00  0.00    -0.252 NA
BRANCH  18  19
ATOM     19  C   UNL     1      -0.675  -1.910   1.194  0.00  0.00    +0.064 A 
ATOM     20  C   UNL     1       0.119  -2.900   0.609  0.00  0.00    +0.029 A 
ATOM     21  C   UNL     1      -0.290  -4.216   0.643  0.00  0.00    +0.030 A 
ATOM     22  C   UNL     1      -1.484  -4.558   1.254  0.00  0.00    +0.105 A 
ATOM     23  C   UNL     1      -2.275  -3.583   1.835  0.00  0.00    +0.030 A 
ATOM     24  C   UNL     1      -1.876  -2.263   1.814  0.00  0.00    +0.029 A 
BRANCH  22  25
ATOM     25  S   UNL     1      -1.999  -6.243   1.291  0.00  0.00    +0.056 S 
ATOM     26  O   UNL     1      -3.412  -6.232   1.440  0.00  0.00    -0.153 OA
ATOM     27  O   UNL     1      -1.352  -6.889   0.203  0.00  0.00    -0.153 OA
BRANCH  25  28
ATOM     28  N   UNL     1      -1.382  -6.913   2.674  0.00  0.00    -0.204 NA
ATOM     29  H   UNL     1      -0.847  -6.374   3.277  0.00  0.00    +0.144 HD
ATOM     30  H   UNL     1      -1.555  -7.845   2.880  0.00  0.00    +0.144 HD
ENDBRANCH  25  28
ENDBRANCH  22  25
ENDBRANCH  18  19
ENDBRANCH   1  17
BRANCH  10  31
ATOM     31  O   UNL     1      -2.837  -0.430  -1.181  0.00  0.00    -0.493 OA
ATOM     32  H   UNL     1      -3.103   0.457  -1.461  0.00  0.00    +0.294 HD
ENDBRANCH  10  31
TORSDOF 6
