REMARK  Name = CHEMBL260928
REMARK  2 active torsions:
REMARK  status: ('A' for Active; 'I' for Inactive)
REMARK    1  A    between atoms: C_6  and  C_7
REMARK    2  A    between atoms: C_17  and  C_19
REMARK                            x       y       z     vdW  Elec       q    Type
REMARK                         _______ _______ _______ _____ _____    ______ ____
ROOT
ATOM      1  C   UNL     1      -0.017   1.396   0.010  0.00  0.00    +0.009 A 
ATOM      2  C   UNL     1       1.147   2.103   0.002  0.00  0.00    +0.014 A 
ATOM      3  C   UNL     1       2.374   1.430  -0.013  0.00  0.00    +0.042 A 
ATOM      4  C   UNL     1       2.404   0.022  -0.021  0.00  0.00    +0.068 A 
ATOM      5  C   UNL     1       1.209  -0.690  -0.013  0.00  0.00    +0.036 A 
ATOM      6  C   UNL     1       0.002  -0.004   0.002  0.00  0.00    -0.015 A 
ATOM      7  N   UNL     1       3.724  -0.347  -0.035  0.00  0.00    -0.275 N 
ATOM      8  H   UNL     1       4.053  -1.260  -0.043  0.00  0.00    +0.189 HD
ATOM      9  N   UNL     1       4.522   0.801  -0.037  0.00  0.00    -0.157 NA
ATOM     10  C   UNL     1       3.770   1.869  -0.024  0.00  0.00    +0.154 A 
ATOM     11  N   UNL     1       4.218   3.195  -0.021  0.00  0.00    -0.268 N 
ATOM     12  C   UNL     1       5.540   3.460  -0.032  0.00  0.00    +0.221 C 
ATOM     13  O   UNL     1       6.340   2.549  -0.045  0.00  0.00    -0.275 OA
ATOM     14  H   UNL     1       3.578   3.924  -0.011  0.00  0.00    +0.156 HD
ENDROOT
BRANCH   6  15
ATOM     15  C   UNL     1      -1.275  -0.759   0.011  0.00  0.00    -0.011 A 
ATOM     16  C   UNL     1      -2.496  -0.092   0.021  0.00  0.00    +0.016 A 
ATOM     17  C   UNL     1      -3.639  -0.814   0.029  0.00  0.00    +0.046 A 
ATOM     18  S   UNL     1      -3.026  -2.491   0.021  0.00  0.00    -0.104 S 
ATOM     19  C   UNL     1      -1.279  -2.126   0.003  0.00  0.00    +0.053 A 
ENDBRANCH   6  15
BRANCH  12  20
ATOM     20  C   UNL     1       6.022   4.887  -0.029  0.00  0.00    +0.075 C 
ATOM     21  C   UNL     1       6.705   5.405  -1.297  0.00  0.00    +0.013 C 
ATOM     22  C   UNL     1       7.534   5.122  -0.042  0.00  0.00    +0.013 C 
ENDBRANCH  12  20
TORSDOF 2
