REMARK  Name = CHEMBL378420
REMARK  7 active torsions:
REMARK  status: ('A' for Active; 'I' for Inactive)
REMARK    1  A    between atoms: C_4  and  C_8
REMARK    2  A    between atoms: N_15  and  C_16
REMARK    3  A    between atoms: C_19  and  S_22
REMARK    4  A    between atoms: S_22  and  N_25
REMARK    5  A    between atoms: C_26  and  C_28
REMARK    6  A    between atoms: C_28  and  C_29
REMARK    7  A    between atoms: C_29  and  N_30
REMARK                            x       y       z     vdW  Elec       q    Type
REMARK                         _______ _______ _______ _____ _____    ______ ____
ROOT
ATOM      1  C   UNL     1       3.294  -0.870  -1.685  0.00  0.00    +0.287 C 
ATOM      2  O   UNL     1       4.133  -0.342  -2.387  0.00  0.00    -0.265 OA
ATOM      3  N   UNL     1       3.433  -2.160  -1.322  0.00  0.00    -0.161 N 
ATOM      4  C   UNL     1       4.501  -2.970  -1.575  0.00  0.00    +0.220 A 
ATOM      5  N   UNL     1       4.242  -4.150  -1.054  0.00  0.00    -0.180 NA
ATOM      6  C   UNL     1       3.037  -4.131  -0.470  0.00  0.00    +0.241 A 
ATOM      7  N   UNL     1       2.510  -2.938  -0.604  0.00  0.00    -0.124 NA
ATOM      8  N   UNL     1       2.439  -5.209   0.181  0.00  0.00    -0.282 N 
ATOM      9  N   UNL     1       5.647  -2.616  -2.255  0.00  0.00    -0.327 N 
ATOM     10  H   UNL     1       1.528  -5.134   0.506  0.00  0.00    +0.155 HD
ATOM     11  H   UNL     1       5.746  -1.716  -2.604  0.00  0.00    +0.145 HD
ATOM     12  H   UNL     1       6.355  -3.266  -2.384  0.00  0.00    +0.145 HD
ENDROOT
BRANCH   1  16
ATOM     13  C   UNL     1      -0.081   1.351  -0.373  0.00  0.00    +0.006 A 
ATOM     14  C   UNL     1      -0.102   0.736  -1.612  0.00  0.00    +0.039 A 
ATOM     15  C   UNL     1       0.992   0.012  -2.047  0.00  0.00    +0.139 A 
ATOM     16  C   UNL     1       2.123  -0.099  -1.230  0.00  0.00    +0.111 A 
ATOM     17  C   UNL     1       2.135   0.526   0.022  0.00  0.00    +0.139 A 
ATOM     18  C   UNL     1       1.032   1.247   0.441  0.00  0.00    +0.039 A 
ATOM     19  F   UNL     1       3.221   0.426   0.820  0.00  0.00    -0.205 F 
ATOM     20  F   UNL     1       0.969  -0.588  -3.258  0.00  0.00    -0.205 F 
ENDBRANCH   1  16
BRANCH   8  21
ATOM     21  C   UNL     1       3.152  -6.396   0.366  0.00  0.00    +0.034 A 
ATOM     22  C   UNL     1       4.540  -6.375   0.412  0.00  0.00    +0.025 A 
ATOM     23  C   UNL     1       5.242  -7.550   0.596  0.00  0.00    +0.031 A 
ATOM     24  C   UNL     1       4.564  -8.748   0.732  0.00  0.00    +0.113 A 
ATOM     25  C   UNL     1       3.182  -8.773   0.686  0.00  0.00    +0.031 A 
ATOM     26  C   UNL     1       2.474  -7.600   0.509  0.00  0.00    +0.025 A 
BRANCH  24  27
ATOM     27  S   UNL     1       5.463 -10.245   0.965  0.00  0.00    +0.102 S 
ATOM     28  O   UNL     1       4.619 -11.299   0.521  0.00  0.00    -0.146 OA
ATOM     29  O   UNL     1       6.759 -10.028   0.426  0.00  0.00    -0.146 OA
BRANCH  27  30
ATOM     30  N   UNL     1       5.657 -10.451   2.597  0.00  0.00    -0.091 NA
ATOM     31  C   UNL     1       6.289 -11.482   3.046  0.00  0.00    +0.266 C 
ATOM     32  O   UNL     1       6.791 -12.393   2.187  0.00  0.00    -0.269 OA
BRANCH  31  33
ATOM     33  C   UNL     1       6.466 -11.669   4.531  0.00  0.00    +0.117 C 
BRANCH  33  34
ATOM     34  C   UNL     1       5.808 -10.505   5.274  0.00  0.00    +0.094 C 
BRANCH  34  35
ATOM     35  N   UNL     1       5.980 -10.687   6.721  0.00  0.00    -0.298 NA
ATOM     36  C   UNL     1       5.235 -11.862   7.197  0.00  0.00    +0.112 C 
ATOM     37  C   UNL     1       5.490 -12.050   8.695  0.00  0.00    +0.175 C 
ATOM     38  O   UNL     1       5.119 -10.856   9.389  0.00  0.00    -0.377 OA
ATOM     39  C   UNL     1       5.825  -9.692   8.952  0.00  0.00    +0.175 C 
ATOM     40  C   UNL     1       5.574  -9.481   7.457  0.00  0.00    +0.112 C 
ENDBRANCH  34  35
ENDBRANCH  33  34
ENDBRANCH  31  33
ENDBRANCH  27  30
ENDBRANCH  24  27
ENDBRANCH   8  21
TORSDOF 7
