REMARK  Name = CHEMBL482211
REMARK  10 active torsions:
REMARK  status: ('A' for Active; 'I' for Inactive)
REMARK    1  A    between atoms: C_1  and  C_2
REMARK    2  A    between atoms: C_2  and  CA_3
REMARK    3  A    between atoms: CA_3  and  C_5
REMARK    4  A    between atoms: CA_3  and  N_7
REMARK    5  A    between atoms: C_5  and  O_6
REMARK    6  A    between atoms: C_14  and  C_17
REMARK    7  A    between atoms: C_17  and  C_18
REMARK    8  A    between atoms: C_17  and  C_19
REMARK    9  A    between atoms: N_20  and  C_21
REMARK   10  A    between atoms: C_21  and  C_22
REMARK                            x       y       z     vdW  Elec       q    Type
REMARK                         _______ _______ _______ _____ _____    ______ ____
ROOT
ATOM      1  N   UNL     1      -0.008  -0.140   2.444  0.00  0.00    -0.307 N 
ATOM      2  C   UNL     1       0.649  -0.007   3.659  0.00  0.00    +0.235 A 
ATOM      3  N   UNL     1       1.967  -0.216   3.710  0.00  0.00    -0.195 NA
ATOM      4  C   UNL     1       2.643  -0.103   4.839  0.00  0.00    +0.167 A 
ATOM      5  C   UNL     1       1.956   0.249   6.028  0.00  0.00    +0.195 A 
ATOM      6  N   UNL     1       2.339   0.435   7.280  0.00  0.00    -0.232 NA
ATOM      7  C   UNL     1       1.277   0.759   8.015  0.00  0.00    +0.137 A 
ATOM      8  C   UNL     1       0.185   0.779   7.209  0.00  0.00    +0.066 A 
ATOM      9  N   UNL     1       0.603   0.460   5.960  0.00  0.00    -0.211 N 
ATOM     10  N   UNL     1      -0.041   0.326   4.726  0.00  0.00    -0.129 NA
ATOM     11  N   UNL     1       4.005  -0.326   4.861  0.00  0.00    -0.322 N 
ATOM     12  H   UNL     1      -0.965   0.013   2.391  0.00  0.00    +0.149 HD
ATOM     13  H   UNL     1       4.497  -0.241   5.693  0.00  0.00    +0.148 HD
ENDROOT
BRANCH   8  14
ATOM     14  C   UNL     1      -1.228   1.098   7.625  0.00  0.00    +0.033 C 
ATOM     15  C   UNL     1      -1.476   0.567   9.038  0.00  0.00    +0.014 C 
ATOM     16  C   UNL     1      -1.437   2.613   7.605  0.00  0.00    +0.014 C 
ENDBRANCH   8  14
BRANCH   1  17
ATOM     17  CA  UNL     1       0.742  -0.511   1.242  0.00  0.00    +0.098 C 
BRANCH  17  19
ATOM     18  C   UNL     1      -0.019   1.526   0.010  0.00  0.00    +0.006 C 
ATOM     19  C   UNL     1       0.002  -0.004   0.002  0.00  0.00    +0.021 C 
ENDBRANCH  17  19
BRANCH  17  20
ATOM     20  C   UNL     1       0.872  -2.034   1.171  0.00  0.00    +0.178 C 
BRANCH  20  21
ATOM     21  O   UNL     1      -0.423  -2.615   1.003  0.00  0.00    -0.393 OA
ATOM     22  H   UNL     1      -0.416  -3.580   0.950  0.00  0.00    +0.209 HD
ENDBRANCH  20  21
ENDBRANCH  17  20
ENDBRANCH   1  17
BRANCH  11  23
ATOM     23  C   UNL     1       4.708  -0.690   3.629  0.00  0.00    +0.138 C 
BRANCH  23  24
ATOM     24  C   UNL     1       6.175  -0.875   3.923  0.00  0.00    -0.030 A 
ATOM     25  C   UNL     1       7.039   0.199   3.831  0.00  0.00    +0.005 A 
ATOM     26  C   UNL     1       8.384   0.029   4.101  0.00  0.00    +0.000 A 
ATOM     27  C   UNL     1       8.865  -1.216   4.463  0.00  0.00    +0.000 A 
ATOM     28  C   UNL     1       8.000  -2.290   4.555  0.00  0.00    +0.000 A 
ATOM     29  C   UNL     1       6.654  -2.119   4.289  0.00  0.00    +0.005 A 
ENDBRANCH  23  24
ENDBRANCH  11  23
TORSDOF 7
