REMARK  Name = CHEMBL436078
REMARK  5 active torsions:
REMARK  status: ('A' for Active; 'I' for Inactive)
REMARK    1  A    between atoms: C_1  and  O_2
REMARK    2  A    between atoms: O_2  and  C_3
REMARK    3  A    between atoms: C_6  and  C_9
REMARK    4  A    between atoms: C_19  and  N_23
REMARK    5  A    between atoms: N_26  and  C_27
REMARK                            x       y       z     vdW  Elec       q    Type
REMARK                         _______ _______ _______ _____ _____    ______ ____
ROOT
ATOM      1  C   UNL     1       2.213  -2.907  -4.827  0.00  0.00    +0.104 A 
ATOM      2  C   UNL     1       2.981  -4.088  -4.693  0.00  0.00    +0.075 A 
ATOM      3  C   UNL     1       3.344  -4.491  -5.972  0.00  0.00    +0.078 A 
ATOM      4  N   UNL     1       2.820  -3.596  -6.838  0.00  0.00    -0.276 N 
ATOM      5  N   UNL     1       2.120  -2.628  -6.110  0.00  0.00    -0.173 NA
ATOM      6  H   UNL     1       2.912  -3.623  -7.803  0.00  0.00    +0.189 HD
ATOM      7  C   UNL     1       4.153  -5.729  -5.873  0.00  0.00    +0.013 A 
ATOM      8  C   UNL     1       4.752  -6.526  -6.838  0.00  0.00    +0.011 A 
ATOM      9  C   UNL     1       5.468  -7.656  -6.463  0.00  0.00    +0.002 A 
ATOM     10  C   UNL     1       5.592  -7.999  -5.136  0.00  0.00    +0.024 A 
ATOM     11  C   UNL     1       4.997  -7.210  -4.148  0.00  0.00    +0.046 A 
ATOM     12  C   UNL     1       4.277  -6.073  -4.514  0.00  0.00    +0.053 A 
ATOM     13  C   UNL     1       3.545  -5.054  -3.729  0.00  0.00    +0.200 C 
ATOM     14  O   UNL     1       3.430  -5.019  -2.520  0.00  0.00    -0.286 OA
ENDROOT
BRANCH   1  18
ATOM     15  C   UNL     1       0.492  -0.667  -1.648  0.00  0.00    +0.120 A 
ATOM     16  C   UNL     1       0.976  -0.013  -2.773  0.00  0.00    +0.046 A 
ATOM     17  C   UNL     1       1.535  -0.737  -3.806  0.00  0.00    +0.013 A 
ATOM     18  C   UNL     1       1.613  -2.126  -3.719  0.00  0.00    +0.003 A 
ATOM     19  C   UNL     1       1.126  -2.780  -2.587  0.00  0.00    +0.013 A 
ATOM     20  C   UNL     1       0.574  -2.050  -1.556  0.00  0.00    +0.046 A 
BRANCH  15  22
ATOM     21  C   UNL     1      -0.110   1.467  -0.793  0.00  0.00    +0.277 C 
ATOM     22  O   UNL     1      -0.058   0.048  -0.632  0.00  0.00    -0.495 OA
ENDBRANCH  15  22
ENDBRANCH   1  18
BRANCH  11  23
ATOM     23  N   UNL     1       5.122  -7.556  -2.807  0.00  0.00    -0.269 N 
ATOM     24  C   UNL     1       6.123  -8.367  -2.411  0.00  0.00    +0.308 C 
ATOM     25  O   UNL     1       6.978  -8.709  -3.205  0.00  0.00    -0.252 OA
ATOM     26  N   UNL     1       6.176  -8.798  -1.135  0.00  0.00    -0.269 N 
ATOM     27  H   UNL     1       4.488  -7.215  -2.157  0.00  0.00    +0.156 HD
ATOM     28  H   UNL     1       5.457  -8.585  -0.521  0.00  0.00    +0.156 HD
BRANCH  26  29
ATOM     29  C   UNL     1       7.270  -9.553  -0.697  0.00  0.00    +0.035 A 
ATOM     30  C   UNL     1       8.534  -9.314  -1.218  0.00  0.00    +0.023 A 
ATOM     31  C   UNL     1       9.611 -10.061  -0.783  0.00  0.00    +0.002 A 
ATOM     32  C   UNL     1       9.432 -11.047   0.170  0.00  0.00    +0.000 A 
ATOM     33  C   UNL     1       8.173 -11.288   0.690  0.00  0.00    +0.002 A 
ATOM     34  C   UNL     1       7.093 -10.540   0.264  0.00  0.00    +0.023 A 
ENDBRANCH  26  29
ENDBRANCH  11  23
TORSDOF 4
