REMARK  Name = CHEMBL559513
REMARK  5 active torsions:
REMARK  status: ('A' for Active; 'I' for Inactive)
REMARK    1  A    between atoms: C_1  and  N_2
REMARK    2  A    between atoms: C_5  and  C_7
REMARK    3  A    between atoms: N_18  and  C_19
REMARK    4  A    between atoms: C_23  and  N_25
REMARK    5  A    between atoms: N_28  and  C_31
REMARK                            x       y       z     vdW  Elec       q    Type
REMARK                         _______ _______ _______ _____ _____    ______ ____
ROOT
ATOM      1  C   UNL     1      -0.727   0.892  -0.253  0.00  0.00    +0.173 C 
ATOM      2  N   UNL     1       0.138  -0.284  -0.127  0.00  0.00    -0.264 N 
ATOM      3  C   UNL     1       0.877  -0.813  -1.121  0.00  0.00    +0.091 A 
ATOM      4  C   UNL     1       1.559  -1.887  -0.589  0.00  0.00    +0.012 A 
ATOM      5  C   UNL     1       1.160  -1.962   0.746  0.00  0.00    +0.151 A 
ATOM      6  N   UNL     1       0.311  -0.967   0.955  0.00  0.00    -0.166 NA
ATOM      7  C   UNL     1       2.521  -2.710  -1.394  0.00  0.00    +0.044 C 
ATOM      8  C   UNL     1       2.074  -2.747  -2.855  0.00  0.00    +0.043 C 
ATOM      9  C   UNL     1       1.677  -1.394  -3.369  0.00  0.00    -0.001 A 
ATOM     10  C   UNL     1       1.067  -0.446  -2.535  0.00  0.00    +0.097 A 
ATOM     11  N   UNL     1       0.693   0.725  -3.029  0.00  0.00    -0.212 NA
ATOM     12  C   UNL     1       0.916   1.010  -4.305  0.00  0.00    +0.220 A 
ATOM     13  N   UNL     1       1.512   0.147  -5.115  0.00  0.00    -0.222 NA
ATOM     14  C   UNL     1       1.898  -1.046  -4.689  0.00  0.00    +0.120 A 
ATOM     15  N   UNL     1       0.516   2.240  -4.803  0.00  0.00    -0.284 N 
ATOM     16  H   UNL     1       0.154   2.911  -4.204  0.00  0.00    +0.155 HD
ENDROOT
BRANCH  15  17
ATOM     17  C   UNL     1       0.635   2.513  -6.169  0.00  0.00    +0.035 A 
ATOM     18  C   UNL     1       0.376   1.517  -7.103  0.00  0.00    +0.023 A 
ATOM     19  C   UNL     1       0.493   1.786  -8.452  0.00  0.00    +0.004 A 
ATOM     20  C   UNL     1       0.869   3.045  -8.879  0.00  0.00    +0.023 A 
ATOM     21  C   UNL     1       1.131   4.045  -7.950  0.00  0.00    +0.031 A 
ATOM     22  C   UNL     1       1.008   3.780  -6.594  0.00  0.00    +0.046 A 
BRANCH  21  23
ATOM     23  N   UNL     1       1.512   5.318  -8.382  0.00  0.00    -0.333 N 
ATOM     24  C   UNL     1       1.915   6.354  -7.419  0.00  0.00    +0.086 C 
ATOM     25  C   UNL     1       3.254   6.945  -7.873  0.00  0.00    -0.060 C 
ATOM     26  N   UNL     1       3.134   7.418  -9.258  0.00  0.00    +0.380 N 
ATOM     27  C   UNL     1       2.879   6.283 -10.154  0.00  0.00    -0.060 C 
ATOM     28  C   UNL     1       1.527   5.658  -9.813  0.00  0.00    +0.086 C 
ATOM     29  C   UNL     1       4.382   8.083  -9.656  0.00  0.00    -0.096 C 
ATOM     30  H   UNL     1       2.371   8.075  -9.323  0.00  0.00    -0.082 HD
ENDBRANCH  21  23
ENDBRANCH  15  17
BRANCH   5  31
ATOM     31  C   UNL     1       1.605  -2.960   1.740  0.00  0.00    +0.262 C 
ATOM     32  O   UNL     1       2.396  -3.826   1.420  0.00  0.00    -0.269 OA
ATOM     33  N   UNL     1       1.133  -2.911   3.002  0.00  0.00    -0.324 N 
ATOM     34  H   UNL     1       0.502  -2.220   3.257  0.00  0.00    +0.145 HD
ATOM     35  H   UNL     1       1.425  -3.567   3.654  0.00  0.00    +0.145 HD
ENDBRANCH   5  31
TORSDOF 3
