REMARK  Name = CHEMBL370724
REMARK  5 active torsions:
REMARK  status: ('A' for Active; 'I' for Inactive)
REMARK    1  A    between atoms: C_1  and  C_2
REMARK    2  A    between atoms: C_2  and  C_3
REMARK    3  A    between atoms: C_2  and  C_16
REMARK    4  A    between atoms: C_6  and  N_9
REMARK    5  A    between atoms: C_21  and  C_25
REMARK                            x       y       z     vdW  Elec       q    Type
REMARK                         _______ _______ _______ _____ _____    ______ ____
ROOT
ATOM      1  C   UNL     1      -0.019   1.526   0.010  0.00  0.00    +0.022 C 
ATOM      2  C   UNL     1       0.002  -0.004   0.002  0.00  0.00    +0.102 C 
ENDROOT
BRANCH   2   3
ATOM      3  C   UNL     1      -1.412  -0.526   0.013  0.00  0.00    +0.225 C 
ATOM      4  O   UNL     1      -1.790  -1.233   0.922  0.00  0.00    -0.275 OA
ATOM      5  N   UNL     1      -2.256  -0.206  -0.988  0.00  0.00    -0.268 N 
ATOM      6  C   UNL     1      -3.571  -0.691  -0.978  0.00  0.00    +0.147 A 
ATOM      7  C   UNL     1      -4.140  -1.510   0.009  0.00  0.00    +0.068 A 
ATOM      8  C   UNL     1      -5.421  -1.758  -0.345  0.00  0.00    +0.041 A 
ATOM      9  N   UNL     1      -5.659  -1.122  -1.511  0.00  0.00    -0.280 N 
ATOM     10  H   UNL     1      -6.496  -1.124  -2.001  0.00  0.00    +0.189 HD
ATOM     11  N   UNL     1      -4.486  -0.455  -1.888  0.00  0.00    -0.158 NA
ATOM     12  H   UNL     1      -1.953   0.360  -1.716  0.00  0.00    +0.156 HD
BRANCH   8  13
ATOM     13  C   UNL     1      -6.409  -2.595   0.426  0.00  0.00    +0.037 C 
ATOM     14  C   UNL     1      -7.435  -3.397  -0.378  0.00  0.00    +0.010 C 
ATOM     15  C   UNL     1      -7.875  -2.158   0.405  0.00  0.00    +0.010 C 
ENDBRANCH   8  13
ENDBRANCH   2   3
BRANCH   2  16
ATOM     16  C   UNL     1       0.731  -0.503   1.223  0.00  0.00    -0.036 A 
ATOM     17  C   UNL     1       0.261  -0.186   2.484  0.00  0.00    +0.006 A 
ATOM     18  C   UNL     1       0.927  -0.642   3.605  0.00  0.00    +0.025 A 
ATOM     19  C   UNL     1       2.069  -1.420   3.465  0.00  0.00    +0.051 A 
ATOM     20  C   UNL     1       2.538  -1.737   2.196  0.00  0.00    +0.025 A 
ATOM     21  C   UNL     1       1.865  -1.282   1.079  0.00  0.00    +0.006 A 
BRANCH  19  22
ATOM     22  N   UNL     1       2.745  -1.882   4.596  0.00  0.00    -0.207 N 
ATOM     23  C   UNL     1       2.735  -1.283   5.943  0.00  0.00    +0.133 C 
ATOM     24  C   UNL     1       2.943  -2.361   7.023  0.00  0.00    +0.045 C 
ATOM     25  C   UNL     1       4.122  -3.236   6.499  0.00  0.00    +0.190 C 
ATOM     26  S   UNL     1       3.728  -3.236   4.703  0.00  0.00    +0.046 S 
ATOM     27  O   UNL     1       2.894  -4.337   4.369  0.00  0.00    -0.155 OA
ATOM     28  O   UNL     1       4.884  -2.927   3.936  0.00  0.00    -0.155 OA
ENDBRANCH  19  22
ENDBRANCH   2  16
TORSDOF 4
