REMARK  Name = CHEMBL358525
REMARK  7 active torsions:
REMARK  status: ('A' for Active; 'I' for Inactive)
REMARK    1  A    between atoms: C_5  and  N_7
REMARK    2  A    between atoms: C_8  and  C_10
REMARK    3  A    between atoms: C_10  and  N_11
REMARK    4  A    between atoms: C_14  and  C_17
REMARK    5  A    between atoms: C_17  and  N_18
REMARK    6  A    between atoms: C_26  and  C_27
REMARK    7  A    between atoms: C_30  and  N_33
REMARK                            x       y       z     vdW  Elec       q    Type
REMARK                         _______ _______ _______ _____ _____    ______ ____
ROOT
ATOM      1  C   UNL     1       0.209   2.002  -0.184  0.00  0.00    +0.002 A 
ATOM      2  C   UNL     1       1.434   2.650  -0.168  0.00  0.00    +0.011 A 
ATOM      3  C   UNL     1       2.611   1.919  -0.076  0.00  0.00    +0.015 A 
ATOM      4  C   UNL     1       2.554   0.517   0.001  0.00  0.00    +0.053 A 
ATOM      5  C   UNL     1       1.310  -0.127  -0.016  0.00  0.00    +0.045 A 
ATOM      6  C   UNL     1       0.144   0.626  -0.109  0.00  0.00    +0.024 A 
ATOM      7  C   UNL     1       3.931  -0.012   0.090  0.00  0.00    +0.200 C 
ATOM      8  O   UNL     1       4.245  -1.185   0.170  0.00  0.00    -0.286 OA
ATOM      9  C   UNL     1       4.851   1.132   0.065  0.00  0.00    +0.075 A 
ATOM     10  C   UNL     1       4.033   2.343  -0.039  0.00  0.00    +0.105 A 
ATOM     11  N   UNL     1       4.851   3.366  -0.063  0.00  0.00    -0.173 NA
ATOM     12  H   UNL     1       6.959   3.475   0.021  0.00  0.00    +0.189 HD
ATOM     13  N   UNL     1       6.171   2.911   0.019  0.00  0.00    -0.276 N 
ATOM     14  C   UNL     1       6.175   1.550   0.098  0.00  0.00    +0.077 A 
ENDROOT
BRANCH  14  15
ATOM     15  C   UNL     1       7.364   0.684   0.198  0.00  0.00    +0.001 A 
ATOM     16  C   UNL     1       7.386  -0.374   1.112  0.00  0.00    +0.012 A 
ATOM     17  C   UNL     1       8.497  -1.181   1.203  0.00  0.00    +0.024 A 
ATOM     18  C   UNL     1       9.599  -0.945   0.387  0.00  0.00    +0.030 A 
ATOM     19  C   UNL     1       9.581   0.107  -0.525  0.00  0.00    +0.024 A 
ATOM     20  C   UNL     1       8.470   0.914  -0.626  0.00  0.00    +0.012 A 
BRANCH  18  21
ATOM     21  N   UNL     1      10.722  -1.763   0.482  0.00  0.00    -0.326 N 
ATOM     22  C   UNL     1      11.946  -1.460  -0.277  0.00  0.00    +0.133 C 
ATOM     23  C   UNL     1      13.135  -1.489   0.690  0.00  0.00    +0.178 C 
ATOM     24  O   UNL     1      13.124  -2.722   1.413  0.00  0.00    -0.377 OA
ATOM     25  C   UNL     1      11.969  -2.910   2.233  0.00  0.00    +0.178 C 
ATOM     26  C   UNL     1      10.722  -2.952   1.349  0.00  0.00    +0.133 C 
ENDBRANCH  18  21
ENDBRANCH  14  15
BRANCH   5  27
ATOM     27  N   UNL     1       1.241  -1.515   0.059  0.00  0.00    -0.286 N 
ATOM     28  C   UNL     1       0.222  -2.104   0.715  0.00  0.00    +0.201 C 
ATOM     29  O   UNL     1      -0.677  -1.429   1.170  0.00  0.00    -0.278 OA
ATOM     30  H   UNL     1       1.927  -2.058  -0.360  0.00  0.00    +0.155 HD
BRANCH  28  31
ATOM     31  C   UNL     1       0.198  -3.602   0.881  0.00  0.00    +0.019 C 
BRANCH  31  32
ATOM     32  N   UNL     1      -1.007  -3.993   1.625  0.00  0.00    +0.385 N 
ATOM     33  C   UNL     1      -0.941  -3.443   2.984  0.00  0.00    -0.078 C 
ATOM     34  C   UNL     1      -2.230  -3.779   3.737  0.00  0.00    -0.017 C 
ATOM     35  C   UNL     1      -2.393  -5.300   3.807  0.00  0.00    -0.032 C 
ATOM     36  C   UNL     1      -2.385  -5.871   2.386  0.00  0.00    -0.017 C 
ATOM     37  C   UNL     1      -1.090  -5.457   1.683  0.00  0.00    -0.078 C 
ATOM     38  H   UNL     1      -1.823  -3.629   1.156  0.00  0.00    -0.081 HD
BRANCH  35  39
ATOM     39  C   UNL     1      -3.719  -5.643   4.489  0.00  0.00    -0.083 C 
BRANCH  39  40
ATOM     40  N   UNL     1      -3.819  -7.098   4.663  0.00  0.00    +0.378 N 
ATOM     41  H   UNL     1      -4.694  -7.324   5.112  0.00  0.00    -0.090 HD
ATOM     42  H   UNL     1      -3.778  -7.548   3.761  0.00  0.00    -0.090 HD
ATOM     43  H   UNL     1      -3.053  -7.421   5.235  0.00  0.00    -0.090 HD
ENDBRANCH  39  40
ENDBRANCH  35  39
ENDBRANCH  31  32
ENDBRANCH  28  31
ENDBRANCH   5  27
TORSDOF 7
