REMARK  Name = CHEMBL346831
REMARK  3 active torsions:
REMARK  status: ('A' for Active; 'I' for Inactive)
REMARK    1  A    between atoms: C_1  and  C_2
REMARK    2  A    between atoms: N_4  and  C_5
REMARK    3  A    between atoms: C_18  and  C_19
REMARK                            x       y       z     vdW  Elec       q    Type
REMARK                         _______ _______ _______ _____ _____    ______ ____
ROOT
ATOM      1  C   UNL     1      -1.087  -2.080  -0.091  0.00  0.00    +0.045 A 
ATOM      2  C   UNL     1       0.149  -2.721  -0.092  0.00  0.00    +0.024 A 
ATOM      3  C   UNL     1       0.219  -4.095  -0.192  0.00  0.00    +0.002 A 
ATOM      4  C   UNL     1      -0.936  -4.854  -0.291  0.00  0.00    +0.011 A 
ATOM      5  C   UNL     1      -2.179  -4.237  -0.291  0.00  0.00    +0.015 A 
ATOM      6  C   UNL     1      -2.260  -2.837  -0.184  0.00  0.00    +0.053 A 
ATOM      7  C   UNL     1      -3.686  -2.458  -0.201  0.00  0.00    +0.200 C 
ATOM      8  O   UNL     1      -4.132  -1.328  -0.133  0.00  0.00    -0.286 OA
ATOM      9  C   UNL     1      -4.470  -3.700  -0.318  0.00  0.00    +0.075 A 
ATOM     10  C   UNL     1      -3.557  -4.785  -0.384  0.00  0.00    +0.105 A 
ATOM     11  N   UNL     1      -4.250  -5.894  -0.492  0.00  0.00    -0.173 NA
ATOM     12  H   UNL     1      -6.341  -6.221  -0.594  0.00  0.00    +0.189 HD
ATOM     13  N   UNL     1      -5.614  -5.583  -0.520  0.00  0.00    -0.276 N 
ATOM     14  C   UNL     1      -5.750  -4.232  -0.398  0.00  0.00    +0.077 A 
ENDROOT
BRANCH  14  15
ATOM     15  C   UNL     1      -7.018  -3.475  -0.382  0.00  0.00    +0.003 A 
ATOM     16  C   UNL     1      -7.226  -2.438   0.537  0.00  0.00    +0.030 A 
ATOM     17  C   UNL     1      -8.426  -1.757   0.516  0.00  0.00    +0.111 A 
ATOM     18  N   UNL     1      -9.368  -2.071  -0.352  0.00  0.00    -0.263 NA
ATOM     19  C   UNL     1      -9.214  -3.039  -1.234  0.00  0.00    +0.111 A 
ATOM     20  C   UNL     1      -8.044  -3.769  -1.288  0.00  0.00    +0.030 A 
ENDBRANCH  14  15
BRANCH   1  24
ATOM     21  C   UNL     1      -0.165   1.498   0.587  0.00  0.00    +0.109 C 
ATOM     22  C   UNL     1      -0.150  -0.009   0.589  0.00  0.00    +0.214 C 
ATOM     23  O   UNL     1       0.767  -0.606   1.113  0.00  0.00    -0.276 OA
ATOM     24  N   UNL     1      -1.156  -0.694   0.009  0.00  0.00    -0.285 N 
ATOM     25  H   UNL     1      -1.928  -0.220  -0.338  0.00  0.00    +0.155 HD
ENDBRANCH   1  24
TORSDOF 2
