REMARK  Name = CHEMBL445813
REMARK  4 active torsions:
REMARK  status: ('A' for Active; 'I' for Inactive)
REMARK    1  A    between atoms: C_4  and  C_8
REMARK    2  A    between atoms: N_10  and  C_11
REMARK    3  A    between atoms: C_16  and  C_17
REMARK    4  A    between atoms: N_19  and  C_20
REMARK                            x       y       z     vdW  Elec       q    Type
REMARK                         _______ _______ _______ _____ _____    ______ ____
ROOT
ATOM      1  C   UNL     1       5.500  -1.686  -1.229  0.00  0.00    +0.084 A 
ATOM      2  C   UNL     1       6.228  -2.097  -0.157  0.00  0.00    +0.129 A 
ATOM      3  N   UNL     1       7.338  -2.711  -0.642  0.00  0.00    -0.282 N 
ATOM      4  H   UNL     1       8.038  -3.103  -0.096  0.00  0.00    +0.188 HD
ATOM      5  N   UNL     1       7.328  -2.698  -1.926  0.00  0.00    -0.167 NA
ATOM      6  C   UNL     1       6.240  -2.097  -2.368  0.00  0.00    +0.168 A 
ENDROOT
BRANCH   1   9
ATOM      7  C   UNL     1       3.697  -0.683  -0.038  0.00  0.00    +0.251 C 
ATOM      8  O   UNL     1       4.239  -0.984   1.008  0.00  0.00    -0.270 OA
ATOM      9  N   UNL     1       4.274  -1.004  -1.213  0.00  0.00    -0.278 N 
ATOM     10  H   UNL     1       3.841  -0.764  -2.047  0.00  0.00    +0.155 HD
BRANCH   7  14
ATOM     11  C   UNL     1      -0.017   1.379   0.010  0.00  0.00    +0.003 A 
ATOM     12  C   UNL     1       1.167   2.094   0.002  0.00  0.00    +0.021 A 
ATOM     13  C   UNL     1       2.379   1.431  -0.013  0.00  0.00    +0.054 A 
ATOM     14  C   UNL     1       2.406   0.034  -0.021  0.00  0.00    +0.074 A 
ATOM     15  C   UNL     1       1.205  -0.682  -0.013  0.00  0.00    +0.054 A 
ATOM     16  C   UNL     1       0.002  -0.004   0.002  0.00  0.00    +0.021 A 
ATOM     17 CL   UNL     1       1.226  -2.418  -0.023  0.00  0.00    -0.083 Cl
ATOM     18 CL   UNL     1       3.863   2.330  -0.024  0.00  0.00    -0.083 Cl
ENDBRANCH   7  14
ENDBRANCH   1   9
BRANCH   6  19
ATOM     19  C   UNL     1       5.865  -1.889  -3.780  0.00  0.00    +0.266 C 
ATOM     20  O   UNL     1       4.830  -1.314  -4.055  0.00  0.00    -0.268 OA
ATOM     21  N   UNL     1       6.670  -2.337  -4.763  0.00  0.00    -0.307 N 
ATOM     22  H   UNL     1       7.496  -2.796  -4.543  0.00  0.00    +0.149 HD
BRANCH  21  23
ATOM     23  C   UNL     1       6.298  -2.130  -6.165  0.00  0.00    +0.070 C 
ATOM     24  C   UNL     1       5.372  -3.261  -6.621  0.00  0.00    +0.003 C 
ATOM     25  C   UNL     1       5.051  -3.083  -8.107  0.00  0.00    -0.081 C 
ATOM     26  N   UNL     1       6.294  -3.121  -8.887  0.00  0.00    +0.379 N 
ATOM     27  C   UNL     1       7.156  -1.996  -8.506  0.00  0.00    -0.081 C 
ATOM     28  C   UNL     1       7.558  -2.132  -7.035  0.00  0.00    +0.003 C 
ATOM     29  H   UNL     1       6.776  -3.989  -8.709  0.00  0.00    -0.086 HD
ATOM     30  H   UNL     1       6.074  -3.056  -9.870  0.00  0.00    -0.086 HD
ENDBRANCH  21  23
ENDBRANCH   6  19
TORSDOF 4
