REMARK  Name = CHEMBL559301
REMARK  5 active torsions:
REMARK  status: ('A' for Active; 'I' for Inactive)
REMARK    1  A    between atoms: C_6  and  O_7
REMARK    2  A    between atoms: O_7  and  C_8
REMARK    3  A    between atoms: C_8  and  C_9
REMARK    4  A    between atoms: C_15  and  C_17
REMARK    5  A    between atoms: C_17  and  C_18
REMARK                            x       y       z     vdW  Elec       q    Type
REMARK                         _______ _______ _______ _____ _____    ______ ____
ROOT
ATOM      1  C   UNL     1      -2.454  -2.722   0.012  0.00  0.00    +0.193 A 
ATOM      2  N   UNL     1      -3.149  -3.026   1.072  0.00  0.00    -0.128 NA
ATOM      3  N   UNL     1      -4.289  -3.515   0.727  0.00  0.00    -0.120 NA
ATOM      4  C   UNL     1      -4.371  -3.545  -0.569  0.00  0.00    +0.218 A 
ATOM      5  N   UNL     1      -3.210  -3.037  -1.099  0.00  0.00    -0.187 N 
ATOM      6  N   UNL     1      -3.131  -2.990  -2.484  0.00  0.00    -0.160 NA
ATOM      7  C   UNL     1      -4.109  -3.404  -3.233  0.00  0.00    +0.104 A 
ATOM      8  S   UNL     1      -5.308  -3.943  -2.023  0.00  0.00    -0.031 S 
ENDROOT
BRANCH   1   9
ATOM      9  C   UNL     1      -1.070  -2.126   0.001  0.00  0.00    +0.307 C 
BRANCH   9  10
ATOM     10  O   UNL     1      -1.165  -0.701   0.010  0.00  0.00    -0.484 OA
BRANCH  10  16
ATOM     11  C   UNL     1      -0.017   1.383   0.010  0.00  0.00    +0.047 A 
ATOM     12  C   UNL     1       1.171   2.089   0.002  0.00  0.00    +0.023 A 
ATOM     13  C   UNL     1       2.378   1.414  -0.013  0.00  0.00    +0.041 A 
ATOM     14  C   UNL     1       2.399   0.030  -0.021  0.00  0.00    +0.023 A 
ATOM     15  C   UNL     1       1.214  -0.679  -0.014  0.00  0.00    +0.047 A 
ATOM     16  C   UNL     1       0.002  -0.004   0.002  0.00  0.00    +0.121 A 
ATOM     17 CL   UNL     1       3.869   2.303  -0.024  0.00  0.00    -0.084 Cl
ENDBRANCH  10  16
ENDBRANCH   9  10
ENDBRANCH   1   9
BRANCH   7  18
ATOM     18  C   UNL     1      -4.204  -3.430  -4.737  0.00  0.00    +0.089 C 
BRANCH  18  19
ATOM     19  C   UNL     1      -2.915  -2.869  -5.340  0.00  0.00    +0.148 C 
ATOM     20  C   UNL     1      -2.912  -2.988  -6.859  0.00  0.00    +0.252 C 
ATOM     21  N   UNL     1      -2.862  -1.825  -7.459  0.00  0.00    -0.159 NA
ATOM     22  C   UNL     1      -2.819  -0.666  -6.827  0.00  0.00    +0.145 C 
ATOM     23  S   UNL     1      -2.842  -1.037  -5.186  0.00  0.00    -0.080 S 
ATOM     24  N   UNL     1      -2.766   0.575  -7.390  0.00  0.00    -0.340 N 
ATOM     25  O   UNL     1      -2.952  -4.049  -7.452  0.00  0.00    -0.272 OA
ATOM     26  H   UNL     1      -2.757   0.670  -8.355  0.00  0.00    +0.144 HD
ATOM     27  H   UNL     1      -2.736   1.363  -6.825  0.00  0.00    +0.144 HD
ENDBRANCH  18  19
ENDBRANCH   7  18
TORSDOF 5
