REMARK  Name = CHEMBL76872
REMARK  7 active torsions:
REMARK  status: ('A' for Active; 'I' for Inactive)
REMARK    1  A    between atoms: C_1  and  C_2
REMARK    2  A    between atoms: C_2  and  C_3
REMARK    3  A    between atoms: C_3  and  C_4
REMARK    4  A    between atoms: C_4  and  O_5
REMARK    5  A    between atoms: O_5  and  C_6
REMARK    6  A    between atoms: C_7  and  S_16
REMARK    7  A    between atoms: S_16  and  C_19
REMARK                            x       y       z     vdW  Elec       q    Type
REMARK                         _______ _______ _______ _____ _____    ______ ____
ROOT
ATOM      1  C   UNL     1      -3.000  -3.921   0.273  0.00  0.00    +0.159 A 
ATOM      2  C   UNL     1      -2.952  -4.616   1.472  0.00  0.00    +0.154 A 
ATOM      3  C   UNL     1      -2.985  -6.001   1.459  0.00  0.00    +0.144 A 
ATOM      4  N   UNL     1      -3.060  -6.678   0.333  0.00  0.00    -0.234 NA
ATOM      5  H   UNL     1      -3.224  -7.451  -2.412  0.00  0.00    +0.191 HD
ATOM      6  C   UNL     1      -3.109  -6.069  -0.847  0.00  0.00    +0.159 A 
ATOM      7  N   UNL     1      -3.188  -6.521  -2.137  0.00  0.00    -0.260 N 
ATOM      8  N   UNL     1      -3.208  -5.412  -2.990  0.00  0.00    -0.180 NA
ATOM      9  C   UNL     1      -3.145  -4.317  -2.288  0.00  0.00    +0.148 A 
ATOM     10  C   UNL     1      -3.087  -4.664  -0.919  0.00  0.00    +0.082 A 
ENDROOT
BRANCH   2  11
ATOM     11  S   UNL     1      -2.850  -3.744   3.000  0.00  0.00    +0.030 S 
ATOM     12  O   UNL     1      -3.842  -2.729   2.955  0.00  0.00    -0.164 OA
ATOM     13  O   UNL     1      -2.810  -4.727   4.026  0.00  0.00    -0.164 OA
BRANCH  11  14
ATOM     14  C   UNL     1      -1.291  -2.924   3.028  0.00  0.00    +0.094 A 
ATOM     15  C   UNL     1      -0.159  -3.605   3.436  0.00  0.00    +0.027 A 
ATOM     16  C   UNL     1       1.065  -2.961   3.458  0.00  0.00    +0.002 A 
ATOM     17  C   UNL     1       1.156  -1.637   3.072  0.00  0.00    +0.000 A 
ATOM     18  C   UNL     1       0.024  -0.956   2.664  0.00  0.00    +0.002 A 
ATOM     19  C   UNL     1      -1.198  -1.601   2.638  0.00  0.00    +0.027 A 
ENDBRANCH  11  14
ENDBRANCH   2  11
BRANCH   1  20
ATOM     20  O   UNL     1      -2.970  -2.565   0.249  0.00  0.00    -0.489 OA
BRANCH  20  21
ATOM     21  C   UNL     1      -4.226  -1.890   0.162  0.00  0.00    +0.229 C 
BRANCH  21  22
ATOM     22  C   UNL     1      -3.987  -0.385   0.025  0.00  0.00    +0.041 C 
BRANCH  22  24
ATOM     23  C   UNL     1      -5.085   1.860   0.041  0.00  0.00    +0.004 C 
ATOM     24  C   UNL     1      -5.330   0.349   0.054  0.00  0.00    -0.000 C 
ENDBRANCH  22  24
ENDBRANCH  21  22
ENDBRANCH  20  21
ENDBRANCH   1  20
TORSDOF 6
