REMARK  Name = CHEMBL178190
REMARK  1 active torsions:
REMARK  status: ('A' for Active; 'I' for Inactive)
REMARK    1  A    between atoms: C_18  and  C_20
REMARK                            x       y       z     vdW  Elec       q    Type
REMARK                         _______ _______ _______ _____ _____    ______ ____
ROOT
ATOM      1  C   UNL     1      -0.017   1.380   0.010  0.00  0.00    +0.005 A 
ATOM      2  C   UNL     1       1.194   2.058   0.002  0.00  0.00    +0.020 A 
ATOM      3  C   UNL     1       2.373   1.338  -0.013  0.00  0.00    +0.113 A 
ATOM      4  N   UNL     1       2.359   0.019  -0.020  0.00  0.00    -0.236 NA
ATOM      5  C   UNL     1       1.226  -0.663  -0.013  0.00  0.00    +0.155 A 
ATOM      6  C   UNL     1       0.002  -0.004   0.002  0.00  0.00    +0.048 A 
ATOM      7  N   UNL     1       1.259  -2.059  -0.021  0.00  0.00    -0.213 N 
ATOM      8  C   UNL     1       2.289  -2.825  -0.504  0.00  0.00    +0.088 A 
ATOM      9  C   UNL     1       1.926  -4.166  -0.324  0.00  0.00    +0.033 A 
ATOM     10  C   UNL     1       2.793  -5.192  -0.729  0.00  0.00    +0.014 A 
ATOM     11  C   UNL     1       3.992  -4.899  -1.297  0.00  0.00    +0.028 A 
ATOM     12  C   UNL     1       4.381  -3.569  -1.489  0.00  0.00    +0.068 A 
ATOM     13  C   UNL     1       3.533  -2.522  -1.093  0.00  0.00    +0.046 A 
ATOM     14  C   UNL     1       4.191  -1.313  -1.412  0.00  0.00    +0.144 A 
ATOM     15  N   UNL     1       5.341  -1.596  -1.954  0.00  0.00    -0.181 NA
ATOM     16  N   UNL     1       5.501  -2.985  -2.022  0.00  0.00    -0.277 N 
ATOM     17  H   UNL     1       6.270  -3.452  -2.382  0.00  0.00    +0.189 HD
ATOM     18  C   UNL     1       0.598  -4.153   0.303  0.00  0.00    +0.155 A 
ATOM     19  N   UNL     1       0.249  -2.896   0.466  0.00  0.00    -0.159 NA
ENDROOT
BRANCH  18  20
ATOM     20  C   UNL     1      -0.197  -5.335   0.686  0.00  0.00    +0.262 C 
ATOM     21  O   UNL     1       0.240  -6.452   0.486  0.00  0.00    -0.269 OA
ATOM     22  N   UNL     1      -1.408  -5.176   1.257  0.00  0.00    -0.324 N 
ATOM     23  H   UNL     1      -1.756  -4.285   1.416  0.00  0.00    +0.145 HD
ATOM     24  H   UNL     1      -1.931  -5.954   1.508  0.00  0.00    +0.145 HD
ENDBRANCH  18  20
TORSDOF 1
