REMARK  Name = CHEMBL272028
REMARK  8 active torsions:
REMARK  status: ('A' for Active; 'I' for Inactive)
REMARK    1  A    between atoms: C_3  and  S_30
REMARK    2  A    between atoms: C_6  and  N_7
REMARK    3  A    between atoms: N_7  and  N_8
REMARK    4  A    between atoms: C_12  and  C_19
REMARK    5  A    between atoms: N_21  and  C_22
REMARK    6  A    between atoms: C_22  and  C_23
REMARK    7  A    between atoms: C_23  and  C_24
REMARK    8  A    between atoms: S_30  and  N_33
REMARK                            x       y       z     vdW  Elec       q    Type
REMARK                         _______ _______ _______ _____ _____    ______ ____
ROOT
ATOM      1  N   UNL     1      -1.176  -2.010   0.003  0.00  0.00    -0.177 NA
ATOM      2  C   UNL     1      -2.304  -2.684   0.010  0.00  0.00    +0.152 C 
ATOM      3  C   UNL     1      -2.477  -4.156   0.009  0.00  0.00    +0.029 A 
ATOM      4  C   UNL     1      -1.582  -5.215   0.001  0.00  0.00    +0.025 A 
ATOM      5  C   UNL     1      -2.064  -6.524   0.003  0.00  0.00    +0.037 A 
ATOM      6  C   UNL     1      -3.444  -6.756   0.013  0.00  0.00    +0.015 A 
ATOM      7  C   UNL     1      -4.329  -5.704   0.021  0.00  0.00    +0.025 A 
ATOM      8  C   UNL     1      -3.860  -4.391   0.019  0.00  0.00    +0.043 A 
ATOM      9  N   UNL     1      -4.529  -3.177   0.025  0.00  0.00    -0.280 N 
ATOM     10  C   UNL     1      -3.673  -2.142   0.026  0.00  0.00    +0.269 C 
ATOM     11  O   UNL     1      -3.976  -0.963   0.035  0.00  0.00    -0.268 OA
ATOM     12  H   UNL     1      -5.495  -3.087   0.033  0.00  0.00    +0.155 HD
ENDROOT
BRANCH   5  13
ATOM     13  C   UNL     1      -1.122  -7.661  -0.006  0.00  0.00    +0.244 C 
ATOM     14  O   UNL     1       0.076  -7.456  -0.015  0.00  0.00    -0.270 OA
ATOM     15  N   UNL     1      -1.590  -8.924  -0.004  0.00  0.00    -0.311 N 
ATOM     16  H   UNL     1      -2.546  -9.087   0.003  0.00  0.00    +0.149 HD
BRANCH  15  17
ATOM     17  C   UNL     1      -0.655 -10.052  -0.013  0.00  0.00    +0.110 C 
BRANCH  17  18
ATOM     18  C   UNL     1      -1.440 -11.365  -0.009  0.00  0.00    +0.073 C 
BRANCH  18  19
ATOM     19  C   UNL     1      -0.478 -12.525  -0.018  0.00  0.00    +0.035 A 
ATOM     20  C   UNL     1       0.097 -13.069  -1.108  0.00  0.00    +0.105 A 
ATOM     21  N   UNL     1       0.894 -14.090  -0.668  0.00  0.00    -0.352 N 
ATOM     22  H   UNL     1       1.440 -14.673  -1.219  0.00  0.00    +0.166 HD
ATOM     23  C   UNL     1       0.779 -14.136   0.677  0.00  0.00    +0.171 A 
ATOM     24  N   UNL     1      -0.039 -13.194   1.059  0.00  0.00    -0.350 N 
ATOM     25  H   UNL     1      -0.292 -13.008   1.977  0.00  0.00    +0.166 HD
ENDBRANCH  18  19
ENDBRANCH  17  18
ENDBRANCH  15  17
ENDBRANCH   5  13
BRANCH   1  26
ATOM     26  N   UNL     1      -1.196  -0.720   0.010  0.00  0.00    -0.237 N 
ATOM     27  H   UNL     1      -2.043  -0.247   0.020  0.00  0.00    +0.174 HD
BRANCH  26  33
ATOM     28  C   UNL     1      -0.017   1.386   0.010  0.00  0.00    +0.026 A 
ATOM     29  C   UNL     1       1.171   2.091   0.002  0.00  0.00    +0.030 A 
ATOM     30  C   UNL     1       2.377   1.415  -0.013  0.00  0.00    +0.105 A 
ATOM     31  C   UNL     1       2.400   0.033  -0.021  0.00  0.00    +0.030 A 
ATOM     32  C   UNL     1       1.217  -0.679  -0.014  0.00  0.00    +0.026 A 
ATOM     33  C   UNL     1       0.002  -0.004   0.002  0.00  0.00    +0.048 A 
BRANCH  30  34
ATOM     34  S   UNL     1       3.890   2.319  -0.024  0.00  0.00    +0.056 S 
ATOM     35  O   UNL     1       4.872   1.461  -0.589  0.00  0.00    -0.153 OA
ATOM     36  O   UNL     1       3.594   3.599  -0.566  0.00  0.00    -0.153 OA
BRANCH  34  37
ATOM     37  N   UNL     1       4.326   2.562   1.555  0.00  0.00    -0.204 NA
ATOM     38  H   UNL     1       3.768   2.221   2.270  0.00  0.00    +0.144 HD
ATOM     39  H   UNL     1       5.140   3.047   1.764  0.00  0.00    +0.144 HD
ENDBRANCH  34  37
ENDBRANCH  30  34
ENDBRANCH  26  33
ENDBRANCH   1  26
TORSDOF 8
