REMARK  Name = CHEMBL109981
REMARK  13 active torsions:
REMARK  status: ('A' for Active; 'I' for Inactive)
REMARK    1  A    between atoms: C_1  and  C_2
REMARK    2  A    between atoms: C_2  and  C_3
REMARK    3  A    between atoms: C_2  and  C_4
REMARK    4  A    between atoms: C_2  and  O_5
REMARK    5  A    between atoms: O_5  and  C_6
REMARK    6  A    between atoms: N_8  and  C_9
REMARK    7  A    between atoms: C_9  and  C_10
REMARK    8  A    between atoms: C_10  and  C_11
REMARK    9  A    between atoms: C_11  and  N_12
REMARK   10  A    between atoms: C_14  and  C_21
REMARK   11  A    between atoms: C_22  and  C_28
REMARK   12  A    between atoms: C_33  and  O_34
REMARK   13  A    between atoms: O_34  and  C_35
REMARK                            x       y       z     vdW  Elec       q    Type
REMARK                         _______ _______ _______ _____ _____    ______ ____
ROOT
ATOM      1  N   UNL     1       6.555  -0.786  -5.341  0.00  0.00    -0.331 N 
ATOM      2  C   UNL     1       7.250  -1.950  -5.437  0.00  0.00    +0.097 A 
ATOM      3  C   UNL     1       7.585  -2.179  -6.742  0.00  0.00    +0.015 A 
ATOM      4  C   UNL     1       7.043  -1.047  -7.513  0.00  0.00    +0.027 A 
ATOM      5  C   UNL     1       6.404  -0.210  -6.583  0.00  0.00    +0.141 A 
ATOM      6  N   UNL     1       5.810   0.902  -6.996  0.00  0.00    -0.237 NA
ATOM      7  C   UNL     1       5.798   1.249  -8.266  0.00  0.00    +0.113 A 
ATOM      8  C   UNL     1       6.406   0.469  -9.236  0.00  0.00    +0.020 A 
ATOM      9  C   UNL     1       7.048  -0.699  -8.863  0.00  0.00    +0.013 A 
ENDROOT
BRANCH   3  10
ATOM     10  C   UNL     1       8.337  -3.326  -7.270  0.00  0.00    +0.059 C 
ATOM     11  C   UNL     1       7.868  -4.620  -7.452  0.00  0.00    +0.060 C 
ATOM     12  C   UNL     1       8.997  -5.393  -8.004  0.00  0.00    +0.252 C 
ATOM     13  O   UNL     1       8.972  -6.572  -8.297  0.00  0.00    -0.270 OA
ATOM     14  N   UNL     1      10.058  -4.578  -8.130  0.00  0.00    -0.248 N 
ATOM     15  C   UNL     1       9.749  -3.335  -7.723  0.00  0.00    +0.252 C 
ATOM     16  O   UNL     1      10.500  -2.381  -7.723  0.00  0.00    -0.270 OA
ATOM     17  H   UNL     1      10.925  -4.848  -8.471  0.00  0.00    +0.158 HD
BRANCH  11  18
ATOM     18  C   UNL     1       6.512  -5.121  -7.154  0.00  0.00    +0.029 A 
ATOM     19  C   UNL     1       5.444  -4.804  -7.997  0.00  0.00    +0.012 A 
ATOM     20  C   UNL     1       4.181  -5.276  -7.713  0.00  0.00    +0.001 A 
ATOM     21  C   UNL     1       3.964  -6.063  -6.593  0.00  0.00    +0.004 A 
ATOM     22  C   UNL     1       5.012  -6.383  -5.751  0.00  0.00    +0.046 A 
ATOM     23  C   UNL     1       6.290  -5.923  -6.025  0.00  0.00    +0.128 A 
BRANCH  23  24
ATOM     24  O   UNL     1       7.321  -6.243  -5.202  0.00  0.00    -0.494 OA
ATOM     25  C   UNL     1       7.019  -7.064  -4.072  0.00  0.00    +0.277 C 
ENDBRANCH  23  24
ENDBRANCH  11  18
ENDBRANCH   3  10
BRANCH   1  26
ATOM     26  C   UNL     1       6.035  -0.225  -4.091  0.00  0.00    +0.125 C 
BRANCH  26  27
ATOM     27  C   UNL     1       4.579  -0.657  -3.906  0.00  0.00    +0.040 C 
BRANCH  27  28
ATOM     28  C   UNL     1       4.035  -0.071  -2.601  0.00  0.00    +0.109 C 
BRANCH  28  31
ATOM     29  C   UNL     1       1.952  -0.085  -1.337  0.00  0.00    +0.401 C 
ATOM     30  O   UNL     1       2.488   0.619  -0.503  0.00  0.00    -0.226 OA
ATOM     31  N   UNL     1       2.641  -0.485  -2.424  0.00  0.00    -0.281 N 
ATOM     32  H   UNL     1       2.213  -1.047  -3.089  0.00  0.00    +0.152 HD
BRANCH  29  33
ATOM     33  O   UNL     1       0.671  -0.465  -1.174  0.00  0.00    -0.445 OA
BRANCH  33  35
ATOM     34  C   UNL     1      -0.019   1.526   0.010  0.00  0.00    +0.055 C 
ATOM     35  C   UNL     1       0.002  -0.004   0.002  0.00  0.00    +0.107 C 
ATOM     36  C   UNL     1       0.742  -0.511   1.242  0.00  0.00    +0.055 C 
ATOM     37  C   UNL     1      -1.433  -0.534   0.013  0.00  0.00    +0.055 C 
ENDBRANCH  33  35
ENDBRANCH  29  33
ENDBRANCH  28  31
ENDBRANCH  27  28
ENDBRANCH  26  27
ENDBRANCH   1  26
TORSDOF 9
