REMARK  Name = CHEMBL363954
REMARK  3 active torsions:
REMARK  status: ('A' for Active; 'I' for Inactive)
REMARK    1  A    between atoms: C_5  and  C_11
REMARK    2  A    between atoms: C_11  and  C_12
REMARK    3  A    between atoms: C_18  and  C_20
REMARK                            x       y       z     vdW  Elec       q    Type
REMARK                         _______ _______ _______ _____ _____    ______ ____
ROOT
ATOM      1  C   UNL     1       6.546   2.188   1.374  0.00  0.00    +0.223 C 
ATOM      2  O   UNL     1       5.855   1.819   2.300  0.00  0.00    -0.275 OA
ATOM      3  N   UNL     1       7.723   2.800   1.613  0.00  0.00    -0.264 N 
ATOM      4  C   UNL     1       8.146   3.006   2.921  0.00  0.00    +0.165 A 
ATOM      5  N   UNL     1       7.539   2.672   4.039  0.00  0.00    -0.233 NA
ATOM      6  C   UNL     1       8.076   2.941   5.214  0.00  0.00    +0.124 A 
ATOM      7  C   UNL     1       9.275   3.574   5.213  0.00  0.00    +0.014 A 
ATOM      8  S   UNL     1       9.562   3.739   3.458  0.00  0.00    -0.057 S 
ATOM      9  H   UNL     1       8.275   3.095   0.872  0.00  0.00    +0.157 HD
ENDROOT
BRANCH   7  10
ATOM     10  C   UNL     1      10.132   4.013   6.372  0.00  0.00    +0.027 C 
ATOM     11  C   UNL     1      10.839   5.359   6.141  0.00  0.00    +0.009 C 
ATOM     12  C   UNL     1      12.069   4.741   6.826  0.00  0.00    +0.001 C 
ATOM     13  C   UNL     1      11.529   3.370   6.384  0.00  0.00    +0.009 C 
ENDBRANCH   7  10
BRANCH   1  14
ATOM     14  C   UNL     1       6.087   1.964  -0.044  0.00  0.00    +0.131 C 
BRANCH  14  19
ATOM     15  C   UNL     1      -0.017   1.389   0.010  0.00  0.00    +0.020 A 
ATOM     16  C   UNL     1       1.158   2.087   0.002  0.00  0.00    +0.011 A 
ATOM     17  C   UNL     1       2.362   1.359  -0.013  0.00  0.00    +0.001 A 
ATOM     18  C   UNL     1       3.608   2.007  -0.021  0.00  0.00    +0.014 A 
ATOM     19  C   UNL     1       4.751   1.267  -0.035  0.00  0.00    -0.038 A 
ATOM     20  C   UNL     1       4.701  -0.125  -0.043  0.00  0.00    +0.006 A 
ATOM     21  C   UNL     1       3.512  -0.786  -0.036  0.00  0.00    +0.028 A 
ATOM     22  C   UNL     1       2.309  -0.057  -0.020  0.00  0.00    +0.071 A 
ATOM     23  N   UNL     1       1.126  -0.679  -0.012  0.00  0.00    -0.255 NA
ATOM     24  C   UNL     1       0.002  -0.004   0.002  0.00  0.00    +0.111 A 
ENDBRANCH  14  19
ENDBRANCH   1  14
TORSDOF 3
