REMARK  Name = CHEMBL211514
REMARK  14 active torsions:
REMARK  status: ('A' for Active; 'I' for Inactive)
REMARK    1  A    between atoms: C_1  and  C_2
REMARK    2  A    between atoms: C_6  and  N_8
REMARK    3  A    between atoms: N_8  and  C_9
REMARK    4  A    between atoms: C_9  and  C_10
REMARK    5  A    between atoms: C_14  and  N_18
REMARK    6  A    between atoms: N_18  and  C_19
REMARK    7  A    between atoms: C_22  and  O_25
REMARK    8  A    between atoms: O_25  and  C_26
REMARK    9  A    between atoms: C_26  and  C_27
REMARK   10  A    between atoms: C_27  and  C_29
REMARK   11  A    between atoms: C_27  and  O_33
REMARK   12  A    between atoms: C_29  and  N_30
REMARK   13  A    between atoms: N_30  and  C_31
REMARK   14  A    between atoms: N_30  and  C_32
REMARK                            x       y       z     vdW  Elec       q    Type
REMARK                         _______ _______ _______ _____ _____    ______ ____
ROOT
ATOM      1  N   UNL     1       7.070  -4.151   6.590  0.00  0.00    -0.270 N 
ATOM      2  C   UNL     1       6.931  -3.245   5.548  0.00  0.00    +0.131 A 
ATOM      3  C   UNL     1       5.938  -3.420   4.589  0.00  0.00    +0.087 A 
ATOM      4  C   UNL     1       5.840  -2.483   3.564  0.00  0.00    +0.128 A 
ATOM      5  N   UNL     1       6.693  -1.461   3.539  0.00  0.00    -0.221 NA
ATOM      6  C   UNL     1       7.620  -1.331   4.466  0.00  0.00    +0.225 A 
ATOM      7  N   UNL     1       7.742  -2.193   5.455  0.00  0.00    -0.220 NA
ENDROOT
BRANCH   1  13
ATOM      8  C   UNL     1       2.940  -6.422   7.987  0.00  0.00    +0.044 C 
ATOM      9  C   UNL     1       4.277  -6.437   7.292  0.00  0.00    -0.049 A 
ATOM     10  C   UNL     1       4.727  -7.595   6.684  0.00  0.00    +0.005 A 
ATOM     11  C   UNL     1       5.953  -7.613   6.045  0.00  0.00    +0.022 A 
ATOM     12  C   UNL     1       6.733  -6.472   6.011  0.00  0.00    +0.062 A 
ATOM     13  C   UNL     1       6.283  -5.307   6.621  0.00  0.00    +0.055 A 
ATOM     14  C   UNL     1       5.049  -5.292   7.257  0.00  0.00    +0.028 A 
ATOM     15 CL   UNL     1       8.272  -6.496   5.209  0.00  0.00    -0.082 Cl
ENDBRANCH   1  13
BRANCH   4  16
ATOM     16  N   UNL     1       4.867  -2.612   2.583  0.00  0.00    -0.299 N 
ATOM     17  H   UNL     1       4.196  -3.309   2.655  0.00  0.00    +0.154 HD
BRANCH  16  18
ATOM     18  C   UNL     1       4.855  -1.738   1.490  0.00  0.00    +0.033 A 
ATOM     19  C   UNL     1       3.647  -1.316   0.951  0.00  0.00    +0.027 A 
ATOM     20  C   UNL     1       3.636  -0.454  -0.127  0.00  0.00    +0.047 A 
ATOM     21  C   UNL     1       4.832  -0.008  -0.671  0.00  0.00    +0.121 A 
ATOM     22  C   UNL     1       6.039  -0.429  -0.134  0.00  0.00    +0.047 A 
ATOM     23  C   UNL     1       6.052  -1.287   0.948  0.00  0.00    +0.027 A 
BRANCH  21  24
ATOM     24  O   UNL     1       4.820   0.842  -1.733  0.00  0.00    -0.489 OA
BRANCH  24  25
ATOM     25  C   UNL     1       6.087   1.261  -2.243  0.00  0.00    +0.258 C 
BRANCH  25  26
ATOM     26  C   UNL     1       5.874   2.206  -3.427  0.00  0.00    +0.135 C 
BRANCH  26  27
ATOM     27  O   UNL     1       5.236   3.401  -2.972  0.00  0.00    -0.390 OA
ATOM     28  H   UNL     1       5.740   3.888  -2.306  0.00  0.00    +0.210 HD
ENDBRANCH  26  27
BRANCH  26  29
ATOM     29  C   UNL     1       7.226   2.556  -4.051  0.00  0.00    -0.045 C 
BRANCH  29  30
ATOM     30  N   UNL     1       7.022   3.464  -5.187  0.00  0.00    +0.378 N 
ATOM     31  C   UNL     1       8.325   3.894  -5.711  0.00  0.00    -0.096 C 
ATOM     32  C   UNL     1       6.275   2.766  -6.243  0.00  0.00    -0.096 C 
ATOM     33  H   UNL     1       6.498   4.271  -4.882  0.00  0.00    -0.083 HD
ENDBRANCH  29  30
ENDBRANCH  26  29
ENDBRANCH  25  26
ENDBRANCH  24  25
ENDBRANCH  21  24
ENDBRANCH  16  18
ENDBRANCH   4  16
BRANCH   1  34
ATOM     34  C   UNL     1       8.041  -3.897   7.657  0.00  0.00    +0.230 C 
BRANCH  34  35
ATOM     35  C   UNL     1       9.337  -4.492   7.293  0.00  0.00    +0.082 C 
ATOM     36  N   UNL     1      10.337  -4.952   7.012  0.00  0.00    -0.195 NA
ENDBRANCH  34  35
ENDBRANCH   1  34
TORSDOF 11
