REMARK  Name = CHEMBL522891
REMARK  3 active torsions:
REMARK  status: ('A' for Active; 'I' for Inactive)
REMARK    1  A    between atoms: C_4  and  C_7
REMARK    2  A    between atoms: N_9  and  C_10
REMARK    3  A    between atoms: C_15  and  C_16
REMARK                            x       y       z     vdW  Elec       q    Type
REMARK                         _______ _______ _______ _____ _____    ______ ____
ROOT
ATOM      1  C   UNL     1       4.941  -2.712  -0.061  0.00  0.00    +0.082 A 
ATOM      2  C   UNL     1       6.212  -2.128  -0.070  0.00  0.00    +0.158 A 
ATOM      3  N   UNL     1       7.112  -3.078  -0.084  0.00  0.00    -0.180 NA
ATOM      4  H   UNL     1       6.894  -5.188  -0.092  0.00  0.00    +0.189 HD
ATOM      5  N   UNL     1       6.463  -4.319  -0.084  0.00  0.00    -0.272 N 
ATOM      6  C   UNL     1       5.114  -4.087  -0.064  0.00  0.00    +0.122 A 
ENDROOT
BRANCH   6   7
ATOM      7  C   UNL     1       4.051  -5.103  -0.053  0.00  0.00    +0.159 A 
ATOM      8  N   UNL     1       4.255  -6.459  -0.051  0.00  0.00    -0.337 N 
ATOM      9  H   UNL     1       5.113  -6.912  -0.057  0.00  0.00    +0.167 HD
ATOM     10  C   UNL     1       3.010  -7.059  -0.038  0.00  0.00    +0.067 A 
ATOM     11  C   UNL     1       2.577  -8.377  -0.031  0.00  0.00    +0.028 A 
ATOM     12  C   UNL     1       1.226  -8.653  -0.018  0.00  0.00    +0.002 A 
ATOM     13  C   UNL     1       0.297  -7.622  -0.013  0.00  0.00    +0.002 A 
ATOM     14  C   UNL     1       0.704  -6.318  -0.020  0.00  0.00    +0.030 A 
ATOM     15  C   UNL     1       2.069  -6.013  -0.032  0.00  0.00    +0.090 A 
ATOM     16  N   UNL     1       2.762  -4.849  -0.036  0.00  0.00    -0.226 NA
ENDBRANCH   6   7
BRANCH   1  19
ATOM     17  C   UNL     1       3.695  -0.684  -0.037  0.00  0.00    +0.248 C 
ATOM     18  O   UNL     1       4.738  -0.060  -0.044  0.00  0.00    -0.270 OA
ATOM     19  N   UNL     1       3.717  -2.032  -0.045  0.00  0.00    -0.278 N 
ATOM     20  H   UNL     1       2.885  -2.530  -0.039  0.00  0.00    +0.155 HD
BRANCH  17  24
ATOM     21  C   UNL     1      -0.017   1.379   0.010  0.00  0.00    +0.000 A 
ATOM     22  C   UNL     1       1.168   2.094   0.002  0.00  0.00    +0.001 A 
ATOM     23  C   UNL     1       2.377   1.429  -0.013  0.00  0.00    +0.013 A 
ATOM     24  C   UNL     1       2.404   0.034  -0.021  0.00  0.00    +0.037 A 
ATOM     25  C   UNL     1       1.204  -0.681  -0.013  0.00  0.00    +0.013 A 
ATOM     26  C   UNL     1       0.002  -0.004   0.002  0.00  0.00    +0.001 A 
ENDBRANCH  17  24
ENDBRANCH   1  19
TORSDOF 3
