REMARK  Name = CHEMBL421207
REMARK  2 active torsions:
REMARK  status: ('A' for Active; 'I' for Inactive)
REMARK    1  A    between atoms: C_3  and  C_6
REMARK    2  A    between atoms: C_17  and  C_19
REMARK                            x       y       z     vdW  Elec       q    Type
REMARK                         _______ _______ _______ _____ _____    ______ ____
ROOT
ATOM      1  C   UNL     1       3.573   0.619  -0.029  0.00  0.00    +0.019 A 
ATOM      2  C   UNL     1       4.300   1.819  -0.025  0.00  0.00    +0.012 A 
ATOM      3  C   UNL     1       5.662   1.801  -0.039  0.00  0.00    +0.014 A 
ATOM      4  C   UNL     1       6.346   0.580  -0.058  0.00  0.00    +0.042 A 
ATOM      5  C   UNL     1       5.626  -0.631  -0.062  0.00  0.00    +0.068 A 
ATOM      6  C   UNL     1       4.236  -0.603  -0.042  0.00  0.00    +0.039 A 
ATOM      7  N   UNL     1       6.551  -1.643  -0.082  0.00  0.00    -0.275 N 
ATOM      8  H   UNL     1       6.347  -2.592  -0.089  0.00  0.00    +0.189 HD
ATOM      9  N   UNL     1       7.836  -1.091  -0.090  0.00  0.00    -0.157 NA
ATOM     10  C   UNL     1       7.762   0.214  -0.076  0.00  0.00    +0.154 A 
ATOM     11  N   UNL     1       8.844   1.102  -0.079  0.00  0.00    -0.268 N 
ATOM     12  C   UNL     1      10.105   0.627  -0.097  0.00  0.00    +0.221 C 
ATOM     13  O   UNL     1      10.303  -0.570  -0.111  0.00  0.00    -0.275 OA
ATOM     14  H   UNL     1       8.686   2.059  -0.068  0.00  0.00    +0.156 HD
ENDROOT
BRANCH   1  17
ATOM     15  C   UNL     1      -0.016   1.343   0.009  0.00  0.00    +0.042 A 
ATOM     16  C   UNL     1       1.325   1.774  -0.001  0.00  0.00    +0.050 A 
ATOM     17  C   UNL     1       2.097   0.654  -0.014  0.00  0.00    +0.135 A 
ATOM     18  O   UNL     1       1.280  -0.417  -0.012  0.00  0.00    -0.463 OA
ATOM     19  C   UNL     1       0.002  -0.004   0.002  0.00  0.00    +0.196 A 
ENDBRANCH   1  17
BRANCH  12  20
ATOM     20  C   UNL     1      11.270   1.583  -0.100  0.00  0.00    +0.075 C 
ATOM     21  C   UNL     1      12.117   1.661  -1.372  0.00  0.00    +0.013 C 
ATOM     22  C   UNL     1      12.677   0.982  -0.121  0.00  0.00    +0.013 C 
ENDBRANCH  12  20
TORSDOF 2
