REMARK  Name = CHEMBL179511
REMARK  3 active torsions:
REMARK  status: ('A' for Active; 'I' for Inactive)
REMARK    1  A    between atoms: C_3  and  N_12
REMARK    2  A    between atoms: C_6  and  C_7
REMARK    3  A    between atoms: C_15  and  C_17
REMARK                            x       y       z     vdW  Elec       q    Type
REMARK                         _______ _______ _______ _____ _____    ______ ____
ROOT
ATOM      1  N   UNL     1       3.582   2.134  -0.021  0.00  0.00    -0.231 N 
ATOM      2  C   UNL     1       4.699   1.819   0.661  0.00  0.00    +0.082 A 
ATOM      3  C   UNL     1       5.670   2.750   0.356  0.00  0.00    +0.011 A 
ATOM      4  C   UNL     1       5.089   3.681  -0.514  0.00  0.00    +0.151 A 
ATOM      5  N   UNL     1       3.840   3.309  -0.748  0.00  0.00    -0.161 NA
ATOM      6  C   UNL     1       7.079   2.678   0.877  0.00  0.00    +0.046 C 
ATOM      7  C   UNL     1       7.140   2.049   2.269  0.00  0.00    +0.063 C 
ATOM      8  C   UNL     1       6.240   0.845   2.363  0.00  0.00    +0.072 A 
ATOM      9  C   UNL     1       5.036   0.734   1.603  0.00  0.00    +0.041 A 
ATOM     10  C   UNL     1       4.437  -0.423   1.933  0.00  0.00    +0.115 A 
ATOM     11  N   UNL     1       5.229  -1.043   2.840  0.00  0.00    -0.284 N 
ATOM     12  H   UNL     1       5.054  -1.903   3.253  0.00  0.00    +0.188 HD
ATOM     13  N   UNL     1       6.346  -0.228   3.081  0.00  0.00    -0.178 NA
ENDROOT
BRANCH   1  16
ATOM     14  C   UNL     1       0.688   0.225   1.197  0.00  0.00    +0.013 A 
ATOM     15  C   UNL     1       1.871   0.932   1.186  0.00  0.00    +0.028 A 
ATOM     16  C   UNL     1       2.381   1.417  -0.013  0.00  0.00    +0.066 A 
ATOM     17  C   UNL     1       1.700   1.191  -1.204  0.00  0.00    +0.028 A 
ATOM     18  C   UNL     1       0.516   0.486  -1.199  0.00  0.00    +0.013 A 
ATOM     19  C   UNL     1       0.002  -0.003   0.003  0.00  0.00    +0.016 A 
BRANCH  19  20
ATOM     20  C   UNL     1      -1.268  -0.761   0.012  0.00  0.00    +0.116 A 
ATOM     21  N   UNL     1      -1.862  -1.272   1.090  0.00  0.00    -0.346 N 
ATOM     22  C   UNL     1      -2.993  -1.889   0.693  0.00  0.00    +0.102 A 
ATOM     23  C   UNL     1      -3.085  -1.750  -0.646  0.00  0.00    +0.102 A 
ATOM     24  N   UNL     1      -2.013  -1.044  -1.057  0.00  0.00    -0.346 N 
ATOM     25  H   UNL     1      -1.816  -0.788  -1.972  0.00  0.00    +0.167 HD
ATOM     26  H   UNL     1      -1.537  -1.211   2.002  0.00  0.00    +0.167 HD
ENDBRANCH  19  20
ENDBRANCH   1  16
BRANCH   4  27
ATOM     27  C   UNL     1       5.757   4.871  -1.078  0.00  0.00    +0.262 C 
ATOM     28  O   UNL     1       6.914   5.111  -0.793  0.00  0.00    -0.269 OA
ATOM     29  N   UNL     1       5.083   5.692  -1.907  0.00  0.00    -0.324 N 
ATOM     30  H   UNL     1       4.159   5.501  -2.134  0.00  0.00    +0.145 HD
ATOM     31  H   UNL     1       5.521   6.474  -2.278  0.00  0.00    +0.145 HD
ENDBRANCH   4  27
TORSDOF 3
