REMARK  Name = CHEMBL364767
REMARK  5 active torsions:
REMARK  status: ('A' for Active; 'I' for Inactive)
REMARK    1  A    between atoms: C_1  and  C_2
REMARK    2  A    between atoms: C_3  and  C_12
REMARK    3  A    between atoms: C_4  and  C_11
REMARK    4  A    between atoms: C_7  and  N_8
REMARK    5  A    between atoms: N_18  and  C_19
REMARK                            x       y       z     vdW  Elec       q    Type
REMARK                         _______ _______ _______ _____ _____    ______ ____
ROOT
ATOM      1  C   UNL     1       0.396  -0.436  -2.575  0.00  0.00    +0.078 A 
ATOM      2  C   UNL     1       0.694  -1.363  -3.580  0.00  0.00    +0.048 A 
ATOM      3  C   UNL     1       0.719  -0.927  -4.891  0.00  0.00    +0.116 A 
ATOM      4  N   UNL     1       0.462   0.344  -5.157  0.00  0.00    -0.223 NA
ATOM      5  C   UNL     1       0.183   1.202  -4.186  0.00  0.00    +0.220 A 
ATOM      6  N   UNL     1       0.143   0.826  -2.917  0.00  0.00    -0.214 NA
ATOM      7  N   UNL     1      -0.079   2.523  -4.507  0.00  0.00    -0.284 N 
ATOM      8  H   UNL     1      -0.211   3.177  -3.803  0.00  0.00    +0.155 HD
ENDROOT
BRANCH   1  11
ATOM      9  C   UNL     1       2.599  -2.191  -1.069  0.00  0.00    +0.048 C 
ATOM     10  C   UNL     1       1.331  -1.632  -0.477  0.00  0.00    +0.007 A 
ATOM     11  C   UNL     1       0.357  -0.853  -1.155  0.00  0.00    +0.026 A 
ATOM     12  C   UNL     1      -0.620  -0.561  -0.251  0.00  0.00    +0.024 A 
ATOM     13  N   UNL     1      -0.279  -1.128   0.935  0.00  0.00    -0.339 N 
ATOM     14  H   UNL     1      -0.799  -1.077   1.753  0.00  0.00    +0.167 HD
ATOM     15  C   UNL     1       0.909  -1.785   0.791  0.00  0.00    +0.197 A 
ATOM     16  C   UNL     1      -1.861   0.249  -0.521  0.00  0.00    +0.064 C 
BRANCH  15  17
ATOM     17  N   UNL     1       1.615  -2.537   1.853  0.00  0.00    +0.074 N 
ATOM     18  O   UNL     1       1.139  -2.607   2.962  0.00  0.00    -0.125 OA
ATOM     19  O   UNL     1       2.667  -3.080   1.611  0.00  0.00    -0.125 OA
ENDBRANCH  15  17
ENDBRANCH   1  11
BRANCH   7  20
ATOM     20  C   UNL     1      -0.154   2.916  -5.848  0.00  0.00    +0.034 A 
ATOM     21  C   UNL     1      -0.649   2.038  -6.803  0.00  0.00    +0.026 A 
ATOM     22  C   UNL     1      -0.723   2.427  -8.126  0.00  0.00    +0.040 A 
ATOM     23  C   UNL     1      -0.302   3.692  -8.501  0.00  0.00    +0.124 A 
ATOM     24  C   UNL     1       0.192   4.569  -7.550  0.00  0.00    +0.040 A 
ATOM     25  C   UNL     1       0.262   4.186  -6.225  0.00  0.00    +0.026 A 
ATOM     26  F   UNL     1      -0.374   4.071  -9.796  0.00  0.00    -0.205 F 
ENDBRANCH   7  20
TORSDOF 3
