REMARK  Name = CHEMBL363130
REMARK  5 active torsions:
REMARK  status: ('A' for Active; 'I' for Inactive)
REMARK    1  A    between atoms: C_1  and  C_2
REMARK    2  A    between atoms: C_6  and  C_7
REMARK    3  A    between atoms: N_14  and  C_15
REMARK    4  A    between atoms: C_18  and  S_21
REMARK    5  A    between atoms: S_21  and  N_24
REMARK                            x       y       z     vdW  Elec       q    Type
REMARK                         _______ _______ _______ _____ _____    ______ ____
ROOT
ATOM      1  C   UNL     1      -0.544  -0.311   2.606  0.00  0.00    +0.288 C 
ATOM      2  O   UNL     1      -0.584   0.881   2.850  0.00  0.00    -0.265 OA
ATOM      3  N   UNL     1      -0.327  -1.195   3.600  0.00  0.00    -0.161 N 
ATOM      4  C   UNL     1      -0.141  -0.913   4.920  0.00  0.00    +0.220 A 
ATOM      5  N   UNL     1       0.037  -2.051   5.553  0.00  0.00    -0.180 NA
ATOM      6  C   UNL     1      -0.028  -3.067   4.684  0.00  0.00    +0.241 A 
ATOM      7  N   UNL     1      -0.254  -2.593   3.482  0.00  0.00    -0.124 NA
ATOM      8  N   UNL     1       0.117  -4.415   5.005  0.00  0.00    -0.282 N 
ATOM      9  N   UNL     1      -0.140   0.344   5.490  0.00  0.00    -0.327 N 
ATOM     10  H   UNL     1       0.134  -5.083   4.301  0.00  0.00    +0.155 HD
ATOM     11  H   UNL     1      -0.280   1.128   4.937  0.00  0.00    +0.145 HD
ATOM     12  H   UNL     1       0.003   0.443   6.445  0.00  0.00    +0.145 HD
ENDROOT
BRANCH   1  18
ATOM     13  C   UNL     1      -1.062   1.456   0.093  0.00  0.00    +0.045 C 
ATOM     14  C   UNL     1      -0.964  -0.048   0.080  0.00  0.00    -0.031 A 
ATOM     15  C   UNL     1      -1.094  -0.779  -1.076  0.00  0.00    +0.012 A 
ATOM     16  C   UNL     1      -0.995  -2.130  -1.017  0.00  0.00    +0.046 A 
ATOM     17  S   UNL     1      -0.723  -2.453   0.609  0.00  0.00    -0.092 S 
ATOM     18  C   UNL     1      -0.732  -0.783   1.234  0.00  0.00    +0.081 A 
ENDBRANCH   1  18
BRANCH   8  19
ATOM     19  C   UNL     1       0.238  -4.806   6.341  0.00  0.00    +0.034 A 
ATOM     20  C   UNL     1      -0.365  -4.056   7.343  0.00  0.00    +0.025 A 
ATOM     21  C   UNL     1      -0.244  -4.446   8.662  0.00  0.00    +0.030 A 
ATOM     22  C   UNL     1       0.477  -5.581   8.987  0.00  0.00    +0.105 A 
ATOM     23  C   UNL     1       1.079  -6.329   7.992  0.00  0.00    +0.030 A 
ATOM     24  C   UNL     1       0.957  -5.949   6.670  0.00  0.00    +0.025 A 
BRANCH  22  25
ATOM     25  S   UNL     1       0.629  -6.073  10.672  0.00  0.00    +0.056 S 
ATOM     26  O   UNL     1       1.808  -6.862  10.759  0.00  0.00    -0.153 OA
ATOM     27  O   UNL     1       0.434  -4.904  11.456  0.00  0.00    -0.153 OA
BRANCH  25  28
ATOM     28  N   UNL     1      -0.641  -7.083  11.003  0.00  0.00    -0.204 NA
ATOM     29  H   UNL     1      -0.543  -7.784  11.666  0.00  0.00    +0.144 HD
ATOM     30  H   UNL     1      -1.483  -6.973  10.535  0.00  0.00    +0.144 HD
ENDBRANCH  25  28
ENDBRANCH  22  25
ENDBRANCH   8  19
TORSDOF 4
