REMARK  Name = CHEMBL482193
REMARK  10 active torsions:
REMARK  status: ('A' for Active; 'I' for Inactive)
REMARK    1  A    between atoms: C_1  and  C_2
REMARK    2  A    between atoms: C_2  and  CA_3
REMARK    3  A    between atoms: CA_3  and  C_5
REMARK    4  A    between atoms: CA_3  and  N_7
REMARK    5  A    between atoms: C_5  and  O_6
REMARK    6  A    between atoms: C_11  and  C_25
REMARK    7  A    between atoms: N_17  and  C_18
REMARK    8  A    between atoms: C_18  and  C_19
REMARK    9  A    between atoms: C_25  and  C_26
REMARK   10  A    between atoms: C_25  and  C_27
REMARK                            x       y       z     vdW  Elec       q    Type
REMARK                         _______ _______ _______ _____ _____    ______ ____
ROOT
ATOM      1  N   UNL     1       2.125  -0.091  -1.209  0.00  0.00    -0.310 N 
ATOM      2  C   UNL     1       2.841   0.055  -2.381  0.00  0.00    +0.198 A 
ATOM      3  N   UNL     1       4.111   0.417  -2.325  0.00  0.00    -0.312 N 
ATOM      4  C   UNL     1       4.819   0.563  -3.458  0.00  0.00    +0.143 A 
ATOM      5  C   UNL     1       6.128   0.921  -3.725  0.00  0.00    +0.017 A 
ATOM      6  C   UNL     1       6.295   0.902  -5.106  0.00  0.00    +0.141 A 
ATOM      7  N   UNL     1       5.162   0.554  -5.668  0.00  0.00    -0.170 NA
ATOM      8  N   UNL     1       4.211   0.333  -4.668  0.00  0.00    -0.185 N 
ATOM      9  C   UNL     1       2.894  -0.041  -4.689  0.00  0.00    +0.221 A 
ATOM     10  N   UNL     1       2.240  -0.177  -3.553  0.00  0.00    -0.183 NA
ATOM     11  N   UNL     1       2.263  -0.277  -5.883  0.00  0.00    -0.309 N 
ATOM     12  H   UNL     1       2.553   0.075  -0.355  0.00  0.00    +0.149 HD
ATOM     13  H   UNL     1       2.750  -0.180  -6.716  0.00  0.00    +0.149 HD
ATOM     14  H   UNL     1       4.532   0.577  -1.466  0.00  0.00    +0.170 HD
ENDROOT
BRANCH   5  15
ATOM     15  C   UNL     1       7.181   1.268  -2.705  0.00  0.00    +0.018 C 
ATOM     16  C   UNL     1       8.355   0.295  -2.832  0.00  0.00    +0.012 C 
ATOM     17  C   UNL     1       7.675   2.696  -2.947  0.00  0.00    +0.012 C 
ENDBRANCH   5  15
BRANCH   1  18
ATOM     18  CA  UNL     1       0.718  -0.497  -1.257  0.00  0.00    +0.098 C 
BRANCH  18  20
ATOM     19  C   UNL     1      -0.019   1.526   0.010  0.00  0.00    +0.006 C 
ATOM     20  C   UNL     1       0.002  -0.004   0.002  0.00  0.00    +0.021 C 
ENDBRANCH  18  20
BRANCH  18  21
ATOM     21  C   UNL     1       0.630  -2.023  -1.329  0.00  0.00    +0.178 C 
BRANCH  21  22
ATOM     22  O   UNL     1       1.146  -2.587  -0.121  0.00  0.00    -0.393 OA
ATOM     23  H   UNL     1       1.122  -3.554  -0.097  0.00  0.00    +0.209 HD
ENDBRANCH  21  22
ENDBRANCH  18  21
ENDBRANCH   1  18
BRANCH  11  24
ATOM     24  C   UNL     1       0.854  -0.677  -5.899  0.00  0.00    +0.139 C 
BRANCH  24  25
ATOM     25  C   UNL     1       0.404  -0.873  -7.324  0.00  0.00    -0.030 A 
ATOM     26  C   UNL     1      -0.122   0.190  -8.035  0.00  0.00    +0.005 A 
ATOM     27  C   UNL     1      -0.535   0.010  -9.342  0.00  0.00    +0.000 A 
ATOM     28  C   UNL     1      -0.420  -1.232  -9.939  0.00  0.00    +0.000 A 
ATOM     29  C   UNL     1       0.107  -2.294  -9.228  0.00  0.00    +0.000 A 
ATOM     30  C   UNL     1       0.523  -2.113  -7.922  0.00  0.00    +0.005 A 
ENDBRANCH  24  25
ENDBRANCH  11  24
TORSDOF 7
