REMARK  Name = CHEMBL359200
REMARK  7 active torsions:
REMARK  status: ('A' for Active; 'I' for Inactive)
REMARK    1  A    between atoms: C_1  and  C_2
REMARK    2  A    between atoms: C_2  and  C_3
REMARK    3  A    between atoms: C_2  and  C_4
REMARK    4  A    between atoms: C_14  and  N_18
REMARK    5  A    between atoms: C_19  and  C_21
REMARK    6  A    between atoms: C_21  and  N_22
REMARK    7  A    between atoms: C_25  and  C_28
REMARK                            x       y       z     vdW  Elec       q    Type
REMARK                         _______ _______ _______ _____ _____    ______ ____
ROOT
ATOM      1  C   UNL     1      -1.151  -2.788   0.895  0.00  0.00    +0.077 A 
ATOM      2  C   UNL     1      -1.809  -2.979  -0.333  0.00  0.00    +0.071 A 
ATOM      3  C   UNL     1      -3.169  -2.815  -0.104  0.00  0.00    +0.078 A 
ATOM      4  N   UNL     1      -3.320  -2.537   1.208  0.00  0.00    -0.276 N 
ATOM      5  H   UNL     1      -4.162  -2.373   1.661  0.00  0.00    +0.189 HD
ATOM      6  N   UNL     1      -2.054  -2.532   1.806  0.00  0.00    -0.177 NA
ATOM      7  C   UNL     1      -3.898  -3.009  -1.380  0.00  0.00    +0.013 A 
ATOM      8  C   UNL     1      -5.248  -2.956  -1.696  0.00  0.00    +0.011 A 
ATOM      9  C   UNL     1      -5.670  -3.182  -3.000  0.00  0.00    +0.002 A 
ATOM     10  C   UNL     1      -4.758  -3.462  -3.993  0.00  0.00    +0.024 A 
ATOM     11  C   UNL     1      -3.394  -3.520  -3.697  0.00  0.00    +0.045 A 
ATOM     12  C   UNL     1      -2.961  -3.294  -2.391  0.00  0.00    +0.053 A 
ATOM     13  C   UNL     1      -1.618  -3.285  -1.768  0.00  0.00    +0.199 C 
ATOM     14  O   UNL     1      -0.560  -3.490  -2.329  0.00  0.00    -0.286 OA
ENDROOT
BRANCH  11  15
ATOM     15  N   UNL     1      -2.473  -3.803  -4.699  0.00  0.00    -0.286 N 
ATOM     16  C   UNL     1      -2.797  -4.656  -5.691  0.00  0.00    +0.201 C 
ATOM     17  O   UNL     1      -3.918  -5.114  -5.755  0.00  0.00    -0.278 OA
ATOM     18  H   UNL     1      -1.597  -3.386  -4.685  0.00  0.00    +0.155 HD
BRANCH  16  19
ATOM     19  C   UNL     1      -1.766  -5.042  -6.721  0.00  0.00    +0.019 C 
BRANCH  19  20
ATOM     20  N   UNL     1      -2.363  -5.975  -7.686  0.00  0.00    +0.385 N 
ATOM     21  C   UNL     1      -2.723  -7.221  -7.000  0.00  0.00    -0.077 C 
ATOM     22  C   UNL     1      -3.419  -8.166  -7.982  0.00  0.00    -0.006 C 
ATOM     23  C   UNL     1      -2.469  -8.476  -9.143  0.00  0.00    +0.071 C 
ATOM     24  C   UNL     1      -2.041  -7.163  -9.804  0.00  0.00    -0.006 C 
ATOM     25  C   UNL     1      -1.396  -6.256  -8.754  0.00  0.00    -0.077 C 
ATOM     26  H   UNL     1      -3.192  -5.561  -8.084  0.00  0.00    -0.081 HD
BRANCH  23  27
ATOM     27  C   UNL     1      -3.174  -9.343 -10.154  0.00  0.00    +0.213 C 
ATOM     28  O   UNL     1      -4.324  -9.681  -9.966  0.00  0.00    -0.276 OA
ATOM     29  N   UNL     1      -2.528  -9.744 -11.266  0.00  0.00    -0.329 N 
ATOM     30  H   UNL     1      -1.608  -9.474 -11.416  0.00  0.00    +0.145 HD
ATOM     31  H   UNL     1      -2.982 -10.302 -11.917  0.00  0.00    +0.145 HD
ENDBRANCH  23  27
ENDBRANCH  19  20
ENDBRANCH  16  19
ENDBRANCH  11  15
BRANCH   1  33
ATOM     32  C   UNL     1       0.845  -1.531   1.659  0.00  0.00    +0.014 C 
ATOM     33  C   UNL     1       0.336  -2.871   1.123  0.00  0.00    +0.034 C 
ATOM     34  C   UNL     1       0.635  -3.974   2.140  0.00  0.00    +0.014 C 
ENDBRANCH   1  33
TORSDOF 5
