REMARK  Name = CHEMBL254171
REMARK  4 active torsions:
REMARK  status: ('A' for Active; 'I' for Inactive)
REMARK    1  A    between atoms: C_3  and  C_28
REMARK    2  A    between atoms: C_6  and  C_7
REMARK    3  A    between atoms: C_7  and  C_8
REMARK    4  A    between atoms: C_14  and  N_21
REMARK                            x       y       z     vdW  Elec       q    Type
REMARK                         _______ _______ _______ _____ _____    ______ ____
ROOT
ATOM      1  C   UNL     1      -1.740  -1.021  -1.408  0.00  0.00    +0.223 C 
ATOM      2  O   UNL     1      -1.071  -0.614  -2.334  0.00  0.00    -0.275 OA
ATOM      3  N   UNL     1      -2.882  -1.695  -1.647  0.00  0.00    -0.268 N 
ATOM      4  C   UNL     1      -3.296  -1.926  -2.964  0.00  0.00    +0.154 A 
ATOM      5  C   UNL     1      -4.509  -2.634  -3.376  0.00  0.00    +0.043 A 
ATOM      6  C   UNL     1      -5.554  -3.253  -2.683  0.00  0.00    +0.038 A 
ATOM      7  C   UNL     1      -6.580  -3.849  -3.390  0.00  0.00    +0.052 A 
ATOM      8  C   UNL     1      -6.575  -3.833  -4.785  0.00  0.00    +0.027 A 
ATOM      9  C   UNL     1      -5.560  -3.232  -5.473  0.00  0.00    +0.029 A 
ATOM     10  C   UNL     1      -4.514  -2.624  -4.783  0.00  0.00    +0.068 A 
ATOM     11  N   UNL     1      -3.381  -1.956  -5.179  0.00  0.00    -0.275 N 
ATOM     12  H   UNL     1      -3.117  -1.792  -6.098  0.00  0.00    +0.189 HD
ATOM     13  N   UNL     1      -2.672  -1.544  -4.046  0.00  0.00    -0.157 NA
ATOM     14  H   UNL     1      -3.417  -2.021  -0.906  0.00  0.00    +0.156 HD
ENDROOT
BRANCH   7  15
ATOM     15  N   UNL     1      -7.629  -4.471  -2.704  0.00  0.00    -0.207 N 
ATOM     16  C   UNL     1      -7.590  -5.031  -1.341  0.00  0.00    +0.133 C 
ATOM     17  C   UNL     1      -8.979  -4.957  -0.679  0.00  0.00    +0.045 C 
ATOM     18  C   UNL     1      -9.973  -5.461  -1.768  0.00  0.00    +0.190 C 
ATOM     19  S   UNL     1      -9.189  -4.726  -3.261  0.00  0.00    +0.046 S 
ATOM     20  O   UNL     1      -9.715  -3.432  -3.523  0.00  0.00    -0.155 OA
ATOM     21  O   UNL     1      -9.070  -5.696  -4.293  0.00  0.00    -0.155 OA
ENDBRANCH   7  15
BRANCH   1  22
ATOM     22  C   UNL     1      -1.294  -0.772   0.010  0.00  0.00    +0.131 C 
BRANCH  22  28
ATOM     23  C   UNL     1      -0.017   1.379   0.010  0.00  0.00    +0.005 A 
ATOM     24  C   UNL     1       1.167   2.088   0.002  0.00  0.00    +0.009 A 
ATOM     25  C   UNL     1       2.384   1.407  -0.013  0.00  0.00    -0.018 A 
ATOM     26  C   UNL     1       2.397   0.014  -0.021  0.00  0.00    +0.009 A 
ATOM     27  C   UNL     1       1.206  -0.684  -0.013  0.00  0.00    +0.005 A 
ATOM     28  C   UNL     1       0.002  -0.004   0.002  0.00  0.00    -0.039 A 
BRANCH  25  29
ATOM     29  C   UNL     1       3.660   2.164  -0.022  0.00  0.00    -0.015 A 
ATOM     30  C   UNL     1       3.666   3.562  -0.009  0.00  0.00    +0.028 A 
ATOM     31  C   UNL     1       4.875   4.226  -0.018  0.00  0.00    +0.111 A 
ATOM     32  N   UNL     1       6.014   3.559  -0.038  0.00  0.00    -0.263 NA
ATOM     33  C   UNL     1       6.052   2.241  -0.050  0.00  0.00    +0.111 A 
ATOM     34  C   UNL     1       4.889   1.498  -0.037  0.00  0.00    +0.028 A 
ENDBRANCH  25  29
ENDBRANCH  22  28
ENDBRANCH   1  22
TORSDOF 4
