REMARK  Name = CHEMBL103039
REMARK  6 active torsions:
REMARK  status: ('A' for Active; 'I' for Inactive)
REMARK    1  A    between atoms: C_3  and  C_13
REMARK    2  A    between atoms: C_5  and  N_7
REMARK    3  A    between atoms: C_15  and  N_19
REMARK    4  A    between atoms: N_19  and  C_20
REMARK    5  A    between atoms: C_23  and  S_26
REMARK    6  A    between atoms: S_26  and  N_29
REMARK                            x       y       z     vdW  Elec       q    Type
REMARK                         _______ _______ _______ _____ _____    ______ ____
ROOT
ATOM      1  C   UNL     1       3.961   2.124  -0.050  0.00  0.00    +0.094 A 
ATOM      2  C   UNL     1       4.116   3.518   0.058  0.00  0.00    +0.073 A 
ATOM      3  C   UNL     1       5.449   3.789   0.053  0.00  0.00    +0.119 A 
ATOM      4  N   UNL     1       6.110   2.607  -0.054  0.00  0.00    -0.263 N 
ATOM      5  N   UNL     1       5.158   1.581  -0.112  0.00  0.00    -0.172 NA
ATOM      6  H   UNL     1       7.073   2.493  -0.083  0.00  0.00    +0.190 HD
ENDROOT
BRANCH   1   9
ATOM      7  C   UNL     1       0.268   1.414  -0.137  0.00  0.00    +0.002 A 
ATOM      8  C   UNL     1       1.468   2.096  -0.106  0.00  0.00    +0.010 A 
ATOM      9  C   UNL     1       2.670   1.392  -0.082  0.00  0.00    +0.004 A 
ATOM     10  C   UNL     1       2.657  -0.000  -0.087  0.00  0.00    +0.033 A 
ATOM     11  C   UNL     1       1.448  -0.679  -0.118  0.00  0.00    +0.030 A 
ATOM     12  C   UNL     1       0.254   0.032  -0.142  0.00  0.00    +0.023 A 
BRANCH  11  13
ATOM     13  N   UNL     1       1.430  -2.075  -0.124  0.00  0.00    -0.325 N 
ATOM     14  C   UNL     1       2.679  -2.848  -0.217  0.00  0.00    +0.133 C 
ATOM     15  C   UNL     1       2.685  -3.895   0.903  0.00  0.00    +0.178 C 
ATOM     16  O   UNL     1       1.468  -4.645   0.853  0.00  0.00    -0.377 OA
ATOM     17  C   UNL     1       0.291  -3.865   1.075  0.00  0.00    +0.178 C 
ATOM     18  C   UNL     1       0.163  -2.817  -0.031  0.00  0.00    +0.133 C 
ENDBRANCH  11  13
ENDBRANCH   1   9
BRANCH   3  19
ATOM     19  N   UNL     1       6.031   5.051   0.141  0.00  0.00    -0.300 N 
ATOM     20  H   UNL     1       5.478   5.830   0.306  0.00  0.00    +0.154 HD
BRANCH  19  21
ATOM     21  C   UNL     1       7.413   5.195  -0.009  0.00  0.00    +0.032 A 
ATOM     22  C   UNL     1       8.105   4.381  -0.897  0.00  0.00    +0.025 A 
ATOM     23  C   UNL     1       9.471   4.526  -1.042  0.00  0.00    +0.030 A 
ATOM     24  C   UNL     1      10.149   5.480  -0.306  0.00  0.00    +0.105 A 
ATOM     25  C   UNL     1       9.463   6.292   0.579  0.00  0.00    +0.030 A 
ATOM     26  C   UNL     1       8.096   6.156   0.725  0.00  0.00    +0.025 A 
BRANCH  24  27
ATOM     27  S   UNL     1      11.891   5.661  -0.495  0.00  0.00    +0.056 S 
ATOM     28  O   UNL     1      12.371   6.252   0.705  0.00  0.00    -0.153 OA
ATOM     29  O   UNL     1      12.379   4.417  -0.979  0.00  0.00    -0.153 OA
BRANCH  27  30
ATOM     30  N   UNL     1      12.140   6.769  -1.701  0.00  0.00    -0.204 NA
ATOM     31  H   UNL     1      12.931   7.330  -1.688  0.00  0.00    +0.144 HD
ATOM     32  H   UNL     1      11.495   6.856  -2.420  0.00  0.00    +0.144 HD
ENDBRANCH  27  30
ENDBRANCH  24  27
ENDBRANCH  19  21
ENDBRANCH   3  19
TORSDOF 6
