REMARK  Name = CHEMBL126328
REMARK  6 active torsions:
REMARK  status: ('A' for Active; 'I' for Inactive)
REMARK    1  A    between atoms: C_1  and  C_2
REMARK    2  A    between atoms: C_8  and  S_10
REMARK    3  A    between atoms: S_10  and  C_11
REMARK    4  A    between atoms: C_11  and  C_12
REMARK    5  A    between atoms: C_15  and  C_17
REMARK    6  A    between atoms: C_17  and  C_18
REMARK                            x       y       z     vdW  Elec       q    Type
REMARK                         _______ _______ _______ _____ _____    ______ ____
ROOT
ATOM      1  C   UNL     1       0.065  -6.239  -3.985  0.00  0.00    +0.170 C 
ENDROOT
BRANCH   1   2
ATOM      2  C   UNL     1       0.082  -7.617  -4.594  0.00  0.00    +0.206 A 
ATOM      3  N   UNL     1      -0.968  -8.324  -4.902  0.00  0.00    -0.221 NA
ATOM      4  C   UNL     1      -0.562  -9.495  -5.423  0.00  0.00    +0.156 A 
ATOM      5  C   UNL     1       0.781  -9.495  -5.429  0.00  0.00    +0.126 A 
ATOM      6  O   UNL     1       1.180  -8.316  -4.914  0.00  0.00    -0.444 OA
BRANCH   5   7
ATOM      7  C   UNL     1       1.674 -10.604  -5.924  0.00  0.00    +0.079 C 
BRANCH   7   8
ATOM      8  C   UNL     1       1.970 -10.395  -7.411  0.00  0.00    -0.004 C 
ATOM      9  C   UNL     1       0.674 -10.531  -8.213  0.00  0.00    +0.004 C 
ATOM     10  C   UNL     1       0.970 -10.322  -9.699  0.00  0.00    +0.000 C 
ATOM     11  C   UNL     1       1.975 -11.375 -10.172  0.00  0.00    +0.000 C 
ATOM     12  C   UNL     1       3.271 -11.239  -9.370  0.00  0.00    +0.000 C 
ATOM     13  C   UNL     1       2.975 -11.448  -7.883  0.00  0.00    +0.004 C 
ENDBRANCH   7   8
ENDBRANCH   5   7
ENDBRANCH   1   2
BRANCH   1  14
ATOM     14  S   UNL     1       0.074  -6.378  -2.176  0.00  0.00    -0.107 S 
BRANCH  14  22
ATOM     15  C   UNL     1      -0.018   1.503   0.010  0.00  0.00    +0.109 C 
ATOM     16  C   UNL     1       0.002  -0.004   0.002  0.00  0.00    +0.216 C 
ATOM     17  O   UNL     1       0.020  -0.616   1.049  0.00  0.00    -0.276 OA
ATOM     18  N   UNL     1       0.000  -0.672  -1.169  0.00  0.00    -0.265 N 
ATOM     19  C   UNL     1       0.019  -2.064  -1.177  0.00  0.00    +0.165 A 
ATOM     20  N   UNL     1       0.034  -2.905  -0.160  0.00  0.00    -0.232 NA
ATOM     21  C   UNL     1       0.051  -4.212  -0.351  0.00  0.00    +0.135 A 
ATOM     22  C   UNL     1       0.053  -4.706  -1.620  0.00  0.00    +0.067 A 
ATOM     23  S   UNL     1       0.021  -3.189  -2.566  0.00  0.00    -0.046 S 
ATOM     24  H   UNL     1      -0.015  -0.182  -2.006  0.00  0.00    +0.157 HD
ENDBRANCH  14  22
ENDBRANCH   1  14
TORSDOF 5
