REMARK  Name = CHEMBL407981
REMARK  8 active torsions:
REMARK  status: ('A' for Active; 'I' for Inactive)
REMARK    1  A    between atoms: C_1  and  C_2
REMARK    2  A    between atoms: C_2  and  N_3
REMARK    3  A    between atoms: N_6  and  C_9
REMARK    4  A    between atoms: C_9  and  C_10
REMARK    5  A    between atoms: C_10  and  C_11
REMARK    6  A    between atoms: C_11  and  C_12
REMARK    7  A    between atoms: C_19  and  C_25
REMARK    8  A    between atoms: C_28  and  O_31
REMARK                            x       y       z     vdW  Elec       q    Type
REMARK                         _______ _______ _______ _____ _____    ______ ____
ROOT
ATOM      1  C   UNL     1       4.442  -6.115   4.645  0.00  0.00    +0.218 C 
ATOM      2  O   UNL     1       3.764  -6.704   3.829  0.00  0.00    -0.275 OA
ATOM      3  N   UNL     1       5.153  -6.808   5.556  0.00  0.00    -0.268 N 
ATOM      4  C   UNL     1       5.110  -8.207   5.561  0.00  0.00    +0.156 A 
ATOM      5  C   UNL     1       5.819  -9.090   6.486  0.00  0.00    +0.061 A 
ATOM      6  C   UNL     1       6.688  -8.877   7.564  0.00  0.00    +0.032 A 
ATOM      7  C   UNL     1       7.180  -9.970   8.225  0.00  0.00    +0.045 A 
ATOM      8  C   UNL     1       6.806 -11.253   7.811  0.00  0.00    +0.087 A 
ATOM      9  N   UNL     1       5.984 -11.435   6.790  0.00  0.00    -0.227 NA
ATOM     10  C   UNL     1       5.480 -10.408   6.117  0.00  0.00    +0.158 A 
ATOM     11  N   UNL     1       4.630 -10.310   5.049  0.00  0.00    -0.258 N 
ATOM     12  H   UNL     1       4.230 -11.059   4.580  0.00  0.00    +0.191 HD
ATOM     13  N   UNL     1       4.424  -8.961   4.743  0.00  0.00    -0.156 NA
ATOM     14 BR   UNL     1       8.357  -9.746   9.688  0.00  0.00    -0.048 Br
ATOM     15  H   UNL     1       5.695  -6.338   6.208  0.00  0.00    +0.156 HD
ENDROOT
BRANCH   8  16
ATOM     16  C   UNL     1       7.342 -12.433   8.530  0.00  0.00    +0.002 A 
ATOM     17  C   UNL     1       7.362 -12.452   9.925  0.00  0.00    +0.013 A 
ATOM     18  C   UNL     1       7.862 -13.551  10.591  0.00  0.00    +0.046 A 
ATOM     19  C   UNL     1       8.344 -14.638   9.874  0.00  0.00    +0.117 A 
ATOM     20  C   UNL     1       8.326 -14.623   8.486  0.00  0.00    +0.046 A 
ATOM     21  C   UNL     1       7.822 -13.529   7.814  0.00  0.00    +0.013 A 
BRANCH  19  22
ATOM     22  O   UNL     1       8.836 -15.719  10.534  0.00  0.00    -0.507 OA
ATOM     23  H   UNL     1       8.173 -16.395  10.732  0.00  0.00    +0.292 HD
ENDBRANCH  19  22
ENDBRANCH   8  16
BRANCH   1  24
ATOM     24  C   UNL     1       4.488  -4.609   4.640  0.00  0.00    +0.097 C 
BRANCH  24  25
ATOM     25  C   UNL     1       3.599  -4.075   3.515  0.00  0.00    +0.024 C 
BRANCH  25  26
ATOM     26  C   UNL     1       3.647  -2.546   3.510  0.00  0.00    +0.084 C 
BRANCH  26  30
ATOM     27  N   UNL     1       0.720  -0.390   1.353  0.00  0.00    +0.381 N 
ATOM     28  C   UNL     1       2.133  -0.108   1.069  0.00  0.00    -0.063 C 
ATOM     29  C   UNL     1       2.994  -0.590   2.239  0.00  0.00    +0.066 C 
ATOM     30  N   UNL     1       2.793  -2.033   2.430  0.00  0.00    -0.306 NA
ATOM     31  C   UNL     1       1.377  -2.333   2.690  0.00  0.00    +0.066 C 
ATOM     32  C   UNL     1       0.530  -1.837   1.516  0.00  0.00    -0.063 C 
ATOM     33  H   UNL     1       0.447   0.083   2.201  0.00  0.00    -0.082 HD
BRANCH  27  35
ATOM     34  C   UNL     1      -0.007   1.613   0.146  0.00  0.00    -0.017 C 
ATOM     35  C   UNL     1      -0.108   0.090   0.238  0.00  0.00    -0.082 C 
ENDBRANCH  27  35
ENDBRANCH  26  30
ENDBRANCH  25  26
ENDBRANCH  24  25
ENDBRANCH   1  24
TORSDOF 7
