REMARK  Name = CHEMBL233491
REMARK  9 active torsions:
REMARK  status: ('A' for Active; 'I' for Inactive)
REMARK    1  A    between atoms: C_1  and  C_2
REMARK    2  A    between atoms: C_7  and  C_10
REMARK    3  A    between atoms: C_10  and  C_11
REMARK    4  A    between atoms: C_14  and  S_26
REMARK    5  A    between atoms: N_15  and  N_16
REMARK    6  A    between atoms: C_17  and  C_19
REMARK    7  A    between atoms: S_26  and  C_27
REMARK    8  A    between atoms: C_27  and  C_28
REMARK    9  A    between atoms: N_30  and  N_31
REMARK                            x       y       z     vdW  Elec       q    Type
REMARK                         _______ _______ _______ _____ _____    ______ ____
ROOT
ATOM      1  C   UNL     1      -3.924  -3.862   1.851  0.00  0.00    +0.158 A 
ATOM      2  N   UNL     1      -3.885  -4.784   2.770  0.00  0.00    -0.132 NA
ATOM      3  N   UNL     1      -4.943  -5.511   2.712  0.00  0.00    -0.121 NA
ATOM      4  C   UNL     1      -5.721  -5.089   1.742  0.00  0.00    +0.209 A 
ATOM      5  N   UNL     1      -5.098  -4.019   1.166  0.00  0.00    -0.218 N 
ENDROOT
BRANCH   5   6
ATOM      6  N   UNL     1      -5.562  -3.246   0.094  0.00  0.00    -0.215 N 
ATOM      7  C   UNL     1      -6.494  -2.295   0.304  0.00  0.00    +0.262 C 
ATOM      8  O   UNL     1      -6.863  -2.044   1.435  0.00  0.00    -0.268 OA
ATOM      9  H   UNL     1      -5.213  -3.395  -0.798  0.00  0.00    +0.176 HD
BRANCH   7  10
ATOM     10  C   UNL     1      -7.066  -1.556  -0.841  0.00  0.00    +0.038 A 
ATOM     11  C   UNL     1      -6.648  -1.846  -2.142  0.00  0.00    +0.014 A 
ATOM     12  C   UNL     1      -7.186  -1.153  -3.206  0.00  0.00    +0.021 A 
ATOM     13  C   UNL     1      -8.139  -0.172  -2.987  0.00  0.00    +0.041 A 
ATOM     14  C   UNL     1      -8.557   0.120  -1.699  0.00  0.00    +0.021 A 
ATOM     15  C   UNL     1      -8.031  -0.570  -0.627  0.00  0.00    +0.014 A 
ATOM     16 CL   UNL     1      -8.811   0.695  -4.332  0.00  0.00    -0.084 Cl
ENDBRANCH   7  10
ENDBRANCH   5   6
BRANCH   1  17
ATOM     17  C   UNL     1      -2.874  -2.812   1.593  0.00  0.00    +0.134 C 
BRANCH  17  24
ATOM     18  C   UNL     1      -7.102   2.735   3.986  0.00  0.00    +0.109 C 
ATOM     19  C   UNL     1      -5.838   1.918   3.934  0.00  0.00    +0.216 C 
ATOM     20  O   UNL     1      -4.886   2.228   4.619  0.00  0.00    -0.276 OA
ATOM     21  N   UNL     1      -5.763   0.842   3.125  0.00  0.00    -0.265 N 
ATOM     22  C   UNL     1      -4.597   0.088   3.077  0.00  0.00    +0.165 A 
ATOM     23  N   UNL     1      -4.343  -0.980   2.352  0.00  0.00    -0.229 NA
ATOM     24  C   UNL     1      -3.173  -1.589   2.420  0.00  0.00    +0.058 A 
ATOM     25  C   UNL     1      -2.254  -1.064   3.267  0.00  0.00    +0.072 A 
ATOM     26  S   UNL     1      -3.163   0.324   3.927  0.00  0.00    -0.060 S 
ATOM     27  H   UNL     1      -6.524   0.594   2.577  0.00  0.00    +0.157 HD
ENDBRANCH  17  24
ENDBRANCH   1  17
BRANCH   4  28
ATOM     28  S   UNL     1      -7.279  -5.769   1.277  0.00  0.00    -0.075 S 
BRANCH  28  29
ATOM     29  C   UNL     1      -7.519  -7.145   2.434  0.00  0.00    +0.174 C 
BRANCH  29  30
ATOM     30  C   UNL     1      -8.833  -7.823   2.142  0.00  0.00    +0.237 C 
ATOM     31  O   UNL     1      -9.538  -7.418   1.242  0.00  0.00    -0.274 OA
ATOM     32  N   UNL     1      -9.226  -8.880   2.881  0.00  0.00    -0.253 N 
ATOM     33  H   UNL     1      -8.662  -9.204   3.601  0.00  0.00    +0.169 HD
BRANCH  32  34
ATOM     34  N   UNL     1     -10.416  -9.494   2.616  0.00  0.00    -0.254 NA
ATOM     35  H   UNL     1     -10.574 -10.265   3.248  0.00  0.00    +0.140 HD
ATOM     36  H   UNL     1     -11.180  -8.835   2.653  0.00  0.00    +0.140 HD
ENDBRANCH  32  34
ENDBRANCH  29  30
ENDBRANCH  28  29
ENDBRANCH   4  28
TORSDOF 8
