REMARK  Name = CHEMBL411704
REMARK  3 active torsions:
REMARK  status: ('A' for Active; 'I' for Inactive)
REMARK    1  A    between atoms: C_1  and  O_2
REMARK    2  A    between atoms: O_2  and  C_3
REMARK    3  A    between atoms: C_9  and  C_17
REMARK                            x       y       z     vdW  Elec       q    Type
REMARK                         _______ _______ _______ _____ _____    ______ ____
ROOT
ATOM      1  C   UNL     1       0.879  -0.623  -0.898  0.00  0.00    +0.133 A 
ATOM      2  C   UNL     1       1.544   0.120  -1.865  0.00  0.00    +0.066 A 
ATOM      3  C   UNL     1       2.090  -0.529  -2.959  0.00  0.00    +0.117 A 
ATOM      4  N   UNL     1       1.995  -1.834  -3.106  0.00  0.00    -0.237 NA
ATOM      5  C   UNL     1       1.372  -2.598  -2.215  0.00  0.00    +0.152 A 
ATOM      6  C   UNL     1       0.798  -2.012  -1.076  0.00  0.00    +0.071 A 
ATOM      7  C   UNL     1       0.202  -3.103  -0.294  0.00  0.00    +0.039 A 
ATOM      8  C   UNL     1       0.458  -4.275  -1.005  0.00  0.00    +0.062 A 
ATOM      9  N   UNL     1       1.150  -3.961  -2.156  0.00  0.00    -0.266 N 
ATOM     10  C   UNL     1       1.507  -4.973  -3.011  0.00  0.00    +0.199 A 
ATOM     11  N   UNL     1       1.186  -6.220  -2.756  0.00  0.00    -0.224 NA
ATOM     12  C   UNL     1       0.503  -6.567  -1.662  0.00  0.00    +0.116 A 
ATOM     13  C   UNL     1       0.133  -5.624  -0.753  0.00  0.00    +0.047 A 
ATOM     14  N   UNL     1       2.210  -4.676  -4.151  0.00  0.00    -0.329 N 
ATOM     15  H   UNL     1       2.451  -3.757  -4.347  0.00  0.00    +0.145 HD
ATOM     16  H   UNL     1       2.467  -5.386  -4.761  0.00  0.00    +0.145 HD
ENDROOT
BRANCH   7  17
ATOM     17  C   UNL     1      -0.520  -2.983   0.982  0.00  0.00    +0.079 A 
ATOM     18  C   UNL     1      -0.219  -3.837   2.055  0.00  0.00    +0.048 A 
ATOM     19  C   UNL     1      -0.916  -3.690   3.223  0.00  0.00    +0.116 A 
ATOM     20  N   UNL     1      -1.850  -2.752   3.313  0.00  0.00    -0.223 NA
ATOM     21  C   UNL     1      -2.120  -1.955   2.289  0.00  0.00    +0.213 A 
ATOM     22  N   UNL     1      -1.468  -2.056   1.141  0.00  0.00    -0.215 NA
ATOM     23  N   UNL     1      -3.102  -0.989   2.426  0.00  0.00    -0.327 N 
ATOM     24  H   UNL     1      -3.583  -0.902   3.264  0.00  0.00    +0.145 HD
ATOM     25  H   UNL     1      -3.309  -0.400   1.684  0.00  0.00    +0.145 HD
ENDBRANCH   7  17
BRANCH   1  27
ATOM     26  C   UNL     1       0.463   1.396   0.284  0.00  0.00    +0.277 C 
ATOM     27  O   UNL     1       0.330  -0.024   0.189  0.00  0.00    -0.494 OA
ENDBRANCH   1  27
TORSDOF 2
