REMARK  Name = CHEMBL568937
REMARK  8 active torsions:
REMARK  status: ('A' for Active; 'I' for Inactive)
REMARK    1  A    between atoms: C_1  and  C_2
REMARK    2  A    between atoms: C_7  and  C_8
REMARK    3  A    between atoms: CA_10  and  C_14
REMARK    4  A    between atoms: N_16  and  CA_17
REMARK    5  A    between atoms: CA_17  and  C_19
REMARK    6  A    between atoms: CA_17  and  C_21
REMARK    7  A    between atoms: C_19  and  O_20
REMARK    8  A    between atoms: N_28  and  C_29
REMARK                            x       y       z     vdW  Elec       q    Type
REMARK                         _______ _______ _______ _____ _____    ______ ____
ROOT
ATOM      1  C   UNL     1       0.607  -0.026   2.450  0.00  0.00    +0.019 A 
ATOM      2  C   UNL     1       0.170  -0.434   3.727  0.00  0.00    +0.042 A 
ATOM      3  CA  UNL     1       0.617   0.497   4.620  0.00  0.00    +0.102 A 
ATOM      4  N   UNL     1       1.313   1.460   3.925  0.00  0.00    -0.356 N 
ATOM      5  H   UNL     1       1.739   2.239   4.317  0.00  0.00    +0.165 HD
ATOM      6  C   UNL     1       1.314   1.145   2.616  0.00  0.00    +0.093 A 
ENDROOT
BRANCH   1  13
ATOM      7  C   UNL     1       0.202   1.502  -0.007  0.00  0.00    +0.047 C 
ATOM      8  C   UNL     1       0.164  -0.005  -0.011  0.00  0.00    -0.006 A 
ATOM      9  C   UNL     1      -0.060  -0.704  -1.183  0.00  0.00    +0.120 A 
ATOM     10  N   UNL     1      -0.088  -2.028  -1.152  0.00  0.00    -0.222 NA
ATOM     11  C   UNL     1       0.094  -2.688  -0.018  0.00  0.00    +0.220 A 
ATOM     12  N   UNL     1       0.310  -2.059   1.126  0.00  0.00    -0.214 NA
ATOM     13  C   UNL     1       0.358  -0.729   1.170  0.00  0.00    +0.080 A 
ATOM     14  N   UNL     1       0.057  -4.073  -0.030  0.00  0.00    -0.283 N 
ATOM     15  H   UNL     1       0.102  -4.566   0.804  0.00  0.00    +0.155 HD
BRANCH  14  16
ATOM     16  C   UNL     1      -0.045  -4.759  -1.244  0.00  0.00    +0.037 A 
ATOM     17  C   UNL     1       0.535  -4.231  -2.389  0.00  0.00    +0.023 A 
ATOM     18  C   UNL     1       0.433  -4.911  -3.587  0.00  0.00    +0.002 A 
ATOM     19  C   UNL     1      -0.245  -6.114  -3.643  0.00  0.00    +0.004 A 
ATOM     20  C   UNL     1      -0.825  -6.645  -2.503  0.00  0.00    -0.042 A 
ATOM     21  C   UNL     1      -0.722  -5.973  -1.301  0.00  0.00    -0.023 A 
ATOM     22  C   UNL     1      -1.427  -6.755  -0.214  0.00  0.00    +0.037 C 
ATOM     23  C   UNL     1      -2.335  -7.755  -0.960  0.00  0.00    +0.009 C 
ATOM     24  C   UNL     1      -1.609  -7.926  -2.307  0.00  0.00    +0.036 C 
ENDBRANCH  14  16
ENDBRANCH   1  13
BRANCH   3  25
ATOM     25  C   UNL     1       0.393   0.475   6.070  0.00  0.00    +0.261 C 
ATOM     26  O   UNL     1      -0.242  -0.432   6.574  0.00  0.00    -0.269 OA
ATOM     27  N   UNL     1       0.891   1.460   6.844  0.00  0.00    -0.301 N 
ATOM     28  H   UNL     1       1.397   2.183   6.442  0.00  0.00    +0.150 HD
BRANCH  27  29
ATOM     29  CA  UNL     1       0.667   1.438   8.292  0.00  0.00    +0.129 C 
BRANCH  29  30
ATOM     30  C   UNL     1       1.760   2.215   8.981  0.00  0.00    -0.024 A 
ATOM     31  C   UNL     1       2.220   3.397   8.431  0.00  0.00    +0.005 A 
ATOM     32  C   UNL     1       3.221   4.110   9.062  0.00  0.00    +0.002 A 
ATOM     33  C   UNL     1       3.765   3.640  10.243  0.00  0.00    +0.020 A 
ATOM     34  C   UNL     1       3.306   2.457  10.794  0.00  0.00    +0.041 A 
ATOM     35  C   UNL     1       2.299   1.747  10.165  0.00  0.00    +0.025 A 
ATOM     36 CL   UNL     1       3.988   1.867  12.277  0.00  0.00    -0.084 Cl
ENDBRANCH  29  30
BRANCH  29  37
ATOM     37  C   UNL     1      -0.688   2.074   8.608  0.00  0.00    +0.182 C 
BRANCH  37  38
ATOM     38  O   UNL     1      -0.660   3.457   8.251  0.00  0.00    -0.393 OA
ATOM     39  H   UNL     1      -1.488   3.925   8.425  0.00  0.00    +0.209 HD
ENDBRANCH  37  38
ENDBRANCH  29  37
ENDBRANCH  27  29
ENDBRANCH   3  25
TORSDOF 7
