REMARK  Name = CHEMBL558586
REMARK  0 active torsions:
REMARK  status: ('A' for Active; 'I' for Inactive)
REMARK                            x       y       z     vdW  Elec       q    Type
REMARK                         _______ _______ _______ _____ _____    ______ ____
ROOT
ATOM      1  C   UNL     1      -0.017   1.376   0.010  0.00  0.00    +0.001 A 
ATOM      2  C   UNL     1       1.165   2.110   0.002  0.00  0.00    +0.004 A 
ATOM      3  C   UNL     1       2.372   1.462   0.021  0.00  0.00    -0.040 A 
ATOM      4  C   UNL     1       2.400   0.068   0.086  0.00  0.00    +0.051 A 
ATOM      5  C   UNL     1       1.222  -0.676   0.018  0.00  0.00    +0.009 A 
ATOM      6  C   UNL     1       0.002  -0.004   0.002  0.00  0.00    +0.010 A 
ATOM      7  C   UNL     1       1.654  -2.081  -0.073  0.00  0.00    +0.022 A 
ATOM      8  C   UNL     1       0.965  -3.289  -0.235  0.00  0.00    +0.060 A 
ATOM      9  C   UNL     1       1.675  -4.500  -0.296  0.00  0.00    +0.060 A 
ATOM     10  C   UNL     1       3.073  -4.500  -0.194  0.00  0.00    +0.022 A 
ATOM     11  C   UNL     1       4.088  -5.551  -0.197  0.00  0.00    +0.008 A 
ATOM     12  C   UNL     1       3.988  -6.940  -0.299  0.00  0.00    +0.013 A 
ATOM     13  C   UNL     1       5.172  -7.656  -0.265  0.00  0.00    +0.039 A 
ATOM     14  C   UNL     1       6.401  -7.027  -0.134  0.00  0.00    +0.125 A 
ATOM     15  C   UNL     1       6.519  -5.649  -0.031  0.00  0.00    +0.064 A 
ATOM     16  C   UNL     1       5.340  -4.907  -0.063  0.00  0.00    +0.050 A 
ATOM     17  N   UNL     1       5.125  -3.557   0.018  0.00  0.00    -0.352 N 
ATOM     18  H   UNL     1       5.821  -2.888   0.106  0.00  0.00    +0.166 HD
ATOM     19  C   UNL     1       3.767  -3.285  -0.045  0.00  0.00    +0.073 A 
ATOM     20  C   UNL     1       3.060  -2.079   0.024  0.00  0.00    +0.075 A 
ATOM     21  N   UNL     1       3.479  -0.777   0.215  0.00  0.00    -0.340 N 
ATOM     22  C   UNL     1       4.823  -0.329   0.628  0.00  0.00    +0.103 C 
ATOM     23  C   UNL     1       4.631   0.731   1.721  0.00  0.00    -0.060 C 
ATOM     24  N   UNL     1       4.423   2.076   1.195  0.00  0.00    +0.383 N 
ATOM     25  C   UNL     1       3.706   2.156  -0.066  0.00  0.00    -0.045 C 
ATOM     26  F   UNL     1       7.521  -7.783  -0.106  0.00  0.00    -0.205 F 
ATOM     27  C   UNL     1       0.661  -5.555  -0.474  0.00  0.00    +0.252 C 
ATOM     28  O   UNL     1       0.885  -6.745  -0.569  0.00  0.00    -0.270 OA
ATOM     29  N   UNL     1      -0.554  -4.979  -0.513  0.00  0.00    -0.248 N 
ATOM     30  C   UNL     1      -0.459  -3.645  -0.374  0.00  0.00    +0.252 C 
ATOM     31  O   UNL     1      -1.389  -2.864  -0.365  0.00  0.00    -0.270 OA
ATOM     32  H   UNL     1       3.912   2.609   1.883  0.00  0.00    -0.085 HD
ATOM     33  H   UNL     1      -1.388  -5.462  -0.627  0.00  0.00    +0.158 HD
ATOM     34  H   UNL     1       5.325   2.510   1.074  0.00  0.00    -0.085 HD
ENDROOT
TORSDOF 0
