REMARK  Name = CHEMBL193288
REMARK  6 active torsions:
REMARK  status: ('A' for Active; 'I' for Inactive)
REMARK    1  A    between atoms: C_1  and  C_2
REMARK    2  A    between atoms: C_2  and  C_3
REMARK    3  A    between atoms: C_2  and  C_16
REMARK    4  A    between atoms: C_6  and  N_9
REMARK    5  A    between atoms: N_18  and  C_19
REMARK    6  A    between atoms: C_21  and  C_25
REMARK                            x       y       z     vdW  Elec       q    Type
REMARK                         _______ _______ _______ _____ _____    ______ ____
ROOT
ATOM      1  C   UNL     1      -0.019   1.526   0.010  0.00  0.00    +0.022 C 
ATOM      2  C   UNL     1       0.002  -0.004   0.002  0.00  0.00    +0.102 C 
ENDROOT
BRANCH   2   3
ATOM      3  C   UNL     1       0.731  -0.503   1.223  0.00  0.00    -0.036 A 
ATOM      4  C   UNL     1       2.050  -0.147   1.433  0.00  0.00    +0.006 A 
ATOM      5  C   UNL     1       2.721  -0.603   2.550  0.00  0.00    +0.024 A 
ATOM      6  C   UNL     1       2.069  -1.420   3.465  0.00  0.00    +0.038 A 
ATOM      7  C   UNL     1       0.744  -1.776   3.251  0.00  0.00    +0.024 A 
ATOM      8  C   UNL     1       0.077  -1.312   2.134  0.00  0.00    +0.006 A 
BRANCH   6   9
ATOM      9  N   UNL     1       2.746  -1.884   4.598  0.00  0.00    -0.246 N 
ATOM     10  C   UNL     1       2.202  -2.757   5.652  0.00  0.00    +0.211 C 
ATOM     11  C   UNL     1       3.365  -2.927   6.609  0.00  0.00    +0.238 C 
ATOM     12  O   UNL     1       3.381  -3.573   7.635  0.00  0.00    -0.274 OA
ATOM     13  N   UNL     1       4.378  -2.212   6.082  0.00  0.00    -0.238 N 
ATOM     14  C   UNL     1       4.023  -1.624   4.934  0.00  0.00    +0.313 C 
ATOM     15  O   UNL     1       4.768  -0.930   4.271  0.00  0.00    -0.252 OA
ATOM     16  H   UNL     1       5.258  -2.136   6.483  0.00  0.00    +0.159 HD
ENDBRANCH   6   9
ENDBRANCH   2   3
BRANCH   2  17
ATOM     17  C   UNL     1       0.707  -0.490  -1.238  0.00  0.00    +0.225 C 
ATOM     18  O   UNL     1       1.704  -1.175  -1.140  0.00  0.00    -0.275 OA
ATOM     19  N   UNL     1       0.231  -0.164  -2.456  0.00  0.00    -0.270 N 
ATOM     20  H   UNL     1      -0.566   0.383  -2.534  0.00  0.00    +0.156 HD
BRANCH  19  21
ATOM     21  C   UNL     1       0.884  -0.614  -3.603  0.00  0.00    +0.121 A 
ATOM     22  C   UNL     1       2.005  -1.384  -3.641  0.00  0.00    +0.068 A 
ATOM     23  C   UNL     1       2.326  -1.608  -4.982  0.00  0.00    +0.068 A 
ATOM     24  N   UNL     1       1.438  -0.999  -5.725  0.00  0.00    -0.177 NA
ATOM     25  H   UNL     1      -0.254   0.153  -5.163  0.00  0.00    +0.190 HD
ATOM     26  N   UNL     1       0.514  -0.369  -4.881  0.00  0.00    -0.264 N 
BRANCH  23  27
ATOM     27  C   UNL     1       3.497  -2.412  -5.488  0.00  0.00    +0.040 C 
ATOM     28  C   UNL     1       4.623  -2.719  -4.498  0.00  0.00    +0.010 C 
ATOM     29  C   UNL     1       4.843  -1.696  -5.615  0.00  0.00    +0.010 C 
ENDBRANCH  23  27
ENDBRANCH  19  21
ENDBRANCH   2  17
TORSDOF 5
