REMARK  Name = CHEMBL359200
REMARK  7 active torsions:
REMARK  status: ('A' for Active; 'I' for Inactive)
REMARK    1  A    between atoms: C_1  and  C_2
REMARK    2  A    between atoms: C_2  and  C_3
REMARK    3  A    between atoms: C_2  and  C_4
REMARK    4  A    between atoms: C_14  and  N_18
REMARK    5  A    between atoms: C_19  and  C_21
REMARK    6  A    between atoms: C_21  and  N_22
REMARK    7  A    between atoms: C_25  and  C_28
REMARK                            x       y       z     vdW  Elec       q    Type
REMARK                         _______ _______ _______ _____ _____    ______ ____
ROOT
ATOM      1  C   UNL     1      -1.148  -2.792   0.882  0.00  0.00    +0.050 A 
ATOM      2  C   UNL     1      -1.791  -2.970  -0.306  0.00  0.00    +0.071 A 
ATOM      3  C   UNL     1      -3.222  -2.796  -0.044  0.00  0.00    +0.104 A 
ATOM      4  N   UNL     1      -3.348  -2.535   1.234  0.00  0.00    -0.173 NA
ATOM      5  H   UNL     1      -1.896  -2.370   2.760  0.00  0.00    +0.189 HD
ATOM      6  N   UNL     1      -2.078  -2.533   1.822  0.00  0.00    -0.280 N 
ATOM      7  C   UNL     1      -3.941  -2.986  -1.328  0.00  0.00    +0.015 A 
ATOM      8  C   UNL     1      -5.292  -2.932  -1.645  0.00  0.00    +0.011 A 
ATOM      9  C   UNL     1      -5.713  -3.150  -2.946  0.00  0.00    +0.002 A 
ATOM     10  C   UNL     1      -4.799  -3.424  -3.943  0.00  0.00    +0.024 A 
ATOM     11  C   UNL     1      -3.441  -3.484  -3.649  0.00  0.00    +0.045 A 
ATOM     12  C   UNL     1      -3.001  -3.264  -2.337  0.00  0.00    +0.053 A 
ATOM     13  C   UNL     1      -1.649  -3.264  -1.744  0.00  0.00    +0.199 C 
ATOM     14  O   UNL     1      -0.606  -3.470  -2.335  0.00  0.00    -0.286 OA
ENDROOT
BRANCH  11  15
ATOM     15  N   UNL     1      -2.520  -3.761  -4.656  0.00  0.00    -0.286 N 
ATOM     16  C   UNL     1      -2.846  -4.609  -5.651  0.00  0.00    +0.201 C 
ATOM     17  O   UNL     1      -3.967  -5.066  -5.716  0.00  0.00    -0.278 OA
ATOM     18  H   UNL     1      -1.645  -3.344  -4.641  0.00  0.00    +0.155 HD
BRANCH  16  19
ATOM     19  C   UNL     1      -1.817  -4.989  -6.685  0.00  0.00    +0.019 C 
BRANCH  19  20
ATOM     20  N   UNL     1      -2.415  -5.917  -7.654  0.00  0.00    +0.385 N 
ATOM     21  C   UNL     1      -2.774  -7.167  -6.974  0.00  0.00    -0.077 C 
ATOM     22  C   UNL     1      -3.471  -8.106  -7.961  0.00  0.00    -0.006 C 
ATOM     23  C   UNL     1      -2.523  -8.410  -9.124  0.00  0.00    +0.071 C 
ATOM     24  C   UNL     1      -2.096  -7.094  -9.779  0.00  0.00    -0.006 C 
ATOM     25  C   UNL     1      -1.450  -6.192  -8.725  0.00  0.00    -0.077 C 
ATOM     26  H   UNL     1      -3.245  -5.500  -8.049  0.00  0.00    -0.081 HD
BRANCH  23  27
ATOM     27  C   UNL     1      -3.230  -9.272 -10.139  0.00  0.00    +0.213 C 
ATOM     28  O   UNL     1      -4.380  -9.610  -9.951  0.00  0.00    -0.276 OA
ATOM     29  N   UNL     1      -2.586  -9.666 -11.254  0.00  0.00    -0.329 N 
ATOM     30  H   UNL     1      -1.666  -9.396 -11.405  0.00  0.00    +0.145 HD
ATOM     31  H   UNL     1      -3.041 -10.220 -11.907  0.00  0.00    +0.145 HD
ENDBRANCH  23  27
ENDBRANCH  19  20
ENDBRANCH  16  19
ENDBRANCH  11  15
BRANCH   1  33
ATOM     32  C   UNL     1       0.851  -1.538   1.643  0.00  0.00    +0.014 C 
ATOM     33  C   UNL     1       0.340  -2.877   1.107  0.00  0.00    +0.032 C 
ATOM     34  C   UNL     1       0.640  -3.981   2.123  0.00  0.00    +0.014 C 
ENDBRANCH   1  33
TORSDOF 5
