REMARK  Name = CHEMBL187256
REMARK  2 active torsions:
REMARK  status: ('A' for Active; 'I' for Inactive)
REMARK    1  A    between atoms: C_9  and  N_11
REMARK    2  A    between atoms: C_18  and  C_20
REMARK                            x       y       z     vdW  Elec       q    Type
REMARK                         _______ _______ _______ _____ _____    ______ ____
ROOT
ATOM      1  N   UNL     1       1.210  -2.086  -0.021  0.00  0.00    -0.269 N 
ATOM      2  C   UNL     1       0.053  -2.770   0.088  0.00  0.00    +0.310 C 
ATOM      3  O   UNL     1      -1.006  -2.174   0.102  0.00  0.00    -0.252 OA
ATOM      4  N   UNL     1       0.072  -4.114   0.182  0.00  0.00    -0.248 N 
ATOM      5  C   UNL     1      -1.121  -4.819   0.295  0.00  0.00    +0.166 A 
ATOM      6  N   UNL     1      -2.349  -4.349   0.320  0.00  0.00    -0.233 NA
ATOM      7  C   UNL     1      -3.387  -5.158   0.433  0.00  0.00    +0.124 A 
ATOM      8  C   UNL     1      -3.126  -6.486   0.520  0.00  0.00    +0.014 A 
ATOM      9  S   UNL     1      -1.344  -6.482   0.425  0.00  0.00    -0.057 S 
ATOM     10  H   UNL     1       2.049  -2.563  -0.114  0.00  0.00    +0.156 HD
ATOM     11  H   UNL     1       0.917  -4.589   0.172  0.00  0.00    +0.158 HD
ENDROOT
BRANCH   1  20
ATOM     12  C   UNL     1       0.154   1.380   0.642  0.00  0.00    +0.004 A 
ATOM     13  C   UNL     1       1.148   2.107   0.060  0.00  0.00    +0.028 A 
ATOM     14  C   UNL     1       2.215   1.454  -0.581  0.00  0.00    +0.073 A 
ATOM     15  C   UNL     1       2.241   0.038  -0.611  0.00  0.00    +0.022 A 
ATOM     16  C   UNL     1       3.310  -0.612  -1.252  0.00  0.00    +0.013 A 
ATOM     17  C   UNL     1       4.284   0.159  -1.823  0.00  0.00    +0.020 A 
ATOM     18  C   UNL     1       4.199   1.547  -1.758  0.00  0.00    +0.111 A 
ATOM     19  N   UNL     1       3.200   2.149  -1.159  0.00  0.00    -0.255 NA
ATOM     20  C   UNL     1       1.199  -0.691  -0.001  0.00  0.00    +0.044 A 
ATOM     21  C   UNL     1       0.171  -0.011   0.617  0.00  0.00    +0.024 A 
ENDBRANCH   1  20
BRANCH   8  22
ATOM     22  C   UNL     1      -4.080  -7.645   0.654  0.00  0.00    +0.027 C 
ATOM     23  C   UNL     1      -3.563  -8.764   1.574  0.00  0.00    +0.009 C 
ATOM     24  C   UNL     1      -4.148  -9.761   0.560  0.00  0.00    +0.001 C 
ATOM     25  C   UNL     1      -3.985  -8.658  -0.499  0.00  0.00    +0.009 C 
ENDBRANCH   8  22
TORSDOF 2
