REMARK  Name = CHEMBL271952
REMARK  4 active torsions:
REMARK  status: ('A' for Active; 'I' for Inactive)
REMARK    1  A    between atoms: C_3  and  S_22
REMARK    2  A    between atoms: C_6  and  N_7
REMARK    3  A    between atoms: N_7  and  N_8
REMARK    4  A    between atoms: S_22  and  N_25
REMARK                            x       y       z     vdW  Elec       q    Type
REMARK                         _______ _______ _______ _____ _____    ______ ____
ROOT
ATOM      1  N   UNL     1      -1.176  -2.010   0.003  0.00  0.00    -0.177 NA
ATOM      2  C   UNL     1      -2.306  -2.684   0.011  0.00  0.00    +0.155 C 
ATOM      3  C   UNL     1      -2.477  -4.151   0.010  0.00  0.00    +0.057 A 
ATOM      4  C   UNL     1      -3.845  -4.395   0.021  0.00  0.00    +0.045 A 
ATOM      5  C   UNL     1      -4.315  -5.718   0.024  0.00  0.00    +0.026 A 
ATOM      6  C   UNL     1      -3.472  -6.779   0.016  0.00  0.00    +0.034 A 
ATOM      7  C   UNL     1      -2.076  -6.597   0.006  0.00  0.00    +0.116 A 
ATOM      8  C   UNL     1      -1.547  -5.273   0.001  0.00  0.00    +0.126 A 
ATOM      9  N   UNL     1      -0.234  -5.415  -0.010  0.00  0.00    -0.127 NA
ATOM     10  N   UNL     1       0.045  -6.673  -0.014  0.00  0.00    -0.042 NA
ATOM     11  N   UNL     1      -1.020  -7.396  -0.003  0.00  0.00    -0.128 NA
ATOM     12  N   UNL     1      -4.526  -3.182   0.028  0.00  0.00    -0.280 N 
ATOM     13  C   UNL     1      -3.675  -2.142   0.028  0.00  0.00    +0.269 C 
ATOM     14  O   UNL     1      -3.981  -0.963   0.037  0.00  0.00    -0.268 OA
ATOM     15  H   UNL     1      -5.492  -3.097   0.035  0.00  0.00    +0.155 HD
ENDROOT
BRANCH   1  16
ATOM     16  N   UNL     1      -1.195  -0.720   0.010  0.00  0.00    -0.237 N 
ATOM     17  H   UNL     1      -2.043  -0.247   0.021  0.00  0.00    +0.174 HD
BRANCH  16  23
ATOM     18  C   UNL     1      -0.017   1.386   0.010  0.00  0.00    +0.026 A 
ATOM     19  C   UNL     1       1.171   2.091   0.002  0.00  0.00    +0.030 A 
ATOM     20  C   UNL     1       2.377   1.415  -0.013  0.00  0.00    +0.105 A 
ATOM     21  C   UNL     1       2.400   0.033  -0.021  0.00  0.00    +0.030 A 
ATOM     22  C   UNL     1       1.217  -0.679  -0.013  0.00  0.00    +0.026 A 
ATOM     23  C   UNL     1       0.002  -0.004   0.002  0.00  0.00    +0.048 A 
BRANCH  20  24
ATOM     24  S   UNL     1       3.890   2.319  -0.024  0.00  0.00    +0.056 S 
ATOM     25  O   UNL     1       4.872   1.462  -0.589  0.00  0.00    -0.153 OA
ATOM     26  O   UNL     1       3.594   3.599  -0.566  0.00  0.00    -0.153 OA
BRANCH  24  27
ATOM     27  N   UNL     1       4.326   2.563   1.555  0.00  0.00    -0.204 NA
ATOM     28  H   UNL     1       3.768   2.221   2.270  0.00  0.00    +0.144 HD
ATOM     29  H   UNL     1       5.140   3.047   1.764  0.00  0.00    +0.144 HD
ENDBRANCH  24  27
ENDBRANCH  20  24
ENDBRANCH  16  23
ENDBRANCH   1  16
TORSDOF 4
