REMARK  Name = CHEMBL271952
REMARK  4 active torsions:
REMARK  status: ('A' for Active; 'I' for Inactive)
REMARK    1  A    between atoms: C_3  and  S_23
REMARK    2  A    between atoms: C_6  and  N_7
REMARK    3  A    between atoms: N_7  and  N_8
REMARK    4  A    between atoms: S_23  and  N_26
REMARK                            x       y       z     vdW  Elec       q    Type
REMARK                         _______ _______ _______ _____ _____    ______ ____
ROOT
ATOM      1  N   UNL     1      -1.176  -2.010   0.003  0.00  0.00    -0.177 NA
ATOM      2  C   UNL     1      -2.305  -2.684   0.011  0.00  0.00    +0.155 C 
ATOM      3  C   UNL     1      -2.476  -4.153   0.010  0.00  0.00    +0.057 A 
ATOM      4  C   UNL     1      -3.849  -4.394   0.020  0.00  0.00    +0.045 A 
ATOM      5  C   UNL     1      -4.317  -5.710   0.022  0.00  0.00    +0.026 A 
ATOM      6  C   UNL     1      -3.437  -6.767   0.014  0.00  0.00    +0.031 A 
ATOM      7  C   UNL     1      -2.063  -6.542   0.004  0.00  0.00    +0.087 A 
ATOM      8  C   UNL     1      -1.566  -5.229   0.003  0.00  0.00    +0.124 A 
ATOM      9  N   UNL     1      -0.222  -5.300  -0.007  0.00  0.00    -0.129 NA
ATOM     10  N   UNL     1       0.162  -6.527  -0.011  0.00  0.00    -0.067 NA
ATOM     11  N   UNL     1      -0.962  -7.367  -0.005  0.00  0.00    -0.257 N 
ATOM     12  H   UNL     1      -0.963  -8.337  -0.006  0.00  0.00    +0.191 HD
ATOM     13  N   UNL     1      -4.528  -3.178   0.026  0.00  0.00    -0.280 N 
ATOM     14  C   UNL     1      -3.674  -2.141   0.028  0.00  0.00    +0.269 C 
ATOM     15  O   UNL     1      -3.978  -0.962   0.038  0.00  0.00    -0.268 OA
ATOM     16  H   UNL     1      -5.494  -3.092   0.033  0.00  0.00    +0.155 HD
ENDROOT
BRANCH   1  17
ATOM     17  N   UNL     1      -1.196  -0.720   0.010  0.00  0.00    -0.237 N 
ATOM     18  H   UNL     1      -2.043  -0.247   0.021  0.00  0.00    +0.174 HD
BRANCH  17  24
ATOM     19  C   UNL     1      -0.017   1.386   0.010  0.00  0.00    +0.026 A 
ATOM     20  C   UNL     1       1.171   2.091   0.002  0.00  0.00    +0.030 A 
ATOM     21  C   UNL     1       2.377   1.415  -0.013  0.00  0.00    +0.105 A 
ATOM     22  C   UNL     1       2.400   0.033  -0.021  0.00  0.00    +0.030 A 
ATOM     23  C   UNL     1       1.217  -0.679  -0.014  0.00  0.00    +0.026 A 
ATOM     24  C   UNL     1       0.002  -0.004   0.002  0.00  0.00    +0.048 A 
BRANCH  21  25
ATOM     25  S   UNL     1       3.890   2.319  -0.023  0.00  0.00    +0.056 S 
ATOM     26  O   UNL     1       4.872   1.462  -0.588  0.00  0.00    -0.153 OA
ATOM     27  O   UNL     1       3.595   3.600  -0.564  0.00  0.00    -0.153 OA
BRANCH  25  28
ATOM     28  N   UNL     1       4.325   2.562   1.557  0.00  0.00    -0.204 NA
ATOM     29  H   UNL     1       5.263   2.630   1.796  0.00  0.00    +0.144 HD
ATOM     30  H   UNL     1       3.643   2.636   2.242  0.00  0.00    +0.144 HD
ENDBRANCH  25  28
ENDBRANCH  21  25
ENDBRANCH  17  24
ENDBRANCH   1  17
TORSDOF 4
