REMARK  Name = CHEMBL185255
REMARK  7 active torsions:
REMARK  status: ('A' for Active; 'I' for Inactive)
REMARK    1  A    between atoms: C_1  and  O_2
REMARK    2  A    between atoms: O_2  and  C_3
REMARK    3  A    between atoms: C_6  and  C_9
REMARK    4  A    between atoms: C_19  and  N_23
REMARK    5  A    between atoms: N_26  and  N_27
REMARK    6  A    between atoms: C_28  and  C_30
REMARK    7  A    between atoms: C_35  and  O_36
REMARK                            x       y       z     vdW  Elec       q    Type
REMARK                         _______ _______ _______ _____ _____    ______ ____
ROOT
ATOM      1  C   UNL     1       2.487  -2.506  -4.391  0.00  0.00    +0.104 A 
ATOM      2  C   UNL     1       3.225  -3.713  -4.346  0.00  0.00    +0.075 A 
ATOM      3  C   UNL     1       3.658  -3.980  -5.638  0.00  0.00    +0.078 A 
ATOM      4  N   UNL     1       3.202  -2.983  -6.428  0.00  0.00    -0.276 N 
ATOM      5  N   UNL     1       2.475  -2.085  -5.638  0.00  0.00    -0.173 NA
ATOM      6  H   UNL     1       3.350  -2.905  -7.383  0.00  0.00    +0.189 HD
ATOM      7  C   UNL     1       4.438  -5.241  -5.633  0.00  0.00    +0.013 A 
ATOM      8  C   UNL     1       5.081  -5.940  -6.643  0.00  0.00    +0.011 A 
ATOM      9  C   UNL     1       5.754  -7.120  -6.357  0.00  0.00    +0.002 A 
ATOM     10  C   UNL     1       5.793  -7.610  -5.071  0.00  0.00    +0.024 A 
ATOM     11  C   UNL     1       5.152  -6.922  -4.038  0.00  0.00    +0.046 A 
ATOM     12  C   UNL     1       4.474  -5.736  -4.316  0.00  0.00    +0.053 A 
ATOM     13  C   UNL     1       3.714  -4.793  -3.465  0.00  0.00    +0.200 C 
ATOM     14  O   UNL     1       3.527  -4.889  -2.268  0.00  0.00    -0.286 OA
ENDROOT
BRANCH   1  18
ATOM     15  C   UNL     1       0.617  -0.592  -1.086  0.00  0.00    +0.120 A 
ATOM     16  C   UNL     1       1.179   0.171  -2.102  0.00  0.00    +0.046 A 
ATOM     17  C   UNL     1       1.786  -0.447  -3.175  0.00  0.00    +0.013 A 
ATOM     18  C   UNL     1       1.835  -1.839  -3.239  0.00  0.00    +0.003 A 
ATOM     19  C   UNL     1       1.270  -2.602  -2.217  0.00  0.00    +0.013 A 
ATOM     20  C   UNL     1       0.670  -1.978  -1.144  0.00  0.00    +0.046 A 
BRANCH  15  22
ATOM     21  C   UNL     1       0.001   1.449  -0.034  0.00  0.00    +0.277 C 
ATOM     22  O   UNL     1       0.020   0.020  -0.030  0.00  0.00    -0.495 OA
ENDBRANCH  15  22
ENDBRANCH   1  18
BRANCH  11  23
ATOM     23  N   UNL     1       5.191  -7.417  -2.739  0.00  0.00    -0.268 N 
ATOM     24  C   UNL     1       6.199  -8.226  -2.355  0.00  0.00    +0.320 C 
ATOM     25  O   UNL     1       7.127  -8.440  -3.111  0.00  0.00    -0.251 OA
ATOM     26  N   UNL     1       6.178  -8.796  -1.135  0.00  0.00    -0.218 N 
ATOM     27  H   UNL     1       4.493  -7.180  -2.108  0.00  0.00    +0.156 HD
ATOM     28  H   UNL     1       6.904  -9.378  -0.859  0.00  0.00    +0.174 HD
BRANCH  26  29
ATOM     29  N   UNL     1       5.109  -8.549  -0.264  0.00  0.00    -0.229 N 
ATOM     30  C   UNL     1       5.088  -9.120   0.957  0.00  0.00    +0.264 C 
ATOM     31  O   UNL     1       5.997  -9.850   1.302  0.00  0.00    -0.269 OA
ATOM     32  H   UNL     1       4.383  -7.967  -0.540  0.00  0.00    +0.173 HD
BRANCH  30  33
ATOM     33  C   UNL     1       3.962  -8.860   1.873  0.00  0.00    +0.079 A 
ATOM     34  C   UNL     1       2.912  -8.027   1.478  0.00  0.00    +0.017 A 
ATOM     35  C   UNL     1       1.863  -7.789   2.339  0.00  0.00    +0.001 A 
ATOM     36  C   UNL     1       1.844  -8.371   3.596  0.00  0.00    +0.004 A 
ATOM     37  C   UNL     1       2.874  -9.196   3.999  0.00  0.00    +0.046 A 
ATOM     38  C   UNL     1       3.936  -9.452   3.144  0.00  0.00    +0.129 A 
BRANCH  38  39
ATOM     39  O   UNL     1       4.947 -10.267   3.536  0.00  0.00    -0.506 OA
ATOM     40  H   UNL     1       5.671  -9.807   3.983  0.00  0.00    +0.292 HD
ENDBRANCH  38  39
ENDBRANCH  30  33
ENDBRANCH  26  29
ENDBRANCH  11  23
TORSDOF 6
