REMARK  Name = CHEMBL424207
REMARK  8 active torsions:
REMARK  status: ('A' for Active; 'I' for Inactive)
REMARK    1  A    between atoms: C_1  and  O_2
REMARK    2  A    between atoms: O_2  and  C_3
REMARK    3  A    between atoms: C_8  and  C_9
REMARK    4  A    between atoms: C_16  and  C_17
REMARK    5  A    between atoms: C_18  and  CA_19
REMARK    6  A    between atoms: CA_19  and  C_21
REMARK    7  A    between atoms: CA_19  and  N_23
REMARK    8  A    between atoms: C_21  and  O_22
REMARK                            x       y       z     vdW  Elec       q    Type
REMARK                         _______ _______ _______ _____ _____    ______ ____
ROOT
ATOM      1  C   UNL     1       0.280  -3.002   0.387  0.00  0.00    +0.043 C 
ATOM      2  C   UNL     1       0.580  -4.331   0.652  0.00  0.00    +0.049 C 
ATOM      3  C   UNL     1       0.251  -5.502  -0.183  0.00  0.00    +0.027 A 
ATOM      4  C   UNL     1       0.756  -6.619   0.495  0.00  0.00    +0.043 A 
ATOM      5  C   UNL     1       0.595  -7.883  -0.059  0.00  0.00    +0.027 A 
ATOM      6  C   UNL     1      -0.059  -8.038  -1.267  0.00  0.00    +0.041 A 
ATOM      7  C   UNL     1      -0.561  -6.943  -1.946  0.00  0.00    +0.139 A 
ATOM      8  C   UNL     1      -0.412  -5.662  -1.410  0.00  0.00    +0.070 A 
ATOM      9  F   UNL     1      -1.197  -7.112  -3.126  0.00  0.00    -0.204 F 
ATOM     10  N   UNL     1       1.358  -6.181   1.669  0.00  0.00    -0.281 N 
ATOM     11  C   UNL     1       1.274  -4.845   1.781  0.00  0.00    +0.249 C 
ATOM     12  O   UNL     1       1.716  -4.181   2.703  0.00  0.00    -0.270 OA
ATOM     13  H   UNL     1       1.786  -6.761   2.318  0.00  0.00    +0.155 HD
ENDROOT
BRANCH   1  19
ATOM     14  C   UNL     1       0.941  -0.708   1.118  0.00  0.00    +0.145 A 
ATOM     15  C   UNL     1       1.061  -0.086   2.368  0.00  0.00    +0.065 A 
ATOM     16  C   UNL     1       0.739  -0.993   3.321  0.00  0.00    +0.087 A 
ATOM     17  N   UNL     1       0.417  -2.171   2.727  0.00  0.00    -0.358 N 
ATOM     18  H   UNL     1       0.150  -2.982   3.187  0.00  0.00    +0.165 HD
ATOM     19  C   UNL     1       0.530  -2.020   1.356  0.00  0.00    +0.082 A 
BRANCH  14  21
ATOM     20  C   UNL     1       1.590   1.226  -0.100  0.00  0.00    +0.277 C 
ATOM     21  O   UNL     1       1.174  -0.141  -0.093  0.00  0.00    -0.493 OA
ENDBRANCH  14  21
ENDBRANCH   1  19
BRANCH   8  22
ATOM     22  C   UNL     1      -0.929  -4.522  -2.105  0.00  0.00    -0.064 C 
ATOM     23  C   UNL     1      -1.354  -3.588  -2.676  0.00  0.00    -0.111 C 
BRANCH  23  24
ATOM     24  CA  UNL     1      -1.886  -2.416  -3.391  0.00  0.00    +0.029 C 
BRANCH  24  25
ATOM     25  N   UNL     1      -0.787  -1.493  -3.704  0.00  0.00    +0.389 N 
ATOM     26  H1  UNL     1      -0.346  -1.192  -2.847  0.00  0.00    -0.088 HD
ATOM     27  H2  UNL     1      -0.109  -1.962  -4.285  0.00  0.00    -0.088 HD
ATOM     28  H3  UNL     1      -1.152  -0.690  -4.194  0.00  0.00    -0.088 HD
ENDBRANCH  24  25
BRANCH  24  29
ATOM     29  C   UNL     1      -2.915  -1.705  -2.510  0.00  0.00    +0.152 C 
BRANCH  29  30
ATOM     30  O   UNL     1      -3.516  -0.638  -3.246  0.00  0.00    -0.396 OA
ATOM     31  H   UNL     1      -4.180  -0.142  -2.748  0.00  0.00    +0.209 HD
ENDBRANCH  29  30
ENDBRANCH  24  29
ENDBRANCH  23  24
ENDBRANCH   8  22
TORSDOF 7
