REMARK  Name = CHEMBL507142
REMARK  8 active torsions:
REMARK  status: ('A' for Active; 'I' for Inactive)
REMARK    1  A    between atoms: C_1  and  C_2
REMARK    2  A    between atoms: C_2  and  C_3
REMARK    3  A    between atoms: C_2  and  N_4
REMARK    4  A    between atoms: C_5  and  C_12
REMARK    5  A    between atoms: C_8  and  C_9
REMARK    6  A    between atoms: N_18  and  C_19
REMARK    7  A    between atoms: C_22  and  C_25
REMARK    8  A    between atoms: N_27  and  C_28
REMARK                            x       y       z     vdW  Elec       q    Type
REMARK                         _______ _______ _______ _____ _____    ______ ____
ROOT
ATOM      1  C   UNL     1      -2.011   0.306   2.117  0.00  0.00    +0.094 A 
ATOM      2  C   UNL     1      -0.709   0.732   2.409  0.00  0.00    +0.050 A 
ATOM      3  C   UNL     1      -0.496   1.446   3.573  0.00  0.00    +0.116 A 
ATOM      4  N   UNL     1      -1.520   1.704   4.372  0.00  0.00    -0.223 NA
ATOM      5  C   UNL     1      -2.743   1.290   4.072  0.00  0.00    +0.220 A 
ATOM      6  N   UNL     1      -2.994   0.608   2.966  0.00  0.00    -0.213 NA
ATOM      7  N   UNL     1      -3.785   1.582   4.937  0.00  0.00    -0.284 N 
ATOM      8  H   UNL     1      -4.669   1.218   4.771  0.00  0.00    +0.155 HD
ENDROOT
BRANCH   1  10
ATOM      9  N   UNL     1      -3.494  -1.026   0.523  0.00  0.00    -0.325 N 
ATOM     10  C   UNL     1      -2.292  -0.459   0.886  0.00  0.00    +0.085 A 
ATOM     11  C   UNL     1      -1.413  -0.746  -0.114  0.00  0.00    +0.112 A 
ATOM     12  N   UNL     1      -2.063  -1.456  -1.041  0.00  0.00    -0.349 N 
ATOM     13  C   UNL     1      -3.303  -1.632  -0.666  0.00  0.00    +0.091 A 
ATOM     14  H   UNL     1      -1.674  -1.792  -1.863  0.00  0.00    +0.166 HD
BRANCH   9  16
ATOM     15  C   UNL     1      -5.832  -0.313   0.447  0.00  0.00    +0.030 C 
ATOM     16  C   UNL     1      -4.743  -0.982   1.287  0.00  0.00    +0.083 C 
ATOM     17  C   UNL     1      -5.175  -2.407   1.640  0.00  0.00    +0.030 C 
ENDBRANCH   9  16
BRANCH  13  18
ATOM     18  C   UNL     1      -4.351  -2.389  -1.441  0.00  0.00    +0.053 C 
ATOM     19  C   UNL     1      -3.890  -3.596  -2.259  0.00  0.00    +0.012 C 
ATOM     20  C   UNL     1      -4.301  -2.304  -2.967  0.00  0.00    +0.012 C 
ENDBRANCH  13  18
ENDBRANCH   1  10
BRANCH   7  21
ATOM     21  C   UNL     1      -3.565   2.397   6.043  0.00  0.00    +0.034 A 
ATOM     22  C   UNL     1      -4.252   2.159   7.230  0.00  0.00    +0.024 A 
ATOM     23  C   UNL     1      -4.036   2.963   8.326  0.00  0.00    +0.015 A 
ATOM     24  C   UNL     1      -3.125   4.021   8.246  0.00  0.00    +0.037 A 
ATOM     25  C   UNL     1      -2.437   4.258   7.052  0.00  0.00    +0.015 A 
ATOM     26  C   UNL     1      -2.654   3.446   5.962  0.00  0.00    +0.024 A 
BRANCH  24  27
ATOM     27  C   UNL     1      -2.892   4.886   9.418  0.00  0.00    +0.244 C 
ATOM     28  O   UNL     1      -3.492   4.679  10.455  0.00  0.00    -0.270 OA
ATOM     29  N   UNL     1      -2.014   5.905   9.339  0.00  0.00    -0.314 N 
ATOM     30  C   UNL     1      -1.782   6.764  10.503  0.00  0.00    +0.128 C 
ATOM     31  H   UNL     1      -1.535   6.070   8.512  0.00  0.00    +0.149 HD
ENDBRANCH  24  27
ENDBRANCH   7  21
TORSDOF 5
