REMARK  Name = CHEMBL317703
REMARK  5 active torsions:
REMARK  status: ('A' for Active; 'I' for Inactive)
REMARK    1  A    between atoms: C_3  and  N_24
REMARK    2  A    between atoms: C_6  and  C_7
REMARK    3  A    between atoms: N_13  and  C_14
REMARK    4  A    between atoms: C_17  and  S_20
REMARK    5  A    between atoms: S_20  and  N_23
REMARK                            x       y       z     vdW  Elec       q    Type
REMARK                         _______ _______ _______ _____ _____    ______ ____
ROOT
ATOM      1  C   UNL     1      -1.302  -0.771  -0.404  0.00  0.00    +0.068 A 
ATOM      2  C   UNL     1      -1.425  -2.130  -0.342  0.00  0.00    +0.073 A 
ATOM      3  C   UNL     1      -2.773  -2.428  -0.107  0.00  0.00    +0.145 A 
ATOM      4  N   UNL     1      -3.440  -1.299  -0.030  0.00  0.00    -0.158 NA
ATOM      5  N   UNL     1      -2.542  -0.240  -0.206  0.00  0.00    -0.275 N 
ATOM      6  H   UNL     1      -2.762   0.705  -0.193  0.00  0.00    +0.189 HD
ATOM      7  N   UNL     1      -3.318  -3.711   0.022  0.00  0.00    -0.298 N 
ATOM      8  H   UNL     1      -2.735  -4.487   0.031  0.00  0.00    +0.154 HD
ENDROOT
BRANCH   1  14
ATOM      9  C   UNL     1      -0.072   1.380  -0.668  0.00  0.00    +0.012 A 
ATOM     10  C   UNL     1       1.097   2.079  -0.884  0.00  0.00    +0.033 A 
ATOM     11  C   UNL     1       2.288   1.401  -1.069  0.00  0.00    +0.126 A 
ATOM     12  C   UNL     1       2.316   0.018  -1.038  0.00  0.00    +0.033 A 
ATOM     13  C   UNL     1       1.153  -0.693  -0.823  0.00  0.00    +0.012 A 
ATOM     14  C   UNL     1      -0.052  -0.015  -0.636  0.00  0.00    -0.000 A 
BRANCH  11  15
ATOM     15  N   UNL     1       3.539   2.158  -1.300  0.00  0.00    +0.056 N 
ATOM     16  O   UNL     1       3.518   3.366  -1.328  0.00  0.00    -0.126 OA
ATOM     17  O   UNL     1       4.582   1.567  -1.462  0.00  0.00    -0.126 OA
ENDBRANCH  11  15
ENDBRANCH   1  14
BRANCH   7  18
ATOM     18  C   UNL     1      -4.700  -3.875   0.137  0.00  0.00    +0.033 A 
ATOM     19  C   UNL     1      -5.562  -2.957  -0.451  0.00  0.00    +0.025 A 
ATOM     20  C   UNL     1      -6.928  -3.122  -0.335  0.00  0.00    +0.030 A 
ATOM     21  C   UNL     1      -7.439  -4.199   0.366  0.00  0.00    +0.105 A 
ATOM     22  C   UNL     1      -6.584  -5.114   0.953  0.00  0.00    +0.030 A 
ATOM     23  C   UNL     1      -5.217  -4.959   0.836  0.00  0.00    +0.025 A 
BRANCH  21  24
ATOM     24  S   UNL     1      -9.183  -4.406   0.512  0.00  0.00    +0.056 S 
ATOM     25  O   UNL     1      -9.403  -5.189   1.677  0.00  0.00    -0.153 OA
ATOM     26  O   UNL     1      -9.760  -3.119   0.339  0.00  0.00    -0.153 OA
BRANCH  24  27
ATOM     27  N   UNL     1      -9.677  -5.323  -0.775  0.00  0.00    -0.204 NA
ATOM     28  H   UNL     1     -10.447  -5.905  -0.689  0.00  0.00    +0.144 HD
ATOM     29  H   UNL     1      -9.195  -5.278  -1.616  0.00  0.00    +0.144 HD
ENDBRANCH  24  27
ENDBRANCH  21  24
ENDBRANCH   7  18
TORSDOF 5
