REMARK  Name = CHEMBL147232
REMARK  5 active torsions:
REMARK  status: ('A' for Active; 'I' for Inactive)
REMARK    1  A    between atoms: C_5  and  N_7
REMARK    2  A    between atoms: C_8  and  C_10
REMARK    3  A    between atoms: C_10  and  N_11
REMARK    4  A    between atoms: C_14  and  C_17
REMARK    5  A    between atoms: C_27  and  C_28
REMARK                            x       y       z     vdW  Elec       q    Type
REMARK                         _______ _______ _______ _____ _____    ______ ____
ROOT
ATOM      1  C   UNL     1      -0.032   1.367  -0.011  0.00  0.00    +0.002 A 
ATOM      2  C   UNL     1       1.152   2.095  -0.024  0.00  0.00    +0.011 A 
ATOM      3  C   UNL     1       2.374   1.440  -0.035  0.00  0.00    +0.013 A 
ATOM      4  C   UNL     1       2.406   0.032  -0.034  0.00  0.00    +0.053 A 
ATOM      5  C   UNL     1       1.214  -0.690  -0.021  0.00  0.00    +0.045 A 
ATOM      6  C   UNL     1      -0.007  -0.009  -0.010  0.00  0.00    +0.024 A 
ATOM      7  C   UNL     1       3.827  -0.381  -0.048  0.00  0.00    +0.199 C 
ATOM      8  O   UNL     1       4.249  -1.520  -0.051  0.00  0.00    -0.286 OA
ATOM      9  C   UNL     1       4.637   0.857  -0.057  0.00  0.00    +0.071 A 
ATOM     10  C   UNL     1       3.769   1.941  -0.050  0.00  0.00    +0.078 A 
ATOM     11  N   UNL     1       4.528   3.058  -0.059  0.00  0.00    -0.276 N 
ATOM     12  H   UNL     1       4.197   3.970  -0.056  0.00  0.00    +0.189 HD
ATOM     13  N   UNL     1       5.874   2.675  -0.072  0.00  0.00    -0.177 NA
ATOM     14  C   UNL     1       5.946   1.369  -0.071  0.00  0.00    +0.077 A 
ENDROOT
BRANCH  14  15
ATOM     15  C   UNL     1       7.214   0.555  -0.082  0.00  0.00    +0.040 C 
ATOM     16  C   UNL     1       8.045   0.888   1.159  0.00  0.00    +0.010 C 
ATOM     17  C   UNL     1       9.332   0.061   1.148  0.00  0.00    +0.001 C 
ATOM     18  C   UNL     1      10.139   0.390  -0.109  0.00  0.00    +0.000 C 
ATOM     19  C   UNL     1       9.308   0.057  -1.350  0.00  0.00    +0.001 C 
ATOM     20  C   UNL     1       8.021   0.884  -1.339  0.00  0.00    +0.010 C 
ENDBRANCH  14  15
BRANCH   5  21
ATOM     21  N   UNL     1       1.238  -2.080  -0.021  0.00  0.00    -0.286 N 
ATOM     22  C   UNL     1       0.298  -2.771   0.653  0.00  0.00    +0.201 C 
ATOM     23  O   UNL     1      -0.617  -2.184   1.191  0.00  0.00    -0.278 OA
ATOM     24  H   UNL     1       1.933  -2.553  -0.506  0.00  0.00    +0.155 HD
BRANCH  22  25
ATOM     25  C   UNL     1       0.382  -4.273   0.738  0.00  0.00    +0.019 C 
BRANCH  25  26
ATOM     26  N   UNL     1      -0.752  -4.784   1.520  0.00  0.00    +0.385 N 
ATOM     27  C   UNL     1      -0.647  -4.302   2.903  0.00  0.00    -0.077 C 
ATOM     28  C   UNL     1      -1.868  -4.763   3.702  0.00  0.00    -0.006 C 
ATOM     29  C   UNL     1      -1.925  -6.294   3.696  0.00  0.00    +0.071 C 
ATOM     30  C   UNL     1      -1.959  -6.788   2.247  0.00  0.00    -0.006 C 
ATOM     31  C   UNL     1      -0.735  -6.252   1.502  0.00  0.00    -0.077 C 
ATOM     32  H   UNL     1      -1.615  -4.453   1.115  0.00  0.00    -0.081 HD
BRANCH  29  33
ATOM     33  C   UNL     1      -3.168  -6.754   4.415  0.00  0.00    +0.213 C 
ATOM     34  O   UNL     1      -3.933  -5.939   4.886  0.00  0.00    -0.276 OA
ATOM     35  N   UNL     1      -3.429  -8.071   4.534  0.00  0.00    -0.329 N 
ATOM     36  H   UNL     1      -2.817  -8.722   4.158  0.00  0.00    +0.145 HD
ATOM     37  H   UNL     1      -4.228  -8.367   4.997  0.00  0.00    +0.145 HD
ENDBRANCH  29  33
ENDBRANCH  25  26
ENDBRANCH  22  25
ENDBRANCH   5  21
TORSDOF 5
