REMARK  Name = CHEMBL557581
REMARK  0 active torsions:
REMARK  status: ('A' for Active; 'I' for Inactive)
REMARK                            x       y       z     vdW  Elec       q    Type
REMARK                         _______ _______ _______ _____ _____    ______ ____
ROOT
ATOM      1  C   UNL     1      -0.017   1.380   0.010  0.00  0.00    +0.001 A 
ATOM      2  C   UNL     1       1.149   2.126   0.003  0.00  0.00    +0.002 A 
ATOM      3  C   UNL     1       2.402   1.534  -0.009  0.00  0.00    +0.026 A 
ATOM      4  C   UNL     1       2.450   0.140  -0.022  0.00  0.00    +0.048 A 
ATOM      5  C   UNL     1       1.256  -0.618  -0.022  0.00  0.00    +0.008 A 
ATOM      6  C   UNL     1       0.002  -0.004   0.002  0.00  0.00    +0.010 A 
ATOM      7  C   UNL     1       1.650  -2.024  -0.075  0.00  0.00    +0.022 A 
ATOM      8  C   UNL     1       0.943  -3.232  -0.089  0.00  0.00    +0.060 A 
ATOM      9  C   UNL     1       1.632  -4.455  -0.190  0.00  0.00    +0.060 A 
ATOM     10  C   UNL     1       3.031  -4.458  -0.263  0.00  0.00    +0.022 A 
ATOM     11  C   UNL     1       4.052  -5.509  -0.306  0.00  0.00    +0.009 A 
ATOM     12  C   UNL     1       4.019  -6.887  -0.514  0.00  0.00    +0.010 A 
ATOM     13  C   UNL     1       5.145  -7.655  -0.312  0.00  0.00    +0.001 A 
ATOM     14  C   UNL     1       6.306  -7.035   0.143  0.00  0.00    +0.004 A 
ATOM     15  C   UNL     1       6.359  -5.685   0.256  0.00  0.00    -0.040 A 
ATOM     16  C   UNL     1       5.283  -4.847  -0.141  0.00  0.00    +0.052 A 
ATOM     17  N   UNL     1       5.099  -3.532  -0.424  0.00  0.00    -0.338 N 
ATOM     18  C   UNL     1       3.735  -3.250  -0.232  0.00  0.00    +0.075 A 
ATOM     19  C   UNL     1       3.058  -2.033  -0.116  0.00  0.00    +0.073 A 
ATOM     20  N   UNL     1       3.510  -0.726  -0.040  0.00  0.00    -0.352 N 
ATOM     21  H   UNL     1       4.443  -0.463  -0.004  0.00  0.00    +0.166 HD
ATOM     22  C   UNL     1       5.821  -2.538  -1.208  0.00  0.00    +0.122 C 
ATOM     23  C   UNL     1       7.034  -3.007  -1.939  0.00  0.00    +0.020 C 
ATOM     24  C   UNL     1       8.335  -3.112  -1.120  0.00  0.00    -0.017 C 
ATOM     25  C   UNL     1       8.681  -4.642  -1.254  0.00  0.00    -0.082 C 
ATOM     26  N   UNL     1       8.757  -5.159   0.120  0.00  0.00    +0.382 N 
ATOM     27  C   UNL     1       7.526  -4.958   0.920  0.00  0.00    -0.045 C 
ATOM     28  C   UNL     1       0.598  -5.505  -0.175  0.00  0.00    +0.252 C 
ATOM     29  O   UNL     1       0.800  -6.701  -0.255  0.00  0.00    -0.270 OA
ATOM     30  N   UNL     1      -0.607  -4.919  -0.056  0.00  0.00    -0.248 N 
ATOM     31  C   UNL     1      -0.489  -3.579  -0.010  0.00  0.00    +0.252 C 
ATOM     32  O   UNL     1      -1.407  -2.788   0.081  0.00  0.00    -0.270 OA
ATOM     33  H   UNL     1       8.954  -6.148   0.080  0.00  0.00    -0.085 HD
ATOM     34  H   UNL     1      -1.449  -5.398  -0.010  0.00  0.00    +0.158 HD
ATOM     35  H   UNL     1       9.523  -4.703   0.592  0.00  0.00    -0.085 HD
ENDROOT
TORSDOF 0
