REMARK  Name = CHEMBL186898
REMARK  3 active torsions:
REMARK  status: ('A' for Active; 'I' for Inactive)
REMARK    1  A    between atoms: C_6  and  C_7
REMARK    2  A    between atoms: C_7  and  C_8
REMARK    3  A    between atoms: C_14  and  C_16
REMARK                            x       y       z     vdW  Elec       q    Type
REMARK                         _______ _______ _______ _____ _____    ______ ____
ROOT
ATOM      1  C   UNL     1      -1.744  -1.015  -1.408  0.00  0.00    +0.223 C 
ATOM      2  O   UNL     1      -1.073  -0.610  -2.334  0.00  0.00    -0.275 OA
ATOM      3  N   UNL     1      -2.888  -1.685  -1.647  0.00  0.00    -0.264 N 
ATOM      4  C   UNL     1      -3.300  -1.912  -2.955  0.00  0.00    +0.165 A 
ATOM      5  N   UNL     1      -2.705  -1.557  -4.073  0.00  0.00    -0.233 NA
ATOM      6  C   UNL     1      -3.229  -1.851  -5.248  0.00  0.00    +0.124 A 
ATOM      7  C   UNL     1      -4.402  -2.532  -5.247  0.00  0.00    +0.014 A 
ATOM      8  S   UNL     1      -4.678  -2.716  -3.492  0.00  0.00    -0.057 S 
ATOM      9  H   UNL     1      -3.425  -2.008  -0.906  0.00  0.00    +0.157 HD
ENDROOT
BRANCH   7  10
ATOM     10  C   UNL     1      -5.239  -3.007  -6.406  0.00  0.00    +0.027 C 
ATOM     11  C   UNL     1      -6.753  -2.896  -6.160  0.00  0.00    +0.009 C 
ATOM     12  C   UNL     1      -6.887  -4.256  -6.865  0.00  0.00    +0.001 C 
ATOM     13  C   UNL     1      -5.435  -4.532  -6.441  0.00  0.00    +0.009 C 
ENDBRANCH   7  10
BRANCH   1  14
ATOM     14  C   UNL     1      -1.297  -0.768   0.010  0.00  0.00    +0.131 C 
BRANCH  14  20
ATOM     15  C   UNL     1      -0.017   1.383   0.010  0.00  0.00    +0.006 A 
ATOM     16  C   UNL     1       1.162   2.098   0.002  0.00  0.00    +0.028 A 
ATOM     17  C   UNL     1       2.375   1.424  -0.013  0.00  0.00    +0.066 A 
ATOM     18  C   UNL     1       2.394   0.018  -0.021  0.00  0.00    +0.089 A 
ATOM     19  C   UNL     1       1.187  -0.685  -0.013  0.00  0.00    +0.034 A 
ATOM     20  C   UNL     1       0.002  -0.004   0.002  0.00  0.00    -0.036 A 
ATOM     21  N   UNL     1       3.698  -0.360  -0.035  0.00  0.00    -0.236 NA
ATOM     22  C   UNL     1       4.459   0.695  -0.037  0.00  0.00    +0.197 A 
ATOM     23  N   UNL     1       3.697   1.822  -0.024  0.00  0.00    -0.344 N 
ATOM     24  H   UNL     1       4.022   2.736  -0.022  0.00  0.00    +0.167 HD
ENDBRANCH  14  20
ENDBRANCH   1  14
TORSDOF 3
