REMARK  Name = CHEMBL378584
REMARK  3 active torsions:
REMARK  status: ('A' for Active; 'I' for Inactive)
REMARK    1  A    between atoms: C_4  and  C_7
REMARK    2  A    between atoms: C_7  and  C_8
REMARK    3  A    between atoms: N_10  and  C_11
REMARK                            x       y       z     vdW  Elec       q    Type
REMARK                         _______ _______ _______ _____ _____    ______ ____
ROOT
ATOM      1  C   UNL     1       5.743  -1.841   2.918  0.00  0.00    +0.125 A 
ATOM      2  C   UNL     1       6.888  -2.475   3.295  0.00  0.00    +0.034 A 
ATOM      3  C   UNL     1       6.926  -2.497   4.691  0.00  0.00    +0.087 A 
ATOM      4  N   UNL     1       5.849  -1.901   5.140  0.00  0.00    -0.175 NA
ATOM      5  N   UNL     1       5.090  -1.474   4.043  0.00  0.00    -0.263 N 
ATOM      6  H   UNL     1       4.244  -1.001   4.084  0.00  0.00    +0.190 HD
ATOM      7  C   UNL     1       8.189  -3.196   5.127  0.00  0.00    +0.167 C 
ATOM      8  N   UNL     1       8.917  -3.598   3.919  0.00  0.00    -0.275 N 
ATOM      9  C   UNL     1       8.123  -3.158   2.768  0.00  0.00    +0.150 C 
ATOM     10  C   UNL     1      10.096  -4.250   3.876  0.00  0.00    +0.300 C 
ATOM     11  O   UNL     1      10.598  -4.527   2.804  0.00  0.00    -0.253 OA
ATOM     12  N   UNL     1      10.717  -4.596   5.021  0.00  0.00    -0.313 N 
ATOM     13  H   UNL     1      10.316  -4.375   5.876  0.00  0.00    +0.146 HD
ATOM     14  H   UNL     1      11.565  -5.065   4.990  0.00  0.00    +0.146 HD
ENDROOT
BRANCH   1  17
ATOM     15  C   UNL     1       4.164  -0.959   1.377  0.00  0.00    +0.223 C 
ATOM     16  O   UNL     1       3.486  -0.579   2.308  0.00  0.00    -0.275 OA
ATOM     17  N   UNL     1       5.323  -1.607   1.608  0.00  0.00    -0.270 N 
ATOM     18  H   UNL     1       5.866  -1.911   0.864  0.00  0.00    +0.156 HD
BRANCH  15  19
ATOM     19  C   UNL     1       3.711  -0.707  -0.038  0.00  0.00    +0.131 C 
BRANCH  19  23
ATOM     20  C   UNL     1      -0.017   1.378   0.010  0.00  0.00    +0.000 A 
ATOM     21  C   UNL     1       1.171   2.086   0.002  0.00  0.00    +0.000 A 
ATOM     22  C   UNL     1       2.377   1.411  -0.013  0.00  0.00    +0.004 A 
ATOM     23  C   UNL     1       2.396   0.029  -0.020  0.00  0.00    -0.039 A 
ATOM     24  C   UNL     1       1.208  -0.679  -0.012  0.00  0.00    +0.004 A 
ATOM     25  C   UNL     1       0.002  -0.004   0.002  0.00  0.00    +0.000 A 
ENDBRANCH  19  23
ENDBRANCH  15  19
ENDBRANCH   1  17
TORSDOF 3
