REMARK  Name = CHEMBL191865
REMARK  5 active torsions:
REMARK  status: ('A' for Active; 'I' for Inactive)
REMARK    1  A    between atoms: C_1  and  C_2
REMARK    2  A    between atoms: C_2  and  C_3
REMARK    3  A    between atoms: C_2  and  C_16
REMARK    4  A    between atoms: C_6  and  N_9
REMARK    5  A    between atoms: C_21  and  C_25
REMARK                            x       y       z     vdW  Elec       q    Type
REMARK                         _______ _______ _______ _____ _____    ______ ____
ROOT
ATOM      1  C   UNL     1       0.075   1.288   0.817  0.00  0.00    +0.022 C 
ATOM      2  C   UNL     1       0.002  -0.004   0.001  0.00  0.00    +0.102 C 
ENDROOT
BRANCH   2   3
ATOM      3  C   UNL     1       0.922  -1.033   0.607  0.00  0.00    +0.225 C 
ATOM      4  O   UNL     1       0.473  -2.086   1.008  0.00  0.00    -0.275 OA
ATOM      5  N   UNL     1       2.243  -0.783   0.703  0.00  0.00    -0.268 N 
ATOM      6  C   UNL     1       3.098  -1.740   1.266  0.00  0.00    +0.147 A 
ATOM      7  C   UNL     1       2.717  -2.997   1.762  0.00  0.00    +0.068 A 
ATOM      8  C   UNL     1       3.828  -3.618   2.218  0.00  0.00    +0.041 A 
ATOM      9  N   UNL     1       4.876  -2.790   2.019  0.00  0.00    -0.280 N 
ATOM     10  H   UNL     1       5.800  -2.974   2.250  0.00  0.00    +0.189 HD
ATOM     11  N   UNL     1       4.396  -1.620   1.416  0.00  0.00    -0.158 NA
ATOM     12  H   UNL     1       2.601   0.059   0.382  0.00  0.00    +0.156 HD
BRANCH   8  13
ATOM     13  C   UNL     1       3.887  -4.990   2.837  0.00  0.00    +0.037 C 
ATOM     14  C   UNL     1       4.922  -5.224   3.940  0.00  0.00    +0.010 C 
ATOM     15  C   UNL     1       5.127  -5.840   2.554  0.00  0.00    +0.010 C 
ENDBRANCH   8  13
ENDBRANCH   2   3
BRANCH   2  16
ATOM     16  C   UNL     1      -1.412  -0.526   0.012  0.00  0.00    -0.036 A 
ATOM     17  C   UNL     1      -2.019  -0.847   1.212  0.00  0.00    +0.006 A 
ATOM     18  C   UNL     1      -3.315  -1.325   1.225  0.00  0.00    +0.024 A 
ATOM     19  C   UNL     1      -4.008  -1.483   0.032  0.00  0.00    +0.036 A 
ATOM     20  C   UNL     1      -3.395  -1.160  -1.171  0.00  0.00    +0.024 A 
ATOM     21  C   UNL     1      -2.100  -0.677  -1.178  0.00  0.00    +0.006 A 
BRANCH  19  22
ATOM     22  N   UNL     1      -5.320  -1.968   0.042  0.00  0.00    -0.271 N 
ATOM     23  C   UNL     1      -5.517  -3.408  -0.064  0.00  0.00    +0.113 C 
ATOM     24  C   UNL     1      -6.913  -3.795   0.427  0.00  0.00    +0.020 C 
ATOM     25  C   UNL     1      -7.945  -2.904  -0.275  0.00  0.00    +0.011 C 
ATOM     26  C   UNL     1      -7.762  -1.468   0.222  0.00  0.00    +0.096 C 
ATOM     27  C   UNL     1      -6.312  -1.083   0.154  0.00  0.00    +0.220 C 
ATOM     28  O   UNL     1      -6.028   0.095   0.200  0.00  0.00    -0.275 OA
ENDBRANCH  19  22
ENDBRANCH   2  16
TORSDOF 4
