REMARK  Name = CHEMBL343151
REMARK  5 active torsions:
REMARK  status: ('A' for Active; 'I' for Inactive)
REMARK    1  A    between atoms: C_9  and  N_14
REMARK    2  A    between atoms: C_10  and  O_13
REMARK    3  A    between atoms: N_15  and  C_16
REMARK    4  A    between atoms: C_19  and  S_22
REMARK    5  A    between atoms: S_22  and  N_25
REMARK                            x       y       z     vdW  Elec       q    Type
REMARK                         _______ _______ _______ _____ _____    ______ ____
ROOT
ATOM      1  C   UNL     1       3.817   3.796  -3.971  0.00  0.00    +0.020 A 
ATOM      2  C   UNL     1       4.102   4.161  -2.683  0.00  0.00    +0.012 A 
ATOM      3  C   UNL     1       5.343   3.790  -2.149  0.00  0.00    +0.012 A 
ATOM      4  C   UNL     1       6.250   3.058  -2.953  0.00  0.00    +0.072 A 
ATOM      5  C   UNL     1       7.498   2.685  -2.417  0.00  0.00    +0.030 A 
ATOM      6  C   UNL     1       7.843   3.015  -1.147  0.00  0.00    +0.028 A 
ATOM      7  C   UNL     1       6.982   3.738  -0.313  0.00  0.00    +0.052 A 
ATOM      8  C   UNL     1       5.730   4.136  -0.788  0.00  0.00    +0.040 A 
ATOM      9  C   UNL     1       5.079   4.863   0.310  0.00  0.00    +0.155 A 
ATOM     10  C   UNL     1       5.979   4.853   1.368  0.00  0.00    +0.219 A 
ATOM     11  N   UNL     1       7.101   4.186   0.990  0.00  0.00    -0.324 N 
ATOM     12  H   UNL     1       7.876   4.044   1.555  0.00  0.00    +0.169 HD
ATOM     13  N   UNL     1       5.912   2.733  -4.204  0.00  0.00    -0.255 NA
ATOM     14  C   UNL     1       4.751   3.077  -4.709  0.00  0.00    +0.111 A 
ENDROOT
BRANCH  10  15
ATOM     15  O   UNL     1       5.773   5.418   2.579  0.00  0.00    -0.492 OA
ATOM     16  H   UNL     1       5.458   4.800   3.253  0.00  0.00    +0.294 HD
ENDBRANCH  10  15
BRANCH   9  17
ATOM     17  N   UNL     1       3.853   5.428   0.294  0.00  0.00    -0.143 NA
ATOM     18  N   UNL     1       2.975   5.089   1.178  0.00  0.00    -0.149 NA
BRANCH  18  19
ATOM     19  C   UNL     1       3.375   4.523   2.357  0.00  0.00    +0.086 A 
ATOM     20  C   UNL     1       4.146   3.357   2.349  0.00  0.00    +0.031 A 
ATOM     21  C   UNL     1       4.546   2.792   3.542  0.00  0.00    +0.030 A 
ATOM     22  C   UNL     1       4.185   3.375   4.744  0.00  0.00    +0.105 A 
ATOM     23  C   UNL     1       3.422   4.529   4.759  0.00  0.00    +0.030 A 
ATOM     24  C   UNL     1       3.020   5.110   3.574  0.00  0.00    +0.031 A 
BRANCH  22  25
ATOM     25  S   UNL     1       4.700   2.645   6.263  0.00  0.00    +0.056 S 
ATOM     26  O   UNL     1       3.776   3.075   7.253  0.00  0.00    -0.153 OA
ATOM     27  O   UNL     1       4.942   1.271   5.991  0.00  0.00    -0.153 OA
BRANCH  25  28
ATOM     28  N   UNL     1       6.162   3.314   6.657  0.00  0.00    -0.204 NA
ATOM     29  H   UNL     1       6.564   3.980   6.076  0.00  0.00    +0.144 HD
ATOM     30  H   UNL     1       6.618   3.041   7.468  0.00  0.00    +0.144 HD
ENDBRANCH  25  28
ENDBRANCH  22  25
ENDBRANCH  18  19
ENDBRANCH   9  17
TORSDOF 5
