REMARK  Name = CHEMBL1087791
REMARK  10 active torsions:
REMARK  status: ('A' for Active; 'I' for Inactive)
REMARK    1  A    between atoms: C_1  and  C_2
REMARK    2  A    between atoms: C_2  and  CA_3
REMARK    3  A    between atoms: CA_3  and  C_5
REMARK    4  A    between atoms: CA_3  and  N_7
REMARK    5  A    between atoms: C_5  and  O_6
REMARK    6  A    between atoms: N_14  and  C_17
REMARK    7  A    between atoms: C_17  and  C_18
REMARK    8  A    between atoms: C_17  and  C_19
REMARK    9  A    between atoms: N_20  and  C_21
REMARK   10  A    between atoms: C_21  and  C_22
REMARK                            x       y       z     vdW  Elec       q    Type
REMARK                         _______ _______ _______ _____ _____    ______ ____
ROOT
ATOM      1  N   UNL     1      -2.105  -0.148  -1.230  0.00  0.00    -0.310 N 
ATOM      2  C   UNL     1      -2.707   1.097  -1.337  0.00  0.00    +0.196 A 
ATOM      3  N   UNL     1      -3.313   1.423  -2.467  0.00  0.00    -0.199 NA
ATOM      4  C   UNL     1      -3.902   2.609  -2.606  0.00  0.00    +0.147 A 
ATOM      5  C   UNL     1      -3.870   3.509  -1.539  0.00  0.00    +0.107 A 
ATOM      6  C   UNL     1      -3.224   3.130  -0.368  0.00  0.00    +0.127 A 
ATOM      7  N   UNL     1      -2.662   1.922  -0.303  0.00  0.00    -0.314 N 
ATOM      8  N   UNL     1      -3.301   4.153   0.569  0.00  0.00    -0.297 N 
ATOM      9  C   UNL     1      -4.047   5.260  -0.042  0.00  0.00    +0.212 C 
ATOM     10  N   UNL     1      -4.394   4.807  -1.396  0.00  0.00    -0.323 N 
ATOM     11  N   UNL     1      -4.537   2.947  -3.795  0.00  0.00    -0.323 N 
ATOM     12  H   UNL     1      -2.130  -0.764  -1.980  0.00  0.00    +0.149 HD
ATOM     13  H   UNL     1      -4.890   5.307  -2.063  0.00  0.00    +0.148 HD
ATOM     14  H   UNL     1      -4.963   3.813  -3.888  0.00  0.00    +0.148 HD
ATOM     15  H   UNL     1      -2.212   1.646   0.511  0.00  0.00    +0.170 HD
ENDROOT
BRANCH   8  16
ATOM     16  C   UNL     1      -2.741   4.131   1.922  0.00  0.00    +0.070 C 
ATOM     17  C   UNL     1      -1.729   5.268   2.074  0.00  0.00    +0.028 C 
ATOM     18  C   UNL     1      -3.866   4.310   2.943  0.00  0.00    +0.028 C 
ENDBRANCH   8  16
BRANCH   1  19
ATOM     19  CA  UNL     1      -1.433  -0.534   0.013  0.00  0.00    +0.098 C 
BRANCH  19  21
ATOM     20  C   UNL     1      -0.019   1.526   0.010  0.00  0.00    +0.006 C 
ATOM     21  C   UNL     1       0.002  -0.004   0.002  0.00  0.00    +0.021 C 
ENDBRANCH  19  21
BRANCH  19  22
ATOM     22  C   UNL     1      -1.413  -2.059   0.130  0.00  0.00    +0.178 C 
BRANCH  22  23
ATOM     23  O   UNL     1      -0.612  -2.607  -0.918  0.00  0.00    -0.393 OA
ATOM     24  H   UNL     1      -0.554  -3.572  -0.906  0.00  0.00    +0.209 HD
ENDBRANCH  22  23
ENDBRANCH  19  22
ENDBRANCH   1  19
BRANCH  11  25
ATOM     25  C   UNL     1      -4.562   1.994  -4.908  0.00  0.00    +0.138 C 
BRANCH  25  26
ATOM     26  C   UNL     1      -5.306   2.600  -6.070  0.00  0.00    -0.030 A 
ATOM     27  C   UNL     1      -6.673   2.423  -6.184  0.00  0.00    +0.005 A 
ATOM     28  C   UNL     1      -7.355   2.978  -7.250  0.00  0.00    +0.000 A 
ATOM     29  C   UNL     1      -6.672   3.711  -8.202  0.00  0.00    +0.000 A 
ATOM     30  C   UNL     1      -5.306   3.888  -8.088  0.00  0.00    +0.000 A 
ATOM     31  C   UNL     1      -4.624   3.337  -7.020  0.00  0.00    +0.005 A 
ENDBRANCH  25  26
ENDBRANCH  11  25
TORSDOF 7
