REMARK  Name = CHEMBL192556
REMARK  6 active torsions:
REMARK  status: ('A' for Active; 'I' for Inactive)
REMARK    1  A    between atoms: C_1  and  C_2
REMARK    2  A    between atoms: C_2  and  C_3
REMARK    3  A    between atoms: C_2  and  C_18
REMARK    4  A    between atoms: C_6  and  N_9
REMARK    5  A    between atoms: C_12  and  C_15
REMARK    6  A    between atoms: C_23  and  C_27
REMARK                            x       y       z     vdW  Elec       q    Type
REMARK                         _______ _______ _______ _____ _____    ______ ____
ROOT
ATOM      1  C   UNL     1       0.707  -0.490  -1.238  0.00  0.00    -0.036 A 
ATOM      2  C   UNL     1       0.229  -0.138  -2.487  0.00  0.00    +0.006 A 
ATOM      3  C   UNL     1       0.873  -0.582  -3.625  0.00  0.00    +0.024 A 
ATOM      4  C   UNL     1       2.003  -1.382  -3.514  0.00  0.00    +0.036 A 
ATOM      5  C   UNL     1       2.481  -1.734  -2.259  0.00  0.00    +0.024 A 
ATOM      6  C   UNL     1       1.835  -1.282  -1.124  0.00  0.00    +0.006 A 
ENDROOT
BRANCH   4   7
ATOM      7  N   UNL     1       2.658  -1.834  -4.665  0.00  0.00    -0.271 N 
ATOM      8  C   UNL     1       3.918  -2.586  -4.660  0.00  0.00    +0.115 C 
ATOM      9  C   UNL     1       4.020  -3.228  -6.061  0.00  0.00    +0.041 C 
ATOM     10  C   UNL     1       3.162  -2.265  -6.914  0.00  0.00    +0.162 C 
ATOM     11  C   UNL     1       2.210  -1.640  -5.918  0.00  0.00    +0.232 C 
ATOM     12  O   UNL     1       1.192  -1.047  -6.208  0.00  0.00    -0.274 OA
BRANCH  10  13
ATOM     13  C   UNL     1       2.395  -3.030  -7.962  0.00  0.00    +0.222 C 
ATOM     14  O   UNL     1       2.509  -4.234  -8.039  0.00  0.00    -0.275 OA
ATOM     15  N   UNL     1       1.582  -2.374  -8.814  0.00  0.00    -0.329 N 
ATOM     16  H   UNL     1       1.491  -1.410  -8.753  0.00  0.00    +0.145 HD
ATOM     17  H   UNL     1       1.089  -2.866  -9.489  0.00  0.00    +0.145 HD
ENDBRANCH  10  13
ENDBRANCH   4   7
BRANCH   1  19
ATOM     18  C   UNL     1      -0.003   1.526   0.019  0.00  0.00    +0.022 C 
ATOM     19  C   UNL     1       0.002  -0.004   0.002  0.00  0.00    +0.102 C 
BRANCH  19  20
ATOM     20  C   UNL     1      -1.417  -0.511   0.004  0.00  0.00    +0.225 C 
ATOM     21  O   UNL     1      -1.816  -1.200  -0.911  0.00  0.00    -0.275 OA
ATOM     22  N   UNL     1      -2.242  -0.200   1.023  0.00  0.00    -0.268 N 
ATOM     23  C   UNL     1      -3.562  -0.672   1.025  0.00  0.00    +0.147 A 
ATOM     24  C   UNL     1      -4.151  -1.478   0.038  0.00  0.00    +0.068 A 
ATOM     25  C   UNL     1      -5.431  -1.715   0.405  0.00  0.00    +0.041 A 
ATOM     26  N   UNL     1      -5.648  -1.085   1.579  0.00  0.00    -0.280 N 
ATOM     27  H   UNL     1      -6.480  -1.082   2.078  0.00  0.00    +0.189 HD
ATOM     28  N   UNL     1      -4.462  -0.442   1.952  0.00  0.00    -0.158 NA
ATOM     29  H   UNL     1      -1.923   0.351   1.755  0.00  0.00    +0.156 HD
BRANCH  25  30
ATOM     30  C   UNL     1      -6.436  -2.536  -0.361  0.00  0.00    +0.037 C 
ATOM     31  C   UNL     1      -7.902  -2.102  -0.292  0.00  0.00    +0.010 C 
ATOM     32  C   UNL     1      -7.441  -3.359   0.449  0.00  0.00    +0.010 C 
ENDBRANCH  25  30
ENDBRANCH  19  20
ENDBRANCH   1  19
TORSDOF 5
