REMARK  Name = CHEMBL500804
REMARK  1 active torsions:
REMARK  status: ('A' for Active; 'I' for Inactive)
REMARK    1  A    between atoms: C_3  and  C_4
REMARK                            x       y       z     vdW  Elec       q    Type
REMARK                         _______ _______ _______ _____ _____    ______ ____
ROOT
ATOM      1  C   UNL     1      -0.402  -0.698  -1.273  0.00  0.00    +0.221 C 
ATOM      2  O   UNL     1      -0.728  -0.046  -2.242  0.00  0.00    -0.275 OA
ATOM      3  N   UNL     1      -0.402  -2.045  -1.336  0.00  0.00    -0.272 N 
ATOM      4  C   UNL     1      -0.775  -2.684  -2.511  0.00  0.00    +0.132 C 
ATOM      5  N   UNL     1      -1.144  -2.127  -3.635  0.00  0.00    -0.171 NA
ATOM      6  N   UNL     1      -1.451  -3.110  -4.603  0.00  0.00    -0.239 N 
ATOM      7  C   UNL     1      -1.888  -4.210  -3.894  0.00  0.00    +0.040 C 
ATOM      8  C   UNL     1      -2.637  -5.262  -3.613  0.00  0.00    +0.021 C 
ATOM      9  C   UNL     1      -2.510  -5.606  -2.194  0.00  0.00    -0.002 C 
ATOM     10  C   UNL     1      -1.475  -4.958  -1.654  0.00  0.00    -0.010 C 
ATOM     11  C   UNL     1      -0.835  -4.172  -2.764  0.00  0.00    +0.123 C 
ATOM     12  H   UNL     1      -0.142  -2.567  -0.561  0.00  0.00    +0.156 HD
ATOM     13  H   UNL     1      -1.373  -3.028  -5.566  0.00  0.00    +0.174 HD
ENDROOT
BRANCH   1  16
ATOM     14  C   UNL     1      -0.019   1.526   0.010  0.00  0.00    +0.013 C 
ATOM     15  C   UNL     1       1.317   0.779  -0.006  0.00  0.00    +0.013 C 
ATOM     16  C   UNL     1       0.002  -0.004   0.002  0.00  0.00    +0.075 C 
ENDBRANCH   1  16
TORSDOF 1
