REMARK  Name = CHEMBL420463
REMARK  13 active torsions:
REMARK  status: ('A' for Active; 'I' for Inactive)
REMARK    1  A    between atoms: C_1  and  C_2
REMARK    2  A    between atoms: C_2  and  C_3
REMARK    3  A    between atoms: C_2  and  C_4
REMARK    4  A    between atoms: C_2  and  C_5
REMARK    5  A    between atoms: C_8  and  C_10
REMARK    6  A    between atoms: C_10  and  S_11
REMARK    7  A    between atoms: S_11  and  C_12
REMARK    8  A    between atoms: N_17  and  C_18
REMARK    9  A    between atoms: C_21  and  S_24
REMARK   10  A    between atoms: S_24  and  N_27
REMARK   11  A    between atoms: N_27  and  C_28
REMARK   12  A    between atoms: C_28  and  C_29
REMARK   13  A    between atoms: C_29  and  O_30
REMARK                            x       y       z     vdW  Elec       q    Type
REMARK                         _______ _______ _______ _____ _____    ______ ____
ROOT
ATOM      1  C   UNL     1       0.665  -4.959  -5.493  0.00  0.00    +0.067 A 
ATOM      2  C   UNL     1       1.050  -6.211  -5.866  0.00  0.00    +0.135 A 
ATOM      3  N   UNL     1       0.987  -6.562  -7.138  0.00  0.00    -0.232 NA
ATOM      4  C   UNL     1       0.556  -5.721  -8.061  0.00  0.00    +0.163 A 
ATOM      5  S   UNL     1       0.185  -4.276  -7.075  0.00  0.00    -0.046 S 
ATOM      6  N   UNL     1       0.422  -5.910  -9.431  0.00  0.00    -0.294 N 
ATOM      7  H   UNL     1       0.172  -5.165 -10.001  0.00  0.00    +0.154 HD
ENDROOT
BRANCH   6   8
ATOM      8  C   UNL     1       0.648  -7.171  -9.988  0.00  0.00    +0.033 A 
ATOM      9  C   UNL     1       0.451  -8.314  -9.223  0.00  0.00    +0.025 A 
ATOM     10  C   UNL     1       0.675  -9.560  -9.777  0.00  0.00    +0.030 A 
ATOM     11  C   UNL     1       1.094  -9.669 -11.090  0.00  0.00    +0.105 A 
ATOM     12  C   UNL     1       1.291  -8.533 -11.854  0.00  0.00    +0.030 A 
ATOM     13  C   UNL     1       1.063  -7.285 -11.309  0.00  0.00    +0.025 A 
BRANCH  11  14
ATOM     14  S   UNL     1       1.379 -11.260 -11.792  0.00  0.00    +0.058 S 
ATOM     15  O   UNL     1       2.289 -11.073 -12.867  0.00  0.00    -0.153 OA
ATOM     16  O   UNL     1       1.649 -12.140 -10.709  0.00  0.00    -0.153 OA
BRANCH  14  17
ATOM     17  N   UNL     1      -0.050 -11.762 -12.463  0.00  0.00    -0.188 NA
ATOM     18  H   UNL     1      -0.509 -12.537 -12.104  0.00  0.00    +0.148 HD
BRANCH  17  19
ATOM     19  C   UNL     1      -0.620 -11.035 -13.600  0.00  0.00    +0.133 C 
BRANCH  19  20
ATOM     20  C   UNL     1      -1.705 -11.889 -14.259  0.00  0.00    +0.172 C 
BRANCH  20  21
ATOM     21  O   UNL     1      -2.788 -12.071 -13.345  0.00  0.00    -0.394 OA
ATOM     22  H   UNL     1      -3.514 -12.604 -13.697  0.00  0.00    +0.209 HD
ENDBRANCH  20  21
ENDBRANCH  19  20
ENDBRANCH  17  19
ENDBRANCH  14  17
ENDBRANCH  11  14
ENDBRANCH   6   8
BRANCH   1  23
ATOM     23  S   UNL     1       0.639  -4.220  -3.894  0.00  0.00    -0.107 S 
BRANCH  23  24
ATOM     24  C   UNL     1      -0.002  -2.549  -4.194  0.00  0.00    +0.170 C 
BRANCH  24  28
ATOM     25  C   UNL     1      -0.806  -0.995  -1.010  0.00  0.00    +0.131 A 
ATOM     26  C   UNL     1       0.447  -0.556  -1.212  0.00  0.00    +0.156 A 
ATOM     27  N   UNL     1       0.875  -1.067  -2.380  0.00  0.00    -0.221 NA
ATOM     28  C   UNL     1      -0.075  -1.798  -2.889  0.00  0.00    +0.206 A 
ATOM     29  O   UNL     1      -1.127  -1.776  -2.060  0.00  0.00    -0.443 OA
BRANCH  25  31
ATOM     30  C   UNL     1      -1.911   0.835   0.249  0.00  0.00    +0.019 C 
ATOM     31  C   UNL     1      -1.686  -0.677   0.172  0.00  0.00    +0.022 C 
ATOM     32  C   UNL     1      -1.008  -1.158   1.456  0.00  0.00    +0.019 C 
ATOM     33  C   UNL     1      -3.033  -1.385   0.009  0.00  0.00    +0.019 C 
ENDBRANCH  25  31
ENDBRANCH  24  28
ENDBRANCH  23  24
ENDBRANCH   1  23
TORSDOF 10
