REMARK  Name = CHEMBL361196
REMARK  2 active torsions:
REMARK  status: ('A' for Active; 'I' for Inactive)
REMARK    1  A    between atoms: C_3  and  C_7
REMARK    2  A    between atoms: C_17  and  C_19
REMARK                            x       y       z     vdW  Elec       q    Type
REMARK                         _______ _______ _______ _____ _____    ______ ____
ROOT
ATOM      1  C   UNL     1       3.680   2.029  -0.023  0.00  0.00    +0.140 A 
ATOM      2  C   UNL     1       4.886   1.412  -0.043  0.00  0.00    +0.063 A 
ATOM      3  C   UNL     1       5.884   2.479  -0.045  0.00  0.00    +0.080 A 
ATOM      4  C   UNL     1       7.285   2.535  -0.062  0.00  0.00    +0.139 A 
ATOM      5  N   UNL     1       7.868   3.730  -0.058  0.00  0.00    -0.220 NA
ATOM      6  C   UNL     1       7.147   4.837  -0.040  0.00  0.00    +0.227 A 
ATOM      7  N   UNL     1       5.831   4.830  -0.024  0.00  0.00    -0.200 NA
ATOM      8  C   UNL     1       5.157   3.684  -0.026  0.00  0.00    +0.233 A 
ATOM      9  O   UNL     1       3.851   3.366  -0.018  0.00  0.00    -0.437 OA
ATOM     10  N   UNL     1       8.044   1.373  -0.081  0.00  0.00    -0.270 N 
ATOM     11  C   UNL     1       9.389   1.447  -0.097  0.00  0.00    +0.221 C 
ATOM     12  O   UNL     1       9.937   2.529  -0.095  0.00  0.00    -0.275 OA
ATOM     13  H   UNL     1       7.606   0.508  -0.084  0.00  0.00    +0.156 HD
ENDROOT
BRANCH   1  16
ATOM     14  C   UNL     1      -0.017   1.379   0.010  0.00  0.00    +0.020 A 
ATOM     15  C   UNL     1       1.181   2.073   0.002  0.00  0.00    +0.014 A 
ATOM     16  C   UNL     1       2.373   1.339  -0.013  0.00  0.00    +0.035 A 
ATOM     17  C   UNL     1       2.306  -0.056  -0.020  0.00  0.00    +0.122 A 
ATOM     18  N   UNL     1       1.141  -0.670  -0.012  0.00  0.00    -0.263 NA
ATOM     19  C   UNL     1       0.002  -0.004   0.002  0.00  0.00    +0.111 A 
ENDBRANCH   1  16
BRANCH  11  20
ATOM     20  C   UNL     1      10.213   0.185  -0.118  0.00  0.00    +0.075 C 
ATOM     21  C   UNL     1      11.029  -0.146   1.133  0.00  0.00    +0.013 C 
ATOM     22  C   UNL     1      11.736   0.336  -0.135  0.00  0.00    +0.013 C 
ENDBRANCH  11  20
TORSDOF 2
