REMARK  Name = CHEMBL356034
REMARK  5 active torsions:
REMARK  status: ('A' for Active; 'I' for Inactive)
REMARK    1  A    between atoms: N_9  and  C_10
REMARK    2  A    between atoms: N_15  and  C_16
REMARK    3  A    between atoms: C_19  and  N_22
REMARK    4  A    between atoms: N_23  and  C_24
REMARK    5  A    between atoms: C_24  and  C_25
REMARK                            x       y       z     vdW  Elec       q    Type
REMARK                         _______ _______ _______ _____ _____    ______ ____
ROOT
ATOM      1  C   UNL     1      -0.016   1.360   0.009  0.00  0.00    +0.202 A 
ATOM      2  N   UNL     1       1.200   1.821   0.000  0.00  0.00    -0.231 NA
ATOM      3  C   UNL     1       2.075   0.785  -0.013  0.00  0.00    +0.148 A 
ATOM      4  C   UNL     1       3.476   0.677  -0.028  0.00  0.00    +0.152 A 
ATOM      5  N   UNL     1       4.021  -0.534  -0.040  0.00  0.00    -0.197 NA
ATOM      6  C   UNL     1       3.265  -1.625  -0.039  0.00  0.00    +0.219 A 
ATOM      7  N   UNL     1       1.944  -1.569  -0.025  0.00  0.00    -0.195 NA
ATOM      8  C   UNL     1       1.316  -0.397  -0.013  0.00  0.00    +0.167 A 
ATOM      9  N   UNL     1       0.002  -0.004   0.002  0.00  0.00    -0.312 N 
ATOM     10  N   UNL     1       3.882  -2.866  -0.052  0.00  0.00    -0.311 N 
ATOM     11  N   UNL     1       4.272   1.809  -0.030  0.00  0.00    -0.327 N 
ATOM     12  H   UNL     1       3.346  -3.674  -0.051  0.00  0.00    +0.149 HD
ATOM     13  H   UNL     1       3.864   2.689  -0.021  0.00  0.00    +0.148 HD
ENDROOT
BRANCH  10  14
ATOM     14  C   UNL     1       5.344  -2.957  -0.067  0.00  0.00    +0.073 C 
ATOM     15  C   UNL     1       5.846  -2.854  -1.509  0.00  0.00    +0.021 C 
ATOM     16  C   UNL     1       7.373  -2.949  -1.525  0.00  0.00    -0.014 C 
ATOM     17  C   UNL     1       7.807  -4.289  -0.927  0.00  0.00    -0.075 C 
ATOM     18  C   UNL     1       7.305  -4.391   0.514  0.00  0.00    -0.014 C 
ATOM     19  C   UNL     1       5.778  -4.296   0.530  0.00  0.00    +0.021 C 
BRANCH  17  20
ATOM     20  N   UNL     1       9.273  -4.380  -0.943  0.00  0.00    +0.380 N 
ATOM     21  H   UNL     1       9.663  -3.627  -0.397  0.00  0.00    -0.090 HD
ATOM     22  H   UNL     1       9.560  -5.264  -0.549  0.00  0.00    -0.090 HD
ATOM     23  H   UNL     1       9.605  -4.313  -1.894  0.00  0.00    -0.090 HD
ENDBRANCH  17  20
ENDBRANCH  10  14
BRANCH   9  24
ATOM     24  C   UNL     1      -1.167  -0.887   0.008  0.00  0.00    +0.090 C 
ATOM     25  C   UNL     1      -2.051  -0.585   1.236  0.00  0.00    +0.025 C 
ATOM     26  C   UNL     1      -3.128   0.390   0.698  0.00  0.00    +0.002 C 
ATOM     27  C   UNL     1      -3.416  -0.167  -0.718  0.00  0.00    +0.002 C 
ATOM     28  C   UNL     1      -2.035  -0.622  -1.234  0.00  0.00    +0.025 C 
ENDBRANCH   9  24
BRANCH  11  29
ATOM     29  C   UNL     1       5.731   1.679  -0.045  0.00  0.00    +0.106 C 
BRANCH  29  30
ATOM     30  C   UNL     1       6.367   3.071  -0.044  0.00  0.00    +0.006 C 
ATOM     31  C   UNL     1       7.197   3.469  -1.266  0.00  0.00    +0.005 C 
ATOM     32  C   UNL     1       7.892   3.150   0.060  0.00  0.00    +0.005 C 
ENDBRANCH  29  30
ENDBRANCH  11  29
TORSDOF 5
