REMARK  Name = CHEMBL497854
REMARK  6 active torsions:
REMARK  status: ('A' for Active; 'I' for Inactive)
REMARK    1  A    between atoms: C_1  and  C_2
REMARK    2  A    between atoms: C_4  and  C_7
REMARK    3  A    between atoms: C_7  and  N_8
REMARK    4  A    between atoms: C_13  and  N_15
REMARK    5  A    between atoms: N_15  and  C_16
REMARK    6  A    between atoms: C_18  and  C_22
REMARK                            x       y       z     vdW  Elec       q    Type
REMARK                         _______ _______ _______ _____ _____    ______ ____
ROOT
ATOM      1  N   UNL     1       1.424  -3.694  -1.928  0.00  0.00    -0.308 N 
ATOM      2  C   UNL     1       1.688  -4.785  -2.739  0.00  0.00    +0.195 A 
ATOM      3  N   UNL     1       0.675  -5.476  -3.241  0.00  0.00    -0.333 N 
ATOM      4  C   UNL     1       0.887  -6.526  -4.020  0.00  0.00    +0.104 A 
ATOM      5  C   UNL     1       2.186  -6.902  -4.310  0.00  0.00    +0.074 A 
ATOM      6  C   UNL     1       3.232  -6.153  -3.766  0.00  0.00    +0.143 A 
ATOM      7  N   UNL     1       2.946  -5.108  -2.996  0.00  0.00    -0.200 NA
ATOM      8 BR   UNL     1       2.536  -8.394  -5.417  0.00  0.00    -0.045 Br
ATOM      9  H   UNL     1       2.156  -3.177  -1.557  0.00  0.00    +0.149 HD
ATOM     10  H   UNL     1      -0.234  -5.209  -3.035  0.00  0.00    +0.168 HD
ENDROOT
BRANCH   6  11
ATOM     11  N   UNL     1       4.551  -6.493  -4.029  0.00  0.00    -0.284 N 
ATOM     12  H   UNL     1       4.752  -7.255  -4.595  0.00  0.00    +0.155 HD
BRANCH  11  13
ATOM     13  C   UNL     1       5.587  -5.740  -3.482  0.00  0.00    +0.120 A 
ATOM     14  C   UNL     1       5.452  -4.651  -2.675  0.00  0.00    +0.068 A 
ATOM     15  C   UNL     1       6.733  -4.197  -2.350  0.00  0.00    +0.068 A 
ATOM     16  N   UNL     1       7.608  -4.976  -2.933  0.00  0.00    -0.177 NA
ATOM     17  H   UNL     1       7.316  -6.673  -4.173  0.00  0.00    +0.190 HD
ATOM     18  N   UNL     1       6.917  -5.961  -3.649  0.00  0.00    -0.264 N 
BRANCH  15  19
ATOM     19  C   UNL     1       7.053  -3.012  -1.476  0.00  0.00    +0.040 C 
ATOM     20  C   UNL     1       5.928  -2.011  -1.204  0.00  0.00    +0.010 C 
ATOM     21  C   UNL     1       7.078  -1.633  -2.139  0.00  0.00    +0.010 C 
ENDBRANCH  15  19
ENDBRANCH  11  13
ENDBRANCH   6  11
BRANCH   1  22
ATOM     22  C   UNL     1       0.039  -3.320  -1.631  0.00  0.00    +0.181 C 
BRANCH  22  26
ATOM     23  C   UNL     1      -0.018   1.503   0.010  0.00  0.00    +0.069 C 
ATOM     24  C   UNL     1       0.002  -0.004   0.002  0.00  0.00    +0.081 A 
ATOM     25  C   UNL     1       0.008  -0.824  -1.141  0.00  0.00    +0.072 A 
ATOM     26  C   UNL     1       0.027  -2.108  -0.735  0.00  0.00    +0.154 A 
ATOM     27  O   UNL     1       0.034  -2.119   0.606  0.00  0.00    -0.358 OA
ATOM     28  N   UNL     1       0.023  -0.775   1.052  0.00  0.00    -0.083 NA
ENDBRANCH  22  26
ENDBRANCH   1  22
TORSDOF 5
