REMARK  Name = CHEMBL190091
REMARK  5 active torsions:
REMARK  status: ('A' for Active; 'I' for Inactive)
REMARK    1  A    between atoms: C_1  and  C_2
REMARK    2  A    between atoms: C_2  and  C_3
REMARK    3  A    between atoms: C_7  and  C_11
REMARK    4  A    between atoms: C_11  and  C_12
REMARK    5  A    between atoms: N_18  and  C_20
REMARK                            x       y       z     vdW  Elec       q    Type
REMARK                         _______ _______ _______ _____ _____    ______ ____
ROOT
ATOM      1  C   UNL     1      -1.487  -0.359   0.031  0.00  0.00    +0.078 A 
ATOM      2  C   UNL     1      -2.114  -0.950   1.150  0.00  0.00    +0.108 A 
ATOM      3  C   UNL     1      -3.325  -1.512   0.696  0.00  0.00    +0.171 A 
ATOM      4  N   UNL     1      -4.110  -2.137   1.570  0.00  0.00    -0.212 NA
ATOM      5  C   UNL     1      -3.764  -2.228   2.836  0.00  0.00    +0.141 A 
ATOM      6  N   UNL     1      -2.640  -1.716   3.306  0.00  0.00    -0.193 NA
ATOM      7  C   UNL     1      -1.791  -1.075   2.513  0.00  0.00    +0.284 A 
ATOM      8  O   UNL     1      -0.642  -0.555   3.003  0.00  0.00    -0.265 OA
ATOM      9  N   UNL     1      -3.394  -1.254  -0.643  0.00  0.00    -0.211 N 
ATOM     10  N   UNL     1      -2.248  -0.538  -1.012  0.00  0.00    -0.169 NA
ENDROOT
BRANCH   9  11
ATOM     11  C   UNL     1      -4.436  -1.635  -1.500  0.00  0.00    +0.104 A 
ATOM     12  C   UNL     1      -5.748  -1.291  -1.197  0.00  0.00    +0.069 A 
ATOM     13  C   UNL     1      -6.773  -1.668  -2.044  0.00  0.00    +0.042 A 
ATOM     14  C   UNL     1      -6.494  -2.387  -3.193  0.00  0.00    +0.044 A 
ATOM     15  C   UNL     1      -5.189  -2.731  -3.498  0.00  0.00    +0.042 A 
ATOM     16  C   UNL     1      -4.159  -2.352  -2.658  0.00  0.00    +0.069 A 
ATOM     17 CL   UNL     1      -2.521  -2.777  -3.044  0.00  0.00    -0.081 Cl
ATOM     18 CL   UNL     1      -7.784  -2.859  -4.255  0.00  0.00    -0.083 Cl
ATOM     19 CL   UNL     1      -6.099  -0.389   0.244  0.00  0.00    -0.081 Cl
ENDBRANCH   9  11
BRANCH   1  21
ATOM     20  C   UNL     1      -0.397   1.848   0.327  0.00  0.00    +0.010 C 
ATOM     21  C   UNL     1      -0.165   0.363   0.042  0.00  0.00    +0.055 C 
ENDBRANCH   1  21
BRANCH   5  22
ATOM     22  C   UNL     1      -4.686  -2.945   3.788  0.00  0.00    +0.131 C 
BRANCH  22  23
ATOM     23  C   UNL     1      -4.324  -4.407   3.834  0.00  0.00    +0.049 A 
ATOM     24  C   UNL     1      -4.046  -5.004   5.049  0.00  0.00    +0.024 A 
ATOM     25  C   UNL     1      -3.714  -6.349   5.080  0.00  0.00    +0.003 A 
ATOM     26  C   UNL     1      -3.673  -7.047   3.882  0.00  0.00    +0.020 A 
ATOM     27  C   UNL     1      -3.963  -6.383   2.706  0.00  0.00    +0.111 A 
ATOM     28  N   UNL     1      -4.280  -5.103   2.715  0.00  0.00    -0.259 NA
ENDBRANCH  22  23
ENDBRANCH   5  22
TORSDOF 4
