REMARK  Name = CHEMBL359591
REMARK  2 active torsions:
REMARK  status: ('A' for Active; 'I' for Inactive)
REMARK    1  A    between atoms: C_10  and  N_11
REMARK    2  A    between atoms: C_18  and  C_20
REMARK                            x       y       z     vdW  Elec       q    Type
REMARK                         _______ _______ _______ _____ _____    ______ ____
ROOT
ATOM      1  N   UNL     1      -1.203  -0.712   0.010  0.00  0.00    -0.269 N 
ATOM      2  C   UNL     1      -2.372  -0.051   0.127  0.00  0.00    +0.310 C 
ATOM      3  O   UNL     1      -2.385   1.165   0.134  0.00  0.00    -0.252 OA
ATOM      4  N   UNL     1      -3.526  -0.738   0.236  0.00  0.00    -0.248 N 
ATOM      5  C   UNL     1      -4.731  -0.056   0.357  0.00  0.00    +0.166 A 
ATOM      6  N   UNL     1      -4.938   1.243   0.377  0.00  0.00    -0.233 NA
ATOM      7  C   UNL     1      -6.155   1.739   0.499  0.00  0.00    +0.124 A 
ATOM      8  C   UNL     1      -7.175   0.851   0.602  0.00  0.00    +0.014 A 
ATOM      9  S   UNL     1      -6.282  -0.693   0.505  0.00  0.00    -0.057 S 
ATOM     10  H   UNL     1      -1.198  -1.678  -0.073  0.00  0.00    +0.156 HD
ATOM     11  H   UNL     1      -3.516  -1.708   0.231  0.00  0.00    +0.158 HD
ENDROOT
BRANCH   1  21
ATOM     12  C   UNL     1       0.125   1.157   0.780  0.00  0.00    +0.024 A 
ATOM     13  C   UNL     1       1.285   1.867   0.800  0.00  0.00    +0.012 A 
ATOM     14  C   UNL     1       2.380   1.432   0.037  0.00  0.00    +0.000 A 
ATOM     15  C   UNL     1       3.599   2.128   0.024  0.00  0.00    +0.119 A 
ATOM     16  N   UNL     1       4.598   1.687  -0.704  0.00  0.00    -0.263 NA
ATOM     17  C   UNL     1       4.516   0.590  -1.446  0.00  0.00    +0.111 A 
ATOM     18  C   UNL     1       3.380  -0.156  -1.502  0.00  0.00    +0.028 A 
ATOM     19  C   UNL     1       2.264   0.254  -0.748  0.00  0.00    -0.013 A 
ATOM     20  C   UNL     1       1.059  -0.459  -0.753  0.00  0.00    +0.032 A 
ATOM     21  C   UNL     1       0.002  -0.005   0.009  0.00  0.00    +0.035 A 
ENDBRANCH   1  21
BRANCH   8  22
ATOM     22  C   UNL     1      -8.654   1.099   0.750  0.00  0.00    +0.027 C 
ATOM     23  C   UNL     1      -9.355   0.097   1.683  0.00  0.00    +0.009 C 
ATOM     24  C   UNL     1     -10.521   0.101   0.680  0.00  0.00    +0.001 C 
ATOM     25  C   UNL     1      -9.495   0.505  -0.392  0.00  0.00    +0.009 C 
ENDBRANCH   8  22
TORSDOF 2
