REMARK  Name = CHEMBL478409
REMARK  12 active torsions:
REMARK  status: ('A' for Active; 'I' for Inactive)
REMARK    1  A    between atoms: C_1  and  C_2
REMARK    2  A    between atoms: C_5  and  C_10
REMARK    3  A    between atoms: N_6  and  C_7
REMARK    4  A    between atoms: C_7  and  C_8
REMARK    5  A    between atoms: C_7  and  C_9
REMARK    6  A    between atoms: N_16  and  C_17
REMARK    7  A    between atoms: C_20  and  S_23
REMARK    8  A    between atoms: S_23  and  N_26
REMARK    9  A    between atoms: N_26  and  C_27
REMARK   10  A    between atoms: C_27  and  C_28
REMARK   11  A    between atoms: C_28  and  O_29
REMARK   12  A    between atoms: O_29  and  C_30
REMARK                            x       y       z     vdW  Elec       q    Type
REMARK                         _______ _______ _______ _____ _____    ______ ____
ROOT
ATOM      1  C   UNL     1       0.189  -3.061   1.672  0.00  0.00    +0.094 A 
ATOM      2  C   UNL     1       0.259  -2.844   3.054  0.00  0.00    +0.050 A 
ATOM      3  C   UNL     1       0.441  -3.934   3.883  0.00  0.00    +0.116 A 
ATOM      4  N   UNL     1       0.542  -5.143   3.352  0.00  0.00    -0.223 NA
ATOM      5  C   UNL     1       0.472  -5.321   2.040  0.00  0.00    +0.220 A 
ATOM      6  N   UNL     1       0.293  -4.307   1.209  0.00  0.00    -0.213 NA
ATOM      7  N   UNL     1       0.583  -6.603   1.527  0.00  0.00    -0.284 N 
ATOM      8  H   UNL     1       0.613  -6.740   0.567  0.00  0.00    +0.155 HD
ENDROOT
BRANCH   1  13
ATOM      9  C   UNL     1      -0.303   1.592  -0.201  0.00  0.00    +0.084 C 
ATOM     10  C   UNL     1      -0.220   0.092  -0.079  0.00  0.00    +0.084 A 
ATOM     11  N   UNL     1      -0.337  -0.757  -1.065  0.00  0.00    -0.349 N 
ATOM     12  C   UNL     1      -0.211  -2.004  -0.601  0.00  0.00    +0.112 A 
ATOM     13  C   UNL     1      -0.005  -1.930   0.744  0.00  0.00    +0.085 A 
ATOM     14  N   UNL     1      -0.008  -0.590   1.065  0.00  0.00    -0.326 N 
ATOM     15  H   UNL     1      -0.493  -0.519  -1.992  0.00  0.00    +0.166 HD
BRANCH  14  16
ATOM     16  C   UNL     1       0.182  -0.014   2.399  0.00  0.00    +0.083 C 
ATOM     17  C   UNL     1       1.627  -0.237   2.850  0.00  0.00    +0.030 C 
ATOM     18  C   UNL     1      -0.112   1.487   2.354  0.00  0.00    +0.030 C 
ENDBRANCH  14  16
ENDBRANCH   1  13
BRANCH   7  19
ATOM     19  C   UNL     1       0.650  -7.699   2.392  0.00  0.00    +0.034 A 
ATOM     20  C   UNL     1      -0.066  -7.692   3.582  0.00  0.00    +0.025 A 
ATOM     21  C   UNL     1       0.003  -8.777   4.434  0.00  0.00    +0.030 A 
ATOM     22  C   UNL     1       0.784  -9.870   4.103  0.00  0.00    +0.105 A 
ATOM     23  C   UNL     1       1.498  -9.880   2.919  0.00  0.00    +0.030 A 
ATOM     24  C   UNL     1       1.429  -8.801   2.060  0.00  0.00    +0.025 A 
BRANCH  22  25
ATOM     25  S   UNL     1       0.869 -11.252   5.193  0.00  0.00    +0.058 S 
ATOM     26  O   UNL     1       2.095 -11.914   4.914  0.00  0.00    -0.153 OA
ATOM     27  O   UNL     1       0.542 -10.768   6.488  0.00  0.00    -0.153 OA
BRANCH  25  28
ATOM     28  N   UNL     1      -0.342 -12.294   4.757  0.00  0.00    -0.188 NA
ATOM     29  H   UNL     1      -1.073 -12.471   5.370  0.00  0.00    +0.148 HD
BRANCH  28  30
ATOM     30  C   UNL     1      -0.309 -12.948   3.447  0.00  0.00    +0.134 C 
BRANCH  30  31
ATOM     31  C   UNL     1      -1.300 -14.114   3.434  0.00  0.00    +0.176 C 
BRANCH  31  32
ATOM     32  O   UNL     1      -2.630 -13.610   3.571  0.00  0.00    -0.382 OA
ATOM     33  C   UNL     1      -3.638 -14.623   3.571  0.00  0.00    +0.194 C 
ENDBRANCH  31  32
ENDBRANCH  30  31
ENDBRANCH  28  30
ENDBRANCH  25  28
ENDBRANCH  22  25
ENDBRANCH   7  19
TORSDOF 8
