REMARK  Name = CHEMBL336906
REMARK  5 active torsions:
REMARK  status: ('A' for Active; 'I' for Inactive)
REMARK    1  A    between atoms: C_3  and  S_25
REMARK    2  A    between atoms: C_6  and  N_7
REMARK    3  A    between atoms: N_8  and  C_9
REMARK    4  A    between atoms: C_23  and  O_24
REMARK    5  A    between atoms: S_25  and  N_28
REMARK                            x       y       z     vdW  Elec       q    Type
REMARK                         _______ _______ _______ _____ _____    ______ ____
ROOT
ATOM      1  C   UNL     1      -2.309  -2.691   0.011  0.00  0.00    +0.155 A 
ATOM      2  C   UNL     1      -2.461  -4.152   0.010  0.00  0.00    +0.043 A 
ATOM      3  C   UNL     1      -3.830  -4.409   0.020  0.00  0.00    +0.052 A 
ATOM      4  C   UNL     1      -4.303  -5.731   0.022  0.00  0.00    +0.028 A 
ATOM      5  C   UNL     1      -3.477  -6.801   0.015  0.00  0.00    +0.032 A 
ATOM      6  C   UNL     1      -2.073  -6.637   0.005  0.00  0.00    +0.095 A 
ATOM      7  C   UNL     1      -1.523  -5.273   0.002  0.00  0.00    +0.050 A 
ATOM      8  C   UNL     1      -0.151  -5.402  -0.009  0.00  0.00    +0.133 A 
ATOM      9  N   UNL     1       0.140  -6.713  -0.014  0.00  0.00    -0.265 N 
ATOM     10  N   UNL     1      -1.042  -7.463  -0.003  0.00  0.00    -0.173 NA
ATOM     11  H   UNL     1       1.036  -7.085  -0.021  0.00  0.00    +0.190 HD
ATOM     12 CL   UNL     1       0.998  -4.101  -0.017  0.00  0.00    -0.062 Cl
ATOM     13  N   UNL     1      -4.488  -3.190   0.026  0.00  0.00    -0.324 N 
ATOM     14  H   UNL     1      -5.452  -3.082   0.033  0.00  0.00    +0.169 HD
ATOM     15  C   UNL     1      -3.595  -2.167   0.027  0.00  0.00    +0.219 A 
ENDROOT
BRANCH   1  17
ATOM     16  N   UNL     1      -1.171  -0.707   0.010  0.00  0.00    -0.149 NA
ATOM     17  N   UNL     1      -1.150  -1.997   0.003  0.00  0.00    -0.143 NA
BRANCH  16  23
ATOM     18  C   UNL     1      -0.017   1.393   0.010  0.00  0.00    +0.031 A 
ATOM     19  C   UNL     1       1.170   2.095   0.002  0.00  0.00    +0.030 A 
ATOM     20  C   UNL     1       2.378   1.420  -0.013  0.00  0.00    +0.105 A 
ATOM     21  C   UNL     1       2.404   0.036  -0.021  0.00  0.00    +0.030 A 
ATOM     22  C   UNL     1       1.225  -0.679  -0.014  0.00  0.00    +0.031 A 
ATOM     23  C   UNL     1       0.002  -0.004   0.002  0.00  0.00    +0.086 A 
BRANCH  20  24
ATOM     24  S   UNL     1       3.889   2.326  -0.024  0.00  0.00    +0.056 S 
ATOM     25  O   UNL     1       4.872   1.469  -0.589  0.00  0.00    -0.153 OA
ATOM     26  O   UNL     1       3.591   3.605  -0.566  0.00  0.00    -0.153 OA
BRANCH  24  27
ATOM     27  N   UNL     1       4.325   2.569   1.555  0.00  0.00    -0.204 NA
ATOM     28  H   UNL     1       3.767   2.227   2.270  0.00  0.00    +0.144 HD
ATOM     29  H   UNL     1       5.138   3.055   1.764  0.00  0.00    +0.144 HD
ENDBRANCH  24  27
ENDBRANCH  20  24
ENDBRANCH  16  23
ENDBRANCH   1  17
BRANCH  15  30
ATOM     30  O   UNL     1      -3.907  -0.851   0.037  0.00  0.00    -0.492 OA
ATOM     31  H   UNL     1      -4.007  -0.463  -0.843  0.00  0.00    +0.294 HD
ENDBRANCH  15  30
TORSDOF 5
