REMARK  Name = CHEMBL1080902
REMARK  7 active torsions:
REMARK  status: ('A' for Active; 'I' for Inactive)
REMARK    1  A    between atoms: C_1  and  O_2
REMARK    2  A    between atoms: O_2  and  C_3
REMARK    3  A    between atoms: C_6  and  C_9
REMARK    4  A    between atoms: N_15  and  N_16
REMARK    5  A    between atoms: N_16  and  C_17
REMARK    6  A    between atoms: C_21  and  O_23
REMARK    7  A    between atoms: O_23  and  C_24
REMARK                            x       y       z     vdW  Elec       q    Type
REMARK                         _______ _______ _______ _____ _____    ______ ____
ROOT
ATOM      1  C   UNL     1       2.578  -2.540   4.293  0.00  0.00    +0.121 C 
ATOM      2  N   UNL     1       3.155  -1.952   5.306  0.00  0.00    -0.177 NA
ATOM      3  N   UNL     1       3.697  -2.883   6.191  0.00  0.00    -0.201 N 
ATOM      4  C   UNL     1       3.472  -4.136   5.749  0.00  0.00    +0.285 C 
ATOM      5  O   UNL     1       3.814  -5.175   6.287  0.00  0.00    -0.267 OA
ATOM      6  C   UNL     1       2.725  -3.998   4.488  0.00  0.00    +0.172 C 
ATOM      7  N   UNL     1       2.285  -4.963   3.704  0.00  0.00    -0.175 NA
ATOM      8  H   UNL     1       4.170  -2.660   7.008  0.00  0.00    +0.178 HD
ENDROOT
BRANCH   1  12
ATOM      9  C   UNL     1       0.626  -0.618   1.041  0.00  0.00    +0.120 A 
ATOM     10  C   UNL     1       1.202   0.142   2.050  0.00  0.00    +0.046 A 
ATOM     11  C   UNL     1       1.836  -0.478   3.106  0.00  0.00    +0.014 A 
ATOM     12  C   UNL     1       1.898  -1.871   3.160  0.00  0.00    +0.004 A 
ATOM     13  C   UNL     1       1.317  -2.631   2.145  0.00  0.00    +0.014 A 
ATOM     14  C   UNL     1       0.680  -2.005   1.095  0.00  0.00    +0.046 A 
BRANCH   9  16
ATOM     15  C   UNL     1      -0.017   1.425   0.010  0.00  0.00    +0.277 C 
ATOM     16  O   UNL     1       0.002  -0.004   0.002  0.00  0.00    -0.495 OA
ENDBRANCH   9  16
ENDBRANCH   1  12
BRANCH   7  17
ATOM     17  N   UNL     1       2.497  -6.196   4.018  0.00  0.00    -0.237 N 
ATOM     18  H   UNL     1       2.979  -6.414   4.831  0.00  0.00    +0.174 HD
BRANCH  17  19
ATOM     19  C   UNL     1       2.032  -7.216   3.188  0.00  0.00    +0.052 A 
ATOM     20  C   UNL     1       1.345  -6.906   2.019  0.00  0.00    +0.025 A 
ATOM     21  C   UNL     1       0.885  -7.916   1.199  0.00  0.00    +0.005 A 
ATOM     22  C   UNL     1       1.106  -9.239   1.536  0.00  0.00    +0.046 A 
ATOM     23  C   UNL     1       1.790  -9.556   2.701  0.00  0.00    +0.122 A 
ATOM     24  C   UNL     1       2.259  -8.545   3.525  0.00  0.00    +0.070 A 
BRANCH  23  25
ATOM     25  O   UNL     1       2.005 -10.856   3.031  0.00  0.00    -0.495 OA
ATOM     26  C   UNL     1       1.499 -11.846   2.132  0.00  0.00    +0.277 C 
ENDBRANCH  23  25
ENDBRANCH  17  19
ENDBRANCH   7  17
TORSDOF 5
