REMARK  Name = CHEMBL180993
REMARK  5 active torsions:
REMARK  status: ('A' for Active; 'I' for Inactive)
REMARK    1  A    between atoms: C_1  and  C_2
REMARK    2  A    between atoms: C_2  and  C_3
REMARK    3  A    between atoms: C_2  and  C_4
REMARK    4  A    between atoms: C_5  and  O_21
REMARK    5  A    between atoms: N_14  and  C_15
REMARK                            x       y       z     vdW  Elec       q    Type
REMARK                         _______ _______ _______ _____ _____    ______ ____
ROOT
ATOM      1  C   UNL     1       1.024  -0.101  -1.252  0.00  0.00    +0.023 A 
ATOM      2  C   UNL     1       0.562   0.253  -2.501  0.00  0.00    +0.122 A 
ATOM      3  C   UNL     1       1.086  -0.342  -3.653  0.00  0.00    +0.046 A 
ATOM      4  C   UNL     1       2.063  -1.285  -3.570  0.00  0.00    +0.015 A 
ATOM      5  C   UNL     1       2.555  -1.668  -2.314  0.00  0.00    +0.019 A 
ATOM      6  C   UNL     1       2.034  -1.065  -1.139  0.00  0.00    +0.083 A 
ATOM      7  N   UNL     1       2.522  -1.442   0.050  0.00  0.00    -0.214 NA
ATOM      8  C   UNL     1       3.473  -2.353   0.118  0.00  0.00    +0.220 A 
ATOM      9  N   UNL     1       3.989  -2.934  -0.964  0.00  0.00    -0.222 NA
ATOM     10  C   UNL     1       3.564  -2.638  -2.175  0.00  0.00    +0.124 A 
ATOM     11  N   UNL     1       3.955  -2.720   1.363  0.00  0.00    -0.284 N 
ATOM     12  H   UNL     1       3.539  -2.370   2.166  0.00  0.00    +0.155 HD
ENDROOT
BRANCH  11  13
ATOM     13  C   UNL     1       5.041  -3.594   1.462  0.00  0.00    +0.034 A 
ATOM     14  C   UNL     1       6.049  -3.564   0.507  0.00  0.00    +0.023 A 
ATOM     15  C   UNL     1       7.120  -4.429   0.608  0.00  0.00    +0.002 A 
ATOM     16  C   UNL     1       7.191  -5.325   1.659  0.00  0.00    +0.000 A 
ATOM     17  C   UNL     1       6.189  -5.358   2.612  0.00  0.00    +0.002 A 
ATOM     18  C   UNL     1       5.118  -4.491   2.520  0.00  0.00    +0.023 A 
ENDBRANCH  11  13
BRANCH   1  20
ATOM     19  C   UNL     1       0.680   2.058  -0.083  0.00  0.00    +0.012 C 
ATOM     20  C   UNL     1       0.452   0.547  -0.018  0.00  0.00    +0.019 C 
ATOM     21  C   UNL     1      -1.050   0.262   0.058  0.00  0.00    +0.012 C 
ENDBRANCH   1  20
BRANCH   2  22
ATOM     22  O   UNL     1      -0.413   1.191  -2.614  0.00  0.00    -0.506 OA
ATOM     23  H   UNL     1      -0.081   2.096  -2.694  0.00  0.00    +0.292 HD
ENDBRANCH   2  22
TORSDOF 3
