REMARK  Name = CHEMBL73303
REMARK  4 active torsions:
REMARK  status: ('A' for Active; 'I' for Inactive)
REMARK    1  A    between atoms: C_9  and  C_10
REMARK    2  A    between atoms: N_16  and  C_17
REMARK    3  A    between atoms: C_20  and  S_23
REMARK    4  A    between atoms: S_23  and  N_26
REMARK                            x       y       z     vdW  Elec       q    Type
REMARK                         _______ _______ _______ _____ _____    ______ ____
ROOT
ATOM      1  C   UNL     1       4.877  -0.554  -0.011  0.00  0.00    +0.094 A 
ATOM      2  C   UNL     1       5.319   0.773  -0.111  0.00  0.00    +0.050 A 
ATOM      3  C   UNL     1       6.678   1.013  -0.134  0.00  0.00    +0.116 A 
ATOM      4  N   UNL     1       7.519  -0.009  -0.062  0.00  0.00    -0.223 NA
ATOM      5  C   UNL     1       7.076  -1.254   0.031  0.00  0.00    +0.220 A 
ATOM      6  N   UNL     1       5.782  -1.532   0.062  0.00  0.00    -0.213 NA
ATOM      7  N   UNL     1       7.990  -2.292   0.104  0.00  0.00    -0.284 N 
ATOM      8  H   UNL     1       7.682  -3.212   0.089  0.00  0.00    +0.155 HD
ENDROOT
BRANCH   1  17
ATOM      9  C   UNL     1      -0.014   1.354   0.226  0.00  0.00    +0.005 A 
ATOM     10  C   UNL     1       1.196   2.065   0.225  0.00  0.00    +0.018 A 
ATOM     11  C   UNL     1       2.373   1.403   0.158  0.00  0.00    +0.093 A 
ATOM     12  N   UNL     1       2.401   0.043   0.091  0.00  0.00    -0.298 N 
ATOM     13  C   UNL     1       1.238  -0.678   0.091  0.00  0.00    +0.138 A 
ATOM     14  C   UNL     1       0.003  -0.006   0.160  0.00  0.00    +0.047 A 
ATOM     15  N   UNL     1       1.543  -1.970   0.019  0.00  0.00    -0.235 NA
ATOM     16  C   UNL     1       2.862  -2.116  -0.027  0.00  0.00    +0.141 A 
ATOM     17  C   UNL     1       3.437  -0.863   0.017  0.00  0.00    +0.092 A 
ENDBRANCH   1  17
BRANCH   7  18
ATOM     18  C   UNL     1       9.357  -2.014   0.199  0.00  0.00    +0.034 A 
ATOM     19  C   UNL     1       9.794  -0.902   0.907  0.00  0.00    +0.025 A 
ATOM     20  C   UNL     1      11.145  -0.630   0.998  0.00  0.00    +0.030 A 
ATOM     21  C   UNL     1      12.062  -1.464   0.386  0.00  0.00    +0.105 A 
ATOM     22  C   UNL     1      11.631  -2.572  -0.320  0.00  0.00    +0.030 A 
ATOM     23  C   UNL     1      10.282  -2.853  -0.410  0.00  0.00    +0.025 A 
BRANCH  21  24
ATOM     24  S   UNL     1      13.785  -1.113   0.505  0.00  0.00    +0.056 S 
ATOM     25  O   UNL     1      14.405  -1.738  -0.611  0.00  0.00    -0.153 OA
ATOM     26  O   UNL     1      13.899   0.281   0.758  0.00  0.00    -0.153 OA
BRANCH  24  27
ATOM     27  N   UNL     1      14.351  -1.888   1.855  0.00  0.00    -0.204 NA
ATOM     28  H   UNL     1      13.745  -2.411   2.403  0.00  0.00    +0.144 HD
ATOM     29  H   UNL     1      15.287  -1.818   2.097  0.00  0.00    +0.144 HD
ENDBRANCH  24  27
ENDBRANCH  21  24
ENDBRANCH   7  18
TORSDOF 4
