REMARK  Name = CHEMBL1164264
REMARK  6 active torsions:
REMARK  status: ('A' for Active; 'I' for Inactive)
REMARK    1  A    between atoms: C_1  and  C_2
REMARK    2  A    between atoms: C_3  and  C_7
REMARK    3  A    between atoms: C_7  and  N_8
REMARK    4  A    between atoms: C_9  and  C_11
REMARK    5  A    between atoms: C_16  and  C_21
REMARK    6  A    between atoms: C_22  and  C_27
REMARK                            x       y       z     vdW  Elec       q    Type
REMARK                         _______ _______ _______ _____ _____    ______ ____
ROOT
ATOM      1  C   UNL     1      -4.576   0.841  -2.942  0.00  0.00    +0.039 A 
ATOM      2  C   UNL     1      -3.655   0.746  -3.997  0.00  0.00    +0.014 A 
ATOM      3  C   UNL     1      -4.016   1.098  -5.261  0.00  0.00    +0.011 A 
ATOM      4  C   UNL     1      -5.316   1.559  -5.517  0.00  0.00    +0.000 A 
ATOM      5  C   UNL     1      -5.978   1.990  -6.691  0.00  0.00    +0.037 A 
ATOM      6  C   UNL     1      -7.248   2.329  -6.352  0.00  0.00    +0.068 A 
ATOM      7  N   UNL     1      -7.426   2.132  -5.003  0.00  0.00    -0.353 N 
ATOM      8  H   UNL     1      -8.245   2.299  -4.511  0.00  0.00    +0.166 HD
ATOM      9  C   UNL     1      -6.248   1.656  -4.464  0.00  0.00    +0.048 A 
ATOM     10  C   UNL     1      -5.873   1.291  -3.181  0.00  0.00    +0.039 A 
ENDROOT
BRANCH   6  11
ATOM     11  C   UNL     1      -8.277   2.832  -7.286  0.00  0.00    +0.116 A 
ATOM     12  C   UNL     1      -9.714   2.563  -7.224  0.00  0.00    +0.029 A 
ATOM     13  C   UNL     1     -10.282   3.222  -8.274  0.00  0.00    +0.114 A 
ATOM     14  N   UNL     1      -9.304   3.856  -8.950  0.00  0.00    -0.284 N 
ATOM     15  H   UNL     1      -9.432   4.401  -9.742  0.00  0.00    +0.188 HD
ATOM     16  N   UNL     1      -8.075   3.612  -8.329  0.00  0.00    -0.172 NA
BRANCH  12  17
ATOM     17  C   UNL     1     -10.417   1.734  -6.215  0.00  0.00    -0.014 A 
ATOM     18  C   UNL     1      -9.953   0.455  -5.915  0.00  0.00    +0.008 A 
ATOM     19  C   UNL     1     -10.611  -0.312  -4.975  0.00  0.00    +0.001 A 
ATOM     20  C   UNL     1     -11.729   0.187  -4.331  0.00  0.00    +0.000 A 
ATOM     21  C   UNL     1     -12.194   1.456  -4.625  0.00  0.00    +0.001 A 
ATOM     22  C   UNL     1     -11.541   2.234  -5.559  0.00  0.00    +0.008 A 
ENDBRANCH  12  17
ENDBRANCH   6  11
BRANCH   1  24
ATOM     23  N   UNL     1      -2.917   0.020  -1.343  0.00  0.00    -0.307 N 
ATOM     24  C   UNL     1      -4.171   0.456  -1.577  0.00  0.00    +0.244 C 
ATOM     25  O   UNL     1      -4.969   0.532  -0.662  0.00  0.00    -0.270 OA
ATOM     26  H   UNL     1      -2.281  -0.041  -2.073  0.00  0.00    +0.149 HD
BRANCH  23  27
ATOM     27  C   UNL     1      -2.516  -0.363   0.013  0.00  0.00    +0.145 C 
BRANCH  27  30
ATOM     28  C   UNL     1      -0.018   1.503   0.010  0.00  0.00    +0.089 C 
ATOM     29  C   UNL     1       0.002  -0.004   0.002  0.00  0.00    +0.139 A 
ATOM     30  C   UNL     1      -1.077  -0.810   0.003  0.00  0.00    +0.031 A 
ATOM     31  C   UNL     1      -0.627  -2.143  -0.007  0.00  0.00    +0.162 A 
ATOM     32  N   UNL     1       0.676  -2.130  -0.013  0.00  0.00    -0.086 NA
ATOM     33  O   UNL     1       1.098  -0.778  -0.013  0.00  0.00    -0.360 OA
ENDBRANCH  27  30
ENDBRANCH  23  27
ENDBRANCH   1  24
TORSDOF 5
