REMARK  Name = CHEMBL136397
REMARK  8 active torsions:
REMARK  status: ('A' for Active; 'I' for Inactive)
REMARK    1  A    between atoms: C_3  and  C_24
REMARK    2  A    between atoms: C_9  and  O_23
REMARK    3  A    between atoms: C_10  and  N_11
REMARK    4  A    between atoms: N_12  and  C_13
REMARK    5  A    between atoms: C_16  and  S_19
REMARK    6  A    between atoms: S_19  and  N_22
REMARK    7  A    between atoms: C_25  and  C_26
REMARK    8  A    between atoms: C_29  and  O_32
REMARK                            x       y       z     vdW  Elec       q    Type
REMARK                         _______ _______ _______ _____ _____    ______ ____
ROOT
ATOM      1  C   UNL     1       2.358   4.080  -0.864  0.00  0.00    +0.003 A 
ATOM      2  C   UNL     1       3.658   3.799  -1.243  0.00  0.00    +0.009 A 
ATOM      3  C   UNL     1       4.194   2.531  -1.012  0.00  0.00    -0.014 A 
ATOM      4  C   UNL     1       3.401   1.549  -0.392  0.00  0.00    +0.038 A 
ATOM      5  C   UNL     1       2.085   1.847  -0.012  0.00  0.00    +0.052 A 
ATOM      6  C   UNL     1       1.575   3.119  -0.255  0.00  0.00    +0.026 A 
ATOM      7  N   UNL     1       1.543   0.713   0.566  0.00  0.00    -0.324 N 
ATOM      8  H   UNL     1       0.641   0.648   0.917  0.00  0.00    +0.169 HD
ATOM      9  C   UNL     1       2.453  -0.297   0.573  0.00  0.00    +0.219 A 
ATOM     10  C   UNL     1       3.633   0.147  -0.006  0.00  0.00    +0.155 A 
ENDROOT
BRANCH  10  11
ATOM     11  N   UNL     1       4.767  -0.563  -0.181  0.00  0.00    -0.143 NA
ATOM     12  N   UNL     1       5.300  -0.649  -1.353  0.00  0.00    -0.149 NA
BRANCH  12  13
ATOM     13  C   UNL     1       4.526  -0.495  -2.470  0.00  0.00    +0.086 A 
ATOM     14  C   UNL     1       5.117  -0.174  -3.694  0.00  0.00    +0.031 A 
ATOM     15  C   UNL     1       4.330  -0.020  -4.816  0.00  0.00    +0.030 A 
ATOM     16  C   UNL     1       2.958  -0.182  -4.731  0.00  0.00    +0.105 A 
ATOM     17  C   UNL     1       2.366  -0.499  -3.521  0.00  0.00    +0.030 A 
ATOM     18  C   UNL     1       3.141  -0.662  -2.392  0.00  0.00    +0.031 A 
BRANCH  16  19
ATOM     19  S   UNL     1       1.961   0.016  -6.170  0.00  0.00    +0.056 S 
ATOM     20  O   UNL     1       0.656   0.349  -5.717  0.00  0.00    -0.153 OA
ATOM     21  O   UNL     1       2.693   0.847  -7.060  0.00  0.00    -0.153 OA
BRANCH  19  22
ATOM     22  N   UNL     1       1.846  -1.468  -6.895  0.00  0.00    -0.204 NA
ATOM     23  H   UNL     1       1.053  -1.699  -7.404  0.00  0.00    +0.144 HD
ATOM     24  H   UNL     1       2.571  -2.107  -6.810  0.00  0.00    +0.144 HD
ENDBRANCH  19  22
ENDBRANCH  16  19
ENDBRANCH  12  13
ENDBRANCH  10  11
BRANCH   9  25
ATOM     25  O   UNL     1       2.242  -1.538   1.068  0.00  0.00    -0.492 OA
ATOM     26  H   UNL     1       1.882  -2.162   0.423  0.00  0.00    +0.294 HD
ENDBRANCH   9  25
BRANCH   3  27
ATOM     27  C   UNL     1       5.576   2.226  -1.415  0.00  0.00    +0.009 C 
ATOM     28  C   UNL     1       6.328   3.170  -2.007  0.00  0.00    +0.008 C 
BRANCH  28  29
ATOM     29  C   UNL     1       7.712   2.863  -2.410  0.00  0.00    -0.025 A 
ATOM     30  C   UNL     1       8.243   1.590  -2.182  0.00  0.00    +0.011 A 
ATOM     31  C   UNL     1       9.537   1.309  -2.560  0.00  0.00    +0.046 A 
ATOM     32  C   UNL     1      10.315   2.287  -3.167  0.00  0.00    +0.117 A 
ATOM     33  C   UNL     1       9.791   3.554  -3.395  0.00  0.00    +0.046 A 
ATOM     34  C   UNL     1       8.496   3.843  -3.026  0.00  0.00    +0.011 A 
BRANCH  32  35
ATOM     35  O   UNL     1      11.591   2.005  -3.537  0.00  0.00    -0.507 OA
ATOM     36  H   UNL     1      11.672   1.661  -4.437  0.00  0.00    +0.292 HD
ENDBRANCH  32  35
ENDBRANCH  28  29
ENDBRANCH   3  27
TORSDOF 8
