REMARK  Name = CHEMBL522891
REMARK  3 active torsions:
REMARK  status: ('A' for Active; 'I' for Inactive)
REMARK    1  A    between atoms: C_4  and  C_7
REMARK    2  A    between atoms: N_9  and  C_10
REMARK    3  A    between atoms: C_15  and  C_16
REMARK                            x       y       z     vdW  Elec       q    Type
REMARK                         _______ _______ _______ _____ _____    ______ ____
ROOT
ATOM      1  C   UNL     1       4.944  -2.714  -0.061  0.00  0.00    +0.082 A 
ATOM      2  C   UNL     1       6.175  -2.146  -0.064  0.00  0.00    +0.129 A 
ATOM      3  N   UNL     1       7.095  -3.145  -0.080  0.00  0.00    -0.282 N 
ATOM      4  H   UNL     1       8.059  -3.031  -0.086  0.00  0.00    +0.188 HD
ATOM      5  N   UNL     1       6.412  -4.368  -0.087  0.00  0.00    -0.169 NA
ATOM      6  C   UNL     1       5.118  -4.118  -0.070  0.00  0.00    +0.149 A 
ENDROOT
BRANCH   6   7
ATOM      7  C   UNL     1       4.038  -5.127  -0.065  0.00  0.00    +0.161 A 
ATOM      8  N   UNL     1       4.227  -6.482  -0.068  0.00  0.00    -0.337 N 
ATOM      9  H   UNL     1       5.080  -6.945  -0.075  0.00  0.00    +0.167 HD
ATOM     10  C   UNL     1       2.977  -7.069  -0.060  0.00  0.00    +0.067 A 
ATOM     11  C   UNL     1       2.529  -8.383  -0.059  0.00  0.00    +0.028 A 
ATOM     12  C   UNL     1       1.175  -8.644  -0.051  0.00  0.00    +0.002 A 
ATOM     13  C   UNL     1       0.258  -7.603  -0.042  0.00  0.00    +0.002 A 
ATOM     14  C   UNL     1       0.679  -6.303  -0.043  0.00  0.00    +0.030 A 
ATOM     15  C   UNL     1       2.047  -6.014  -0.052  0.00  0.00    +0.090 A 
ATOM     16  N   UNL     1       2.755  -4.858  -0.050  0.00  0.00    -0.226 NA
ENDBRANCH   6   7
BRANCH   1  19
ATOM     17  C   UNL     1       3.695  -0.684  -0.037  0.00  0.00    +0.248 C 
ATOM     18  O   UNL     1       4.738  -0.060  -0.044  0.00  0.00    -0.270 OA
ATOM     19  N   UNL     1       3.717  -2.032  -0.045  0.00  0.00    -0.278 N 
ATOM     20  H   UNL     1       2.885  -2.531  -0.039  0.00  0.00    +0.155 HD
BRANCH  17  24
ATOM     21  C   UNL     1      -0.017   1.379   0.010  0.00  0.00    +0.000 A 
ATOM     22  C   UNL     1       1.168   2.094   0.002  0.00  0.00    +0.001 A 
ATOM     23  C   UNL     1       2.377   1.429  -0.013  0.00  0.00    +0.013 A 
ATOM     24  C   UNL     1       2.404   0.034  -0.021  0.00  0.00    +0.037 A 
ATOM     25  C   UNL     1       1.204  -0.681  -0.013  0.00  0.00    +0.013 A 
ATOM     26  C   UNL     1       0.002  -0.004   0.002  0.00  0.00    +0.001 A 
ENDBRANCH  17  24
ENDBRANCH   1  19
TORSDOF 3
