REMARK  Name = CHEMBL430703
REMARK  4 active torsions:
REMARK  status: ('A' for Active; 'I' for Inactive)
REMARK    1  A    between atoms: C_1  and  C_2
REMARK    2  A    between atoms: C_2  and  C_3
REMARK    3  A    between atoms: C_2  and  C_4
REMARK    4  A    between atoms: C_11  and  C_13
REMARK                            x       y       z     vdW  Elec       q    Type
REMARK                         _______ _______ _______ _____ _____    ______ ____
ROOT
ATOM      1  C   UNL     1      -1.412  -0.526   0.013  0.00  0.00    +0.040 A 
ATOM      2  C   UNL     1      -1.854  -1.641  -0.612  0.00  0.00    +0.068 A 
ATOM      3  C   UNL     1      -3.227  -1.766  -0.349  0.00  0.00    +0.147 A 
ATOM      4  N   UNL     1      -3.590  -0.757   0.408  0.00  0.00    -0.158 NA
ATOM      5  N   UNL     1      -2.460   0.034   0.652  0.00  0.00    -0.280 N 
ATOM      6  H   UNL     1      -2.436   0.844   1.185  0.00  0.00    +0.189 HD
ATOM      7  N   UNL     1      -4.064  -2.789  -0.814  0.00  0.00    -0.265 N 
ATOM      8  C   UNL     1      -3.562  -3.771  -1.588  0.00  0.00    +0.249 C 
ATOM      9  O   UNL     1      -2.383  -3.769  -1.884  0.00  0.00    -0.270 OA
ATOM     10  H   UNL     1      -5.005  -2.791  -0.578  0.00  0.00    +0.157 HD
ENDROOT
BRANCH   8  11
ATOM     11  C   UNL     1      -4.445  -4.850  -2.079  0.00  0.00    +0.037 A 
ATOM     12  C   UNL     1      -5.801  -4.851  -1.746  0.00  0.00    +0.014 A 
ATOM     13  C   UNL     1      -6.620  -5.861  -2.207  0.00  0.00    +0.016 A 
ATOM     14  C   UNL     1      -6.100  -6.871  -2.998  0.00  0.00    +0.018 A 
ATOM     15  C   UNL     1      -4.755  -6.875  -3.332  0.00  0.00    +0.016 A 
ATOM     16  C   UNL     1      -3.928  -5.868  -2.881  0.00  0.00    +0.014 A 
ATOM     17 BR   UNL     1      -7.229  -8.251  -3.626  0.00  0.00    -0.050 Br
ENDBRANCH   8  11
BRANCH   1  19
ATOM     18  C   UNL     1      -0.019   1.526   0.010  0.00  0.00    +0.014 C 
ATOM     19  C   UNL     1       0.002  -0.004   0.002  0.00  0.00    +0.031 C 
ATOM     20  C   UNL     1       0.742  -0.511   1.242  0.00  0.00    +0.014 C 
ENDBRANCH   1  19
TORSDOF 2
