REMARK  Name = CHEMBL210765
REMARK  8 active torsions:
REMARK  status: ('A' for Active; 'I' for Inactive)
REMARK    1  A    between atoms: C_1  and  N_2
REMARK    2  A    between atoms: N_5  and  C_8
REMARK    3  A    between atoms: C_8  and  C_9
REMARK    4  A    between atoms: C_9  and  C_10
REMARK    5  A    between atoms: N_12  and  S_13
REMARK    6  A    between atoms: S_13  and  C_16
REMARK    7  A    between atoms: C_19  and  N_22
REMARK    8  A    between atoms: C_28  and  C_30
REMARK                            x       y       z     vdW  Elec       q    Type
REMARK                         _______ _______ _______ _____ _____    ______ ____
ROOT
ATOM      1  C   UNL     1      -1.183  -8.911   0.088  0.00  0.00    +0.113 A 
ATOM      2  C   UNL     1      -2.541  -9.120  -0.064  0.00  0.00    +0.031 A 
ATOM      3  C   UNL     1      -3.045  -9.546  -1.278  0.00  0.00    +0.025 A 
ATOM      4  C   UNL     1      -2.184  -9.766  -2.346  0.00  0.00    +0.034 A 
ATOM      5  C   UNL     1      -0.820  -9.555  -2.190  0.00  0.00    +0.025 A 
ATOM      6  C   UNL     1      -0.324  -9.124  -0.975  0.00  0.00    +0.031 A 
ENDROOT
BRANCH   4   7
ATOM      7  N   UNL     1      -2.690 -10.197  -3.575  0.00  0.00    -0.282 N 
ATOM      8  C   UNL     1      -4.009  -9.916  -3.923  0.00  0.00    +0.241 A 
ATOM      9  N   UNL     1      -4.850  -9.148  -3.219  0.00  0.00    -0.180 NA
ATOM     10  C   UNL     1      -6.014  -9.090  -3.828  0.00  0.00    +0.220 A 
ATOM     11  N   UNL     1      -5.929  -9.842  -4.962  0.00  0.00    -0.161 N 
ATOM     12  N   UNL     1      -4.622 -10.356  -4.995  0.00  0.00    -0.124 NA
ATOM     13  C   UNL     1      -6.902 -10.049  -5.871  0.00  0.00    +0.287 C 
ATOM     14  O   UNL     1      -7.963  -9.464  -5.768  0.00  0.00    -0.265 OA
ATOM     15  N   UNL     1      -7.124  -8.393  -3.396  0.00  0.00    -0.327 N 
ATOM     16  H   UNL     1      -2.122 -10.693  -4.186  0.00  0.00    +0.155 HD
ATOM     17  H   UNL     1      -7.086  -7.884  -2.571  0.00  0.00    +0.145 HD
ATOM     18  H   UNL     1      -7.942  -8.412  -3.917  0.00  0.00    +0.145 HD
BRANCH  13  19
ATOM     19  C   UNL     1      -6.681 -10.983  -6.989  0.00  0.00    +0.111 A 
ATOM     20  C   UNL     1      -6.918 -12.352  -6.819  0.00  0.00    +0.139 A 
ATOM     21  C   UNL     1      -6.707 -13.221  -7.873  0.00  0.00    +0.039 A 
ATOM     22  C   UNL     1      -6.264 -12.742  -9.092  0.00  0.00    +0.006 A 
ATOM     23  C   UNL     1      -6.027 -11.391  -9.269  0.00  0.00    +0.039 A 
ATOM     24  C   UNL     1      -6.238 -10.506  -8.228  0.00  0.00    +0.139 A 
ATOM     25  F   UNL     1      -6.012  -9.186  -8.404  0.00  0.00    -0.205 F 
ATOM     26  F   UNL     1      -7.350 -12.823  -5.629  0.00  0.00    -0.205 F 
ENDBRANCH  13  19
ENDBRANCH   4   7
BRANCH   1  27
ATOM     27  S   UNL     1      -0.545  -8.367   1.638  0.00  0.00    +0.102 S 
ATOM     28  O   UNL     1       0.818  -8.765   1.678  0.00  0.00    -0.146 OA
ATOM     29  O   UNL     1      -1.485  -8.766   2.626  0.00  0.00    -0.146 OA
BRANCH  27  32
ATOM     30  C   UNL     1      -0.133  -6.050   2.642  0.00  0.00    +0.266 C 
ATOM     31  O   UNL     1       0.315  -6.708   3.731  0.00  0.00    -0.269 OA
ATOM     32  N   UNL     1      -0.555  -6.711   1.617  0.00  0.00    -0.091 NA
BRANCH  30  33
ATOM     33  C   UNL     1      -0.142  -4.543   2.623  0.00  0.00    +0.117 C 
BRANCH  33  34
ATOM     34  C   UNL     1      -0.694  -4.054   1.282  0.00  0.00    +0.094 C 
BRANCH  34  39
ATOM     35  C   UNL     1      -0.140   1.443   0.175  0.00  0.00    -0.096 C 
ATOM     36  N   UNL     1      -0.104  -0.025   0.145  0.00  0.00    +0.379 N 
ATOM     37  C   UNL     1      -1.477  -0.548   0.147  0.00  0.00    -0.064 C 
ATOM     38  C   UNL     1      -1.440  -2.077   0.098  0.00  0.00    +0.066 C 
ATOM     39  N   UNL     1      -0.703  -2.585   1.263  0.00  0.00    -0.305 NA
ATOM     40  C   UNL     1       0.666  -2.050   1.288  0.00  0.00    +0.066 C 
ATOM     41  C   UNL     1       0.612  -0.521   1.328  0.00  0.00    -0.064 C 
ATOM     42  H   UNL     1       0.371  -0.333  -0.689  0.00  0.00    -0.082 HD
ENDBRANCH  34  39
ENDBRANCH  33  34
ENDBRANCH  30  33
ENDBRANCH  27  32
ENDBRANCH   1  27
TORSDOF 7
