REMARK  Name = CHEMBL112442
REMARK  4 active torsions:
REMARK  status: ('A' for Active; 'I' for Inactive)
REMARK    1  A    between atoms: C_1  and  C_2
REMARK    2  A    between atoms: C_2  and  C_3
REMARK    3  A    between atoms: C_3  and  C_4
REMARK    4  A    between atoms: C_9  and  C_13
REMARK                            x       y       z     vdW  Elec       q    Type
REMARK                         _______ _______ _______ _____ _____    ______ ____
ROOT
ATOM      1  C   UNL     1      -1.413  -2.041   0.005  0.00  0.00    +0.218 C 
ATOM      2  O   UNL     1      -0.354  -2.633  -0.009  0.00  0.00    -0.275 OA
ATOM      3  N   UNL     1      -2.571  -2.730   0.012  0.00  0.00    -0.269 N 
ATOM      4  C   UNL     1      -2.552  -4.132   0.004  0.00  0.00    +0.147 A 
ATOM      5  C   UNL     1      -1.404  -4.941  -0.005  0.00  0.00    +0.068 A 
ATOM      6  C   UNL     1      -1.807  -6.232  -0.011  0.00  0.00    +0.041 A 
ATOM      7  N   UNL     1      -3.157  -6.244  -0.004  0.00  0.00    -0.280 N 
ATOM      8  H   UNL     1      -3.719  -7.035  -0.006  0.00  0.00    +0.189 HD
ATOM      9  N   UNL     1      -3.603  -4.917   0.011  0.00  0.00    -0.158 NA
ATOM     10  H   UNL     1      -3.417  -2.257   0.023  0.00  0.00    +0.156 HD
ENDROOT
BRANCH   6  11
ATOM     11  C   UNL     1      -0.909  -7.442  -0.022  0.00  0.00    +0.037 C 
ATOM     12  C   UNL     1      -1.398  -8.678  -0.778  0.00  0.00    +0.010 C 
ATOM     13  C   UNL     1      -1.376  -8.676   0.752  0.00  0.00    +0.010 C 
ENDBRANCH   6  11
BRANCH   1  14
ATOM     14  C   UNL     1      -1.433  -0.534   0.013  0.00  0.00    +0.096 C 
BRANCH  14  16
ATOM     15  C   UNL     1      -0.019   1.526   0.010  0.00  0.00    +0.004 C 
ATOM     16  C   UNL     1       0.002  -0.004   0.002  0.00  0.00    +0.006 C 
ENDBRANCH  14  16
ENDBRANCH   1  14
TORSDOF 3
