REMARK  Name = CHEMBL258805
REMARK  3 active torsions:
REMARK  status: ('A' for Active; 'I' for Inactive)
REMARK    1  A    between atoms: C_1  and  O_2
REMARK    2  A    between atoms: O_2  and  C_3
REMARK    3  A    between atoms: C_10  and  C_11
REMARK                            x       y       z     vdW  Elec       q    Type
REMARK                         _______ _______ _______ _____ _____    ______ ____
ROOT
ATOM      1  C   UNL     1       0.626  -0.619   1.042  0.00  0.00    +0.121 A 
ATOM      2  C   UNL     1       1.203   0.140   2.053  0.00  0.00    +0.047 A 
ATOM      3  C   UNL     1       1.840  -0.472   3.113  0.00  0.00    +0.027 A 
ATOM      4  C   UNL     1       1.910  -1.859   3.181  0.00  0.00    +0.042 A 
ATOM      5  C   UNL     1       1.327  -2.623   2.161  0.00  0.00    +0.012 A 
ATOM      6  C   UNL     1       0.682  -2.001   1.097  0.00  0.00    +0.056 A 
ATOM      7  C   UNL     1       1.565  -4.041   2.514  0.00  0.00    +0.048 C 
ATOM      8  C   UNL     1       1.175  -5.156   1.807  0.00  0.00    +0.043 C 
ATOM      9  C   UNL     1       2.309  -4.000   3.781  0.00  0.00    +0.249 C 
ATOM     10  O   UNL     1       2.702  -4.965   4.412  0.00  0.00    -0.270 OA
ATOM     11  N   UNL     1       2.481  -2.712   4.121  0.00  0.00    -0.281 N 
ATOM     12  H   UNL     1       2.944  -2.414   4.920  0.00  0.00    +0.155 HD
ENDROOT
BRANCH   8  13
ATOM     13  C   UNL     1       1.499  -6.491   2.310  0.00  0.00    +0.082 A 
ATOM     14  C   UNL     1       1.179  -7.692   1.709  0.00  0.00    +0.111 A 
ATOM     15  N   UNL     1       1.671  -8.671   2.515  0.00  0.00    -0.350 N 
ATOM     16  C   UNL     1       2.272  -8.071   3.575  0.00  0.00    +0.197 A 
ATOM     17  N   UNL     1       2.177  -6.780   3.453  0.00  0.00    -0.237 NA
ATOM     18  H   UNL     1       1.603  -9.626   2.360  0.00  0.00    +0.166 HD
ENDBRANCH   8  13
BRANCH   1  20
ATOM     19  C   UNL     1      -0.017   1.425   0.010  0.00  0.00    +0.277 C 
ATOM     20  O   UNL     1       0.002  -0.004   0.002  0.00  0.00    -0.495 OA
ENDBRANCH   1  20
TORSDOF 2
