REMARK  Name = CHEMBL178452
REMARK  4 active torsions:
REMARK  status: ('A' for Active; 'I' for Inactive)
REMARK    1  A    between atoms: C_1  and  C_2
REMARK    2  A    between atoms: C_2  and  C_3
REMARK    3  A    between atoms: C_2  and  C_4
REMARK    4  A    between atoms: C_4  and  C_5
REMARK                            x       y       z     vdW  Elec       q    Type
REMARK                         _______ _______ _______ _____ _____    ______ ____
ROOT
ATOM      1  C   UNL     1      -1.411  -2.069   0.003  0.00  0.00    +0.045 C 
ATOM      2  C   UNL     1      -2.817  -2.590  -0.295  0.00  0.00    +0.048 C 
ATOM      3  C   UNL     1      -3.713  -2.498   0.910  0.00  0.00    -0.002 A 
ATOM      4  C   UNL     1      -5.035  -2.291   0.989  0.00  0.00    +0.109 A 
ATOM      5  N   UNL     1      -5.388  -2.325   2.295  0.00  0.00    -0.284 N 
ATOM      6  H   UNL     1      -6.286  -2.212   2.645  0.00  0.00    +0.188 HD
ATOM      7  N   UNL     1      -4.229  -2.554   3.058  0.00  0.00    -0.174 NA
ATOM      8  C   UNL     1      -3.228  -2.642   2.244  0.00  0.00    +0.099 A 
ATOM      9  C   UNL     1      -1.769  -2.818   2.439  0.00  0.00    +0.043 A 
ATOM     10  C   UNL     1      -0.905  -2.558   1.334  0.00  0.00    +0.075 A 
ATOM     11  N   UNL     1       0.306  -2.812   1.722  0.00  0.00    -0.178 NA
ATOM     12  N   UNL     1       0.274  -3.199   3.071  0.00  0.00    -0.284 N 
ATOM     13  H   UNL     1       1.042  -3.441   3.611  0.00  0.00    +0.188 HD
ATOM     14  C   UNL     1      -1.014  -3.175   3.489  0.00  0.00    +0.115 A 
ENDROOT
BRANCH   1  15
ATOM     15  C   UNL     1      -1.438  -0.539   0.011  0.00  0.00    +0.013 C 
BRANCH  15  17
ATOM     16  C   UNL     1       0.763  -0.371  -1.158  0.00  0.00    +0.007 C 
ATOM     17  C   UNL     1      -0.008  -0.005   0.111  0.00  0.00    -0.017 C 
ATOM     18  C   UNL     1      -0.042   1.517   0.266  0.00  0.00    +0.007 C 
ENDBRANCH  15  17
ENDBRANCH   1  15
TORSDOF 2
