REMARK  Name = CHEMBL337325
REMARK  12 active torsions:
REMARK  status: ('A' for Active; 'I' for Inactive)
REMARK    1  A    between atoms: C_1  and  O_2
REMARK    2  A    between atoms: O_2  and  C_3
REMARK    3  A    between atoms: C_7  and  O_36
REMARK    4  A    between atoms: C_8  and  C_9
REMARK    5  A    between atoms: C_9  and  N_10
REMARK    6  A    between atoms: C_11  and  C_13
REMARK    7  A    between atoms: C_19  and  N_24
REMARK    8  A    between atoms: C_20  and  O_23
REMARK    9  A    between atoms: N_25  and  C_26
REMARK   10  A    between atoms: C_29  and  S_32
REMARK   11  A    between atoms: S_32  and  N_35
REMARK   12  A    between atoms: O_36  and  C_37
REMARK                            x       y       z     vdW  Elec       q    Type
REMARK                         _______ _______ _______ _____ _____    ______ ____
ROOT
ATOM      1  C   UNL     1       1.687  -4.046  -3.200  0.00  0.00    +0.037 A 
ATOM      2  C   UNL     1       2.986  -3.538  -3.080  0.00  0.00    +0.015 A 
ATOM      3  C   UNL     1       3.913  -3.761  -4.056  0.00  0.00    +0.027 A 
ATOM      4  C   UNL     1       3.577  -4.500  -5.188  0.00  0.00    +0.051 A 
ATOM      5  C   UNL     1       2.275  -5.015  -5.319  0.00  0.00    +0.031 A 
ATOM      6  C   UNL     1       1.333  -4.793  -4.323  0.00  0.00    +0.025 A 
ATOM      7  C   UNL     1       2.247  -5.735  -6.607  0.00  0.00    +0.154 A 
ATOM      8  C   UNL     1       3.515  -5.604  -7.151  0.00  0.00    +0.219 A 
ATOM      9  N   UNL     1       4.293  -4.873  -6.307  0.00  0.00    -0.324 N 
ATOM     10  H   UNL     1       5.223  -4.647  -6.470  0.00  0.00    +0.169 HD
ENDROOT
BRANCH   1  12
ATOM     11  N   UNL     1       1.036  -3.075  -1.051  0.00  0.00    -0.307 N 
ATOM     12  C   UNL     1       0.694  -3.797  -2.136  0.00  0.00    +0.244 C 
ATOM     13  O   UNL     1      -0.433  -4.243  -2.239  0.00  0.00    -0.270 OA
ATOM     14  H   UNL     1       1.935  -2.719  -0.969  0.00  0.00    +0.149 HD
BRANCH  11  15
ATOM     15  C   UNL     1       0.051  -2.828   0.005  0.00  0.00    +0.147 C 
BRANCH  15  21
ATOM     16  C   UNL     1       0.626  -0.618   1.042  0.00  0.00    +0.128 A 
ATOM     17  C   UNL     1       1.202   0.139   2.051  0.00  0.00    +0.046 A 
ATOM     18  C   UNL     1       1.837  -0.485   3.108  0.00  0.00    +0.007 A 
ATOM     19  C   UNL     1       1.899  -1.864   3.162  0.00  0.00    +0.046 A 
ATOM     20  C   UNL     1       1.324  -2.626   2.155  0.00  0.00    +0.128 A 
ATOM     21  C   UNL     1       0.682  -2.002   1.097  0.00  0.00    +0.053 A 
BRANCH  16  23
ATOM     22  C   UNL     1      -0.017   1.425   0.010  0.00  0.00    +0.277 C 
ATOM     23  O   UNL     1       0.002  -0.004   0.002  0.00  0.00    -0.495 OA
ENDBRANCH  16  23
BRANCH  20  24
ATOM     24  O   UNL     1       1.386  -3.982   2.209  0.00  0.00    -0.495 OA
ATOM     25  C   UNL     1       2.059  -4.557   3.332  0.00  0.00    +0.277 C 
ENDBRANCH  20  24
ENDBRANCH  15  21
ENDBRANCH  11  15
ENDBRANCH   1  12
BRANCH   8  26
ATOM     26  O   UNL     1       3.916  -6.121  -8.334  0.00  0.00    -0.492 OA
ATOM     27  H   UNL     1       3.780  -5.531  -9.088  0.00  0.00    +0.294 HD
ENDBRANCH   8  26
BRANCH   7  28
ATOM     28  N   UNL     1       1.198  -6.390  -7.146  0.00  0.00    -0.143 NA
ATOM     29  N   UNL     1       1.322  -6.977  -8.287  0.00  0.00    -0.149 NA
BRANCH  29  30
ATOM     30  C   UNL     1       0.258  -7.641  -8.834  0.00  0.00    +0.086 A 
ATOM     31  C   UNL     1      -0.966  -7.679  -8.162  0.00  0.00    +0.031 A 
ATOM     32  C   UNL     1      -2.034  -8.350  -8.719  0.00  0.00    +0.030 A 
ATOM     33  C   UNL     1      -1.896  -8.984  -9.941  0.00  0.00    +0.105 A 
ATOM     34  C   UNL     1      -0.686  -8.950 -10.613  0.00  0.00    +0.030 A 
ATOM     35  C   UNL     1       0.389  -8.278 -10.070  0.00  0.00    +0.031 A 
BRANCH  33  36
ATOM     36  S   UNL     1      -3.267  -9.838 -10.646  0.00  0.00    +0.056 S 
ATOM     37  O   UNL     1      -2.728 -10.808 -11.534  0.00  0.00    -0.153 OA
ATOM     38  O   UNL     1      -4.126 -10.186  -9.569  0.00  0.00    -0.153 OA
BRANCH  36  39
ATOM     39  N   UNL     1      -4.095  -8.750 -11.580  0.00  0.00    -0.204 NA
ATOM     40  H   UNL     1      -3.783  -7.834 -11.648  0.00  0.00    +0.144 HD
ATOM     41  H   UNL     1      -4.891  -9.028 -12.058  0.00  0.00    +0.144 HD
ENDBRANCH  36  39
ENDBRANCH  33  36
ENDBRANCH  29  30
ENDBRANCH   7  28
TORSDOF 10
