REMARK  Name = CHEMBL311464
REMARK  5 active torsions:
REMARK  status: ('A' for Active; 'I' for Inactive)
REMARK    1  A    between atoms: C_3  and  C_7
REMARK    2  A    between atoms: C_9  and  S_21
REMARK    3  A    between atoms: S_21  and  C_22
REMARK    4  A    between atoms: C_22  and  C_23
REMARK    5  A    between atoms: C_23  and  N_24
REMARK                            x       y       z     vdW  Elec       q    Type
REMARK                         _______ _______ _______ _____ _____    ______ ____
ROOT
ATOM      1  C   UNL     1       3.585   0.679  -0.029  0.00  0.00    +0.012 A 
ATOM      2  C   UNL     1       4.280   1.614  -0.808  0.00  0.00    +0.026 A 
ATOM      3  C   UNL     1       5.667   1.659  -0.863  0.00  0.00    +0.019 A 
ATOM      4  C   UNL     1       6.422   0.690  -0.076  0.00  0.00    +0.033 A 
ATOM      5  C   UNL     1       7.819   0.598  -0.018  0.00  0.00    +0.132 A 
ATOM      6  C   UNL     1       8.381  -0.382   0.782  0.00  0.00    +0.041 A 
ATOM      7  C   UNL     1       7.621  -1.278   1.528  0.00  0.00    +0.027 A 
ATOM      8  C   UNL     1       6.239  -1.212   1.490  0.00  0.00    +0.042 A 
ATOM      9  C   UNL     1       5.690  -0.222   0.683  0.00  0.00    +0.020 A 
ATOM     10  C   UNL     1       4.288  -0.261   0.742  0.00  0.00    +0.056 A 
ATOM     11  C   UNL     1       3.995  -1.357   1.656  0.00  0.00    +0.250 C 
ATOM     12  O   UNL     1       2.884  -1.736   1.985  0.00  0.00    -0.270 OA
ATOM     13  N   UNL     1       5.174  -1.895   2.064  0.00  0.00    -0.281 N 
ATOM     14  F   UNL     1       8.598   1.446  -0.725  0.00  0.00    -0.205 F 
ATOM     15  H   UNL     1       5.260  -2.643   2.677  0.00  0.00    +0.155 HD
ENDROOT
BRANCH   1  18
ATOM     16  C   UNL     1      -0.016   1.349   0.009  0.00  0.00    +0.019 A 
ATOM     17  C   UNL     1       1.312   1.794  -0.001  0.00  0.00    +0.027 A 
ATOM     18  C   UNL     1       2.112   0.686  -0.014  0.00  0.00    +0.047 A 
ATOM     19  N   UNL     1       1.297  -0.420  -0.013  0.00  0.00    -0.361 N 
ATOM     20  H   UNL     1       1.596  -1.343  -0.020  0.00  0.00    +0.165 HD
ATOM     21  C   UNL     1       0.002  -0.004   0.002  0.00  0.00    +0.083 A 
ENDBRANCH   1  18
BRANCH   3  22
ATOM     22  S   UNL     1       6.493   2.855  -1.859  0.00  0.00    -0.126 S 
BRANCH  22  23
ATOM     23  C   UNL     1       5.144   3.800  -2.620  0.00  0.00    +0.055 C 
BRANCH  23  24
ATOM     24  C   UNL     1       5.729   4.887  -3.523  0.00  0.00    -0.075 C 
BRANCH  24  25
ATOM     25  N   UNL     1       4.637   5.652  -4.139  0.00  0.00    +0.379 N 
ATOM     26  H   UNL     1       4.060   5.033  -4.689  0.00  0.00    -0.090 HD
ATOM     27  H   UNL     1       4.077   6.080  -3.417  0.00  0.00    -0.090 HD
ATOM     28  H   UNL     1       5.023   6.369  -4.735  0.00  0.00    -0.090 HD
ENDBRANCH  24  25
ENDBRANCH  23  24
ENDBRANCH  22  23
ENDBRANCH   3  22
TORSDOF 5
