REMARK  Name = CHEMBL1081263
REMARK  7 active torsions:
REMARK  status: ('A' for Active; 'I' for Inactive)
REMARK    1  A    between atoms: C_3  and  C_28
REMARK    2  A    between atoms: C_6  and  C_7
REMARK    3  A    between atoms: C_7  and  C_8
REMARK    4  A    between atoms: C_8  and  C_10
REMARK    5  A    between atoms: C_8  and  N_27
REMARK    6  A    between atoms: C_10  and  N_11
REMARK    7  A    between atoms: C_15  and  C_17
REMARK                            x       y       z     vdW  Elec       q    Type
REMARK                         _______ _______ _______ _____ _____    ______ ____
ROOT
ATOM      1  C   UNL     1      -2.991  -1.917  -1.423  0.00  0.00    +0.087 C 
ENDROOT
BRANCH   1   2
ATOM      2  N   UNL     1      -3.494  -2.062  -2.791  0.00  0.00    -0.325 N 
ATOM      3  C   UNL     1      -4.620  -2.826  -3.037  0.00  0.00    +0.159 A 
ATOM      4  N   UNL     1      -5.366  -3.485  -2.172  0.00  0.00    -0.233 NA
ATOM      5  C   UNL     1      -6.418  -4.173  -2.562  0.00  0.00    +0.129 A 
ATOM      6  C   UNL     1      -6.694  -4.169  -3.904  0.00  0.00    +0.041 A 
ATOM      7  S   UNL     1      -5.373  -3.132  -4.511  0.00  0.00    -0.052 S 
ATOM      8  H   UNL     1      -3.037  -1.621  -3.525  0.00  0.00    +0.148 HD
BRANCH   6   9
ATOM      9  C   UNL     1      -7.785  -4.833  -4.644  0.00  0.00    -0.009 A 
ATOM     10  C   UNL     1      -8.733  -5.604  -3.946  0.00  0.00    +0.010 A 
ATOM     11  C   UNL     1      -9.746  -6.227  -4.601  0.00  0.00    +0.010 A 
ATOM     12  C   UNL     1      -9.857  -6.104  -5.997  0.00  0.00    +0.000 A 
ATOM     13  C   UNL     1     -10.887  -6.729  -6.715  0.00  0.00    +0.119 A 
ATOM     14  N   UNL     1     -10.956  -6.588  -8.019  0.00  0.00    -0.263 NA
ATOM     15  C   UNL     1     -10.082  -5.870  -8.712  0.00  0.00    +0.111 A 
ATOM     16  C   UNL     1      -9.046  -5.224  -8.110  0.00  0.00    +0.028 A 
ATOM     17  C   UNL     1      -8.906  -5.328  -6.712  0.00  0.00    -0.014 A 
ATOM     18  C   UNL     1      -7.871  -4.689  -6.021  0.00  0.00    +0.017 A 
ENDBRANCH   6   9
ENDBRANCH   1   2
BRANCH   1  19
ATOM     19  C   UNL     1      -1.745  -1.028  -1.429  0.00  0.00    -0.053 C 
BRANCH  19  20
ATOM     20  N   UNL     1      -2.060   0.252  -2.076  0.00  0.00    +0.381 N 
ATOM     21  H   UNL     1      -2.799   0.713  -1.567  0.00  0.00    -0.090 HD
ATOM     22  H   UNL     1      -1.238   0.838  -2.079  0.00  0.00    -0.090 HD
ATOM     23  H   UNL     1      -2.358   0.085  -3.025  0.00  0.00    -0.090 HD
ENDBRANCH  19  20
BRANCH  19  24
ATOM     24  C   UNL     1      -1.293  -0.775   0.011  0.00  0.00    +0.020 C 
BRANCH  24  30
ATOM     25  C   UNL     1      -0.017   1.378   0.010  0.00  0.00    +0.004 A 
ATOM     26  C   UNL     1       1.171   2.086   0.002  0.00  0.00    +0.012 A 
ATOM     27  C   UNL     1       2.377   1.411  -0.013  0.00  0.00    +0.055 A 
ATOM     28  C   UNL     1       2.396   0.029  -0.020  0.00  0.00    +0.012 A 
ATOM     29  C   UNL     1       1.208  -0.679  -0.012  0.00  0.00    +0.004 A 
ATOM     30  C   UNL     1       0.002  -0.004   0.002  0.00  0.00    -0.049 A 
BRANCH  27  31
ATOM     31  C   UNL     1       3.672   2.182  -0.022  0.00  0.00    +0.417 C 
ATOM     32  F   UNL     1       4.086   2.414   1.294  0.00  0.00    -0.166 F 
ATOM     33  F   UNL     1       4.651   1.442  -0.695  0.00  0.00    -0.166 F 
ATOM     34  F   UNL     1       3.482   3.405  -0.674  0.00  0.00    -0.166 F 
ENDBRANCH  27  31
ENDBRANCH  24  30
ENDBRANCH  19  24
ENDBRANCH   1  19
TORSDOF 7
