REMARK  Name = CHEMBL495754
REMARK  9 active torsions:
REMARK  status: ('A' for Active; 'I' for Inactive)
REMARK    1  A    between atoms: C_1  and  C_2
REMARK    2  A    between atoms: C_2  and  C_3
REMARK    3  A    between atoms: C_2  and  C_4
REMARK    4  A    between atoms: C_2  and  C_5
REMARK    5  A    between atoms: C_8  and  C_10
REMARK    6  A    between atoms: C_10  and  S_11
REMARK    7  A    between atoms: S_11  and  C_12
REMARK    8  A    between atoms: N_17  and  C_18
REMARK    9  A    between atoms: C_18  and  C_19
REMARK                            x       y       z     vdW  Elec       q    Type
REMARK                         _______ _______ _______ _____ _____    ______ ____
ROOT
ATOM      1  C   UNL     1       1.190  -4.819  -5.598  0.00  0.00    +0.067 A 
ATOM      2  C   UNL     1       1.371  -6.125  -5.931  0.00  0.00    +0.135 A 
ATOM      3  N   UNL     1       1.133  -6.524  -7.169  0.00  0.00    -0.232 NA
ATOM      4  C   UNL     1       0.720  -5.676  -8.094  0.00  0.00    +0.159 A 
ATOM      5  S   UNL     1       0.640  -4.152  -7.164  0.00  0.00    -0.046 S 
ATOM      6  N   UNL     1       0.422  -5.909  -9.431  0.00  0.00    -0.323 N 
ATOM      7  H   UNL     1       0.126  -5.178  -9.996  0.00  0.00    +0.148 HD
ENDROOT
BRANCH   1   8
ATOM      8  S   UNL     1       1.424  -4.009  -4.051  0.00  0.00    -0.107 S 
BRANCH   8   9
ATOM      9  C   UNL     1       0.974  -2.284  -4.386  0.00  0.00    +0.170 C 
BRANCH   9  13
ATOM     10  C   UNL     1       0.707  -0.490  -1.238  0.00  0.00    +0.131 A 
ATOM     11  C   UNL     1       1.979  -0.232  -1.585  0.00  0.00    +0.156 A 
ATOM     12  N   UNL     1       2.215  -0.849  -2.757  0.00  0.00    -0.221 NA
ATOM     13  C   UNL     1       1.132  -1.470  -3.128  0.00  0.00    +0.206 A 
ATOM     14  O   UNL     1       0.183  -1.270  -2.203  0.00  0.00    -0.443 OA
BRANCH  10  16
ATOM     15  C   UNL     1      -0.019   1.526   0.010  0.00  0.00    +0.019 C 
ATOM     16  C   UNL     1       0.002  -0.004   0.002  0.00  0.00    +0.022 C 
ATOM     17  C   UNL     1       0.742  -0.511   1.242  0.00  0.00    +0.019 C 
ATOM     18  C   UNL     1      -1.433  -0.534   0.013  0.00  0.00    +0.019 C 
ENDBRANCH  10  16
ENDBRANCH   9  13
ENDBRANCH   8   9
ENDBRANCH   1   8
BRANCH   6  19
ATOM     19  C   UNL     1       0.554  -7.258  -9.987  0.00  0.00    +0.107 C 
BRANCH  19  20
ATOM     20  C   UNL     1       0.167  -7.239 -11.467  0.00  0.00    +0.006 C 
ATOM     21  C   UNL     1      -1.316  -6.889 -11.603  0.00  0.00    +0.005 C 
ATOM     22  C   UNL     1      -1.702  -6.871 -13.083  0.00  0.00    +0.000 C 
ATOM     23  C   UNL     1      -1.446  -8.250 -13.694  0.00  0.00    +0.000 C 
ATOM     24  C   UNL     1       0.037  -8.600 -13.559  0.00  0.00    +0.000 C 
ATOM     25  C   UNL     1       0.423  -8.618 -12.078  0.00  0.00    +0.005 C 
ENDBRANCH  19  20
ENDBRANCH   6  19
TORSDOF 6
