REMARK  Name = CHEMBL260416
REMARK  3 active torsions:
REMARK  status: ('A' for Active; 'I' for Inactive)
REMARK    1  A    between atoms: C_3  and  O_24
REMARK    2  A    between atoms: C_6  and  C_7
REMARK    3  A    between atoms: C_18  and  C_20
REMARK                            x       y       z     vdW  Elec       q    Type
REMARK                         _______ _______ _______ _____ _____    ______ ____
ROOT
ATOM      1  C   UNL     1      -1.270  -0.764   0.011  0.00  0.00    +0.073 A 
ATOM      2  C   UNL     1      -1.234  -2.163   0.009  0.00  0.00    +0.029 A 
ATOM      3  C   UNL     1      -2.405  -2.868   0.017  0.00  0.00    +0.017 A 
ATOM      4  C   UNL     1      -3.610  -2.154   0.027  0.00  0.00    +0.060 A 
ATOM      5  C   UNL     1      -3.581  -0.745   0.029  0.00  0.00    +0.158 A 
ATOM      6  N   UNL     1      -2.419  -0.106   0.025  0.00  0.00    -0.228 NA
ATOM      7  N   UNL     1      -4.884  -0.326   0.039  0.00  0.00    -0.258 N 
ATOM      8  H   UNL     1      -5.176   0.599   0.042  0.00  0.00    +0.191 HD
ATOM      9  N   UNL     1      -5.729  -1.441   0.044  0.00  0.00    -0.156 NA
ATOM     10  C   UNL     1      -5.021  -2.539   0.037  0.00  0.00    +0.156 A 
ATOM     11  N   UNL     1      -5.521  -3.846   0.038  0.00  0.00    -0.268 N 
ATOM     12  C   UNL     1      -6.853  -4.057   0.048  0.00  0.00    +0.221 C 
ATOM     13  O   UNL     1      -7.616  -3.115   0.055  0.00  0.00    -0.275 OA
ATOM     14  H   UNL     1      -4.911  -4.599   0.032  0.00  0.00    +0.156 HD
ENDROOT
BRANCH   1  20
ATOM     15  C   UNL     1      -0.017   1.390   0.010  0.00  0.00    +0.013 A 
ATOM     16  C   UNL     1       1.169   2.095   0.002  0.00  0.00    +0.047 A 
ATOM     17  C   UNL     1       2.380   1.418  -0.013  0.00  0.00    +0.131 A 
ATOM     18  C   UNL     1       2.403   0.028  -0.022  0.00  0.00    +0.060 A 
ATOM     19  C   UNL     1       1.221  -0.682  -0.014  0.00  0.00    +0.029 A 
ATOM     20  C   UNL     1       0.002  -0.004   0.002  0.00  0.00    +0.002 A 
ATOM     21 BR   UNL     1       4.056  -0.890  -0.044  0.00  0.00    -0.047 Br
BRANCH  17  22
ATOM     22  O   UNL     1       3.546   2.115  -0.021  0.00  0.00    -0.506 OA
ATOM     23  H   UNL     1       3.893   2.312   0.860  0.00  0.00    +0.292 HD
ENDBRANCH  17  22
ENDBRANCH   1  20
BRANCH  12  24
ATOM     24  C   UNL     1      -7.392  -5.464   0.049  0.00  0.00    +0.075 C 
ATOM     25  C   UNL     1      -8.116  -5.945  -1.210  0.00  0.00    +0.013 C 
ATOM     26  C   UNL     1      -8.912  -5.638   0.060  0.00  0.00    +0.013 C 
ENDBRANCH  12  24
TORSDOF 3
