REMARK  Name = CHEMBL1164177
REMARK  6 active torsions:
REMARK  status: ('A' for Active; 'I' for Inactive)
REMARK    1  A    between atoms: C_1  and  N_2
REMARK    2  A    between atoms: C_6  and  C_7
REMARK    3  A    between atoms: C_7  and  N_8
REMARK    4  A    between atoms: C_9  and  C_11
REMARK    5  A    between atoms: C_16  and  C_21
REMARK    6  A    between atoms: C_22  and  C_27
REMARK                            x       y       z     vdW  Elec       q    Type
REMARK                         _______ _______ _______ _____ _____    ______ ____
ROOT
ATOM      1  C   UNL     1       3.047   0.566   4.646  0.00  0.00    +0.039 A 
ATOM      2  C   UNL     1       4.099   0.411   3.732  0.00  0.00    +0.014 A 
ATOM      3  C   UNL     1       5.383   0.663   4.109  0.00  0.00    +0.011 A 
ATOM      4  C   UNL     1       5.660   1.079   5.420  0.00  0.00    +0.000 A 
ATOM      5  C   UNL     1       6.857   1.410   6.099  0.00  0.00    +0.037 A 
ATOM      6  C   UNL     1       6.531   1.749   7.373  0.00  0.00    +0.068 A 
ATOM      7  N   UNL     1       5.170   1.649   7.537  0.00  0.00    -0.353 N 
ATOM      8  H   UNL     1       4.684   1.838   8.355  0.00  0.00    +0.166 HD
ATOM      9  C   UNL     1       4.608   1.238   6.345  0.00  0.00    +0.048 A 
ATOM     10  C   UNL     1       3.304   0.984   5.950  0.00  0.00    +0.039 A 
ENDROOT
BRANCH   6  11
ATOM     11  C   UNL     1       7.490   2.161   8.419  0.00  0.00    +0.116 A 
ATOM     12  C   UNL     1       7.256   3.148   9.474  0.00  0.00    +0.029 A 
ATOM     13  C   UNL     1       8.401   3.214  10.211  0.00  0.00    +0.114 A 
ATOM     14  N   UNL     1       9.290   2.351   9.682  0.00  0.00    -0.284 N 
ATOM     15  H   UNL     1      10.189   2.199  10.014  0.00  0.00    +0.188 HD
ATOM     16  N   UNL     1       8.716   1.706   8.582  0.00  0.00    -0.172 NA
BRANCH  12  17
ATOM     17  C   UNL     1       6.013   3.927   9.698  0.00  0.00    -0.014 A 
ATOM     18  C   UNL     1       5.414   4.608   8.640  0.00  0.00    +0.008 A 
ATOM     19  C   UNL     1       4.258   5.330   8.854  0.00  0.00    +0.001 A 
ATOM     20  C   UNL     1       3.694   5.380  10.116  0.00  0.00    +0.000 A 
ATOM     21  C   UNL     1       4.284   4.706  11.170  0.00  0.00    +0.001 A 
ATOM     22  C   UNL     1       5.438   3.976  10.966  0.00  0.00    +0.008 A 
ENDBRANCH  12  17
ENDBRANCH   6  11
BRANCH   1  24
ATOM     23  N   UNL     1       1.408  -0.115   2.962  0.00  0.00    -0.306 N 
ATOM     24  C   UNL     1       1.661   0.290   4.223  0.00  0.00    +0.244 C 
ATOM     25  O   UNL     1       0.745   0.427   5.012  0.00  0.00    -0.270 OA
ATOM     26  H   UNL     1       2.138  -0.225   2.333  0.00  0.00    +0.149 HD
BRANCH  23  27
ATOM     27  C   UNL     1       0.032  -0.389   2.543  0.00  0.00    +0.159 C 
BRANCH  27  33
ATOM     28  C   UNL     1      -0.018   1.461   0.010  0.00  0.00    +0.150 C 
ATOM     29  N   UNL     1       0.002  -0.004   0.002  0.00  0.00    -0.337 N 
ATOM     30  C   UNL     1       0.009  -0.799  -1.089  0.00  0.00    +0.173 A 
ATOM     31  N   UNL     1       0.027  -2.045  -0.700  0.00  0.00    -0.352 N 
ATOM     32  C   UNL     1       0.033  -2.088   0.641  0.00  0.00    +0.106 A 
ATOM     33  C   UNL     1       0.024  -0.822   1.099  0.00  0.00    +0.053 A 
ATOM     34  H   UNL     1       0.035  -2.817  -1.287  0.00  0.00    +0.166 HD
ENDBRANCH  27  33
ENDBRANCH  23  27
ENDBRANCH   1  24
TORSDOF 5
