REMARK  Name = CHEMBL178769
REMARK  8 active torsions:
REMARK  status: ('A' for Active; 'I' for Inactive)
REMARK    1  A    between atoms: C_1  and  N_2
REMARK    2  A    between atoms: N_2  and  C_3
REMARK    3  A    between atoms: N_2  and  S_4
REMARK    4  A    between atoms: S_4  and  C_7
REMARK    5  A    between atoms: C_10  and  N_14
REMARK    6  A    between atoms: N_14  and  C_15
REMARK    7  A    between atoms: N_25  and  C_26
REMARK    8  A    between atoms: C_29  and  N_32
REMARK                            x       y       z     vdW  Elec       q    Type
REMARK                         _______ _______ _______ _____ _____    ______ ____
ROOT
ATOM      1  C   UNL     1       6.532  -0.577  -3.265  0.00  0.00    +0.130 A 
ATOM      2  C   UNL     1       6.121   0.717  -3.136  0.00  0.00    +0.087 A 
ATOM      3  C   UNL     1       7.029   1.756  -3.400  0.00  0.00    +0.125 A 
ATOM      4  N   UNL     1       8.268   1.478  -3.768  0.00  0.00    -0.212 NA
ATOM      5  C   UNL     1       8.680   0.208  -3.897  0.00  0.00    +0.173 A 
ATOM      6  N   UNL     1       7.826  -0.833  -3.643  0.00  0.00    -0.199 N 
ATOM      7  N   UNL     1       8.532  -2.023  -3.852  0.00  0.00    -0.171 NA
ATOM      8  C   UNL     1       9.761  -1.730  -4.210  0.00  0.00    +0.152 A 
ATOM      9  C   UNL     1       9.899  -0.349  -4.260  0.00  0.00    +0.082 A 
ATOM     10 BR   UNL     1      11.468   0.600  -4.721  0.00  0.00    -0.045 Br
ATOM     11  N   UNL     1       6.625   3.075  -3.273  0.00  0.00    -0.326 N 
ATOM     12  H   UNL     1       5.717   3.280  -3.003  0.00  0.00    +0.148 HD
ENDROOT
BRANCH  11  13
ATOM     13  C   UNL     1       7.571   4.160  -3.547  0.00  0.00    +0.072 C 
ATOM     14  C   UNL     1       8.397   4.446  -2.291  0.00  0.00    +0.020 C 
ATOM     15  C   UNL     1       9.384   5.579  -2.578  0.00  0.00    -0.014 C 
ATOM     16  C   UNL     1       8.613   6.838  -2.979  0.00  0.00    -0.075 C 
ATOM     17  C   UNL     1       7.787   6.552  -4.235  0.00  0.00    -0.014 C 
ATOM     18  C   UNL     1       6.800   5.419  -3.949  0.00  0.00    +0.020 C 
BRANCH  16  19
ATOM     19  N   UNL     1       9.561   7.926  -3.253  0.00  0.00    +0.380 N 
ATOM     20  H   UNL     1      10.176   7.655  -4.006  0.00  0.00    -0.090 HD
ATOM     21  H   UNL     1       9.053   8.757  -3.518  0.00  0.00    -0.090 HD
ATOM     22  H   UNL     1      10.105   8.115  -2.425  0.00  0.00    -0.090 HD
ENDBRANCH  16  19
ENDBRANCH  11  13
BRANCH   1  23
ATOM     23  N   UNL     1       5.659  -1.616  -3.012  0.00  0.00    -0.299 N 
ATOM     24  H   UNL     1       5.234  -1.692  -2.144  0.00  0.00    +0.154 HD
BRANCH  23  28
ATOM     25  C   UNL     1       4.852  -4.425  -5.980  0.00  0.00    +0.124 A 
ATOM     26  C   UNL     1       5.609  -3.307  -6.276  0.00  0.00    +0.032 A 
ATOM     27  C   UNL     1       5.878  -2.374  -5.294  0.00  0.00    +0.025 A 
ATOM     28  C   UNL     1       5.387  -2.559  -4.008  0.00  0.00    +0.034 A 
ATOM     29  C   UNL     1       4.627  -3.683  -3.713  0.00  0.00    +0.045 A 
ATOM     30  C   UNL     1       4.356  -4.611  -4.702  0.00  0.00    +0.069 A 
ATOM     31 CL   UNL     1       3.400  -6.013  -4.337  0.00  0.00    -0.081 Cl
BRANCH  25  32
ATOM     32  S   UNL     1       4.511  -5.613  -7.236  0.00  0.00    +0.062 S 
ATOM     33  O   UNL     1       5.168  -5.162  -8.412  0.00  0.00    -0.153 OA
ATOM     34  O   UNL     1       3.112  -5.860  -7.193  0.00  0.00    -0.153 OA
BRANCH  32  36
ATOM     35  C   UNL     1       4.535  -8.004  -5.972  0.00  0.00    +0.131 C 
ATOM     36  N   UNL     1       5.254  -7.024  -6.790  0.00  0.00    -0.183 NA
ATOM     37  C   UNL     1       6.630  -7.293  -7.214  0.00  0.00    +0.131 C 
ENDBRANCH  32  36
ENDBRANCH  25  32
ENDBRANCH  23  28
ENDBRANCH   1  23
TORSDOF 6
