REMARK  Name = CHEMBL188587
REMARK  7 active torsions:
REMARK  status: ('A' for Active; 'I' for Inactive)
REMARK    1  A    between atoms: C_1  and  C_2
REMARK    2  A    between atoms: C_2  and  C_3
REMARK    3  A    between atoms: C_7  and  C_11
REMARK    4  A    between atoms: C_11  and  C_12
REMARK    5  A    between atoms: C_15  and  N_18
REMARK    6  A    between atoms: C_19  and  C_21
REMARK    7  A    between atoms: N_22  and  C_24
REMARK                            x       y       z     vdW  Elec       q    Type
REMARK                         _______ _______ _______ _____ _____    ______ ____
ROOT
ATOM      1  C   UNL     1       0.510  -0.816  -1.531  0.00  0.00    +0.078 A 
ATOM      2  C   UNL     1      -0.085  -1.181  -2.753  0.00  0.00    +0.106 A 
ATOM      3  C   UNL     1       0.920  -1.746  -3.554  0.00  0.00    +0.171 A 
ATOM      4  N   UNL     1       0.608  -2.182  -4.785  0.00  0.00    -0.214 NA
ATOM      5  C   UNL     1      -0.601  -2.096  -5.258  0.00  0.00    +0.116 A 
ATOM      6  N   UNL     1      -1.635  -1.565  -4.556  0.00  0.00    -0.310 N 
ATOM      7  C   UNL     1      -1.438  -1.093  -3.303  0.00  0.00    +0.263 A 
ATOM      8  O   UNL     1      -2.353  -0.614  -2.658  0.00  0.00    -0.267 OA
ATOM      9  N   UNL     1       2.066  -1.711  -2.821  0.00  0.00    -0.211 N 
ATOM     10  N   UNL     1       1.777  -1.126  -1.582  0.00  0.00    -0.169 NA
ATOM     11  H   UNL     1      -2.518  -1.524  -4.955  0.00  0.00    +0.170 HD
ENDROOT
BRANCH   9  12
ATOM     12  C   UNL     1       3.321  -2.176  -3.238  0.00  0.00    +0.104 A 
ATOM     13  C   UNL     1       3.871  -1.721  -4.430  0.00  0.00    +0.069 A 
ATOM     14  C   UNL     1       5.109  -2.181  -4.838  0.00  0.00    +0.042 A 
ATOM     15  C   UNL     1       5.800  -3.094  -4.060  0.00  0.00    +0.044 A 
ATOM     16  C   UNL     1       5.255  -3.549  -2.872  0.00  0.00    +0.042 A 
ATOM     17  C   UNL     1       4.020  -3.088  -2.456  0.00  0.00    +0.069 A 
ATOM     18 CL   UNL     1       3.340  -3.652  -0.962  0.00  0.00    -0.081 Cl
ATOM     19 CL   UNL     1       7.354  -3.670  -4.576  0.00  0.00    -0.083 Cl
ATOM     20 CL   UNL     1       3.005  -0.577  -5.406  0.00  0.00    -0.081 Cl
ENDBRANCH   9  12
BRANCH   1  22
ATOM     21  C   UNL     1      -0.133   1.351  -0.512  0.00  0.00    +0.010 C 
ATOM     22  C   UNL     1      -0.193  -0.171  -0.365  0.00  0.00    +0.055 C 
ENDBRANCH   1  22
BRANCH   5  23
ATOM     23  C   UNL     1      -0.866  -2.608  -6.650  0.00  0.00    +0.109 C 
BRANCH  23  24
ATOM     24  C   UNL     1       0.434  -3.033  -7.285  0.00  0.00    -0.040 A 
ATOM     25  C   UNL     1       1.180  -2.119  -8.006  0.00  0.00    +0.006 A 
ATOM     26  C   UNL     1       2.372  -2.505  -8.588  0.00  0.00    +0.023 A 
ATOM     27  C   UNL     1       2.820  -3.812  -8.449  0.00  0.00    +0.033 A 
ATOM     28  C   UNL     1       2.068  -4.727  -7.723  0.00  0.00    +0.023 A 
ATOM     29  C   UNL     1       0.880  -4.334  -7.139  0.00  0.00    +0.006 A 
BRANCH  27  30
ATOM     30  N   UNL     1       4.026  -4.206  -9.038  0.00  0.00    -0.286 N 
ATOM     31  C   UNL     1       4.396  -3.689 -10.226  0.00  0.00    +0.214 C 
ATOM     32  O   UNL     1       3.728  -2.819 -10.744  0.00  0.00    -0.276 OA
ATOM     33  C   UNL     1       5.640  -4.192 -10.912  0.00  0.00    +0.109 C 
ATOM     34  H   UNL     1       4.596  -4.852  -8.592  0.00  0.00    +0.155 HD
ENDBRANCH  27  30
ENDBRANCH  23  24
ENDBRANCH   5  23
TORSDOF 5
