REMARK  Name = CHEMBL185781
REMARK  6 active torsions:
REMARK  status: ('A' for Active; 'I' for Inactive)
REMARK    1  A    between atoms: C_1  and  O_2
REMARK    2  A    between atoms: O_2  and  C_3
REMARK    3  A    between atoms: C_6  and  C_9
REMARK    4  A    between atoms: C_19  and  N_23
REMARK    5  A    between atoms: N_26  and  N_27
REMARK    6  A    between atoms: C_28  and  C_30
REMARK                            x       y       z     vdW  Elec       q    Type
REMARK                         _______ _______ _______ _____ _____    ______ ____
ROOT
ATOM      1  C   UNL     1       2.591  -2.533   4.310  0.00  0.00    +0.077 A 
ATOM      2  C   UNL     1       3.485  -3.591   4.218  0.00  0.00    +0.075 A 
ATOM      3  C   UNL     1       3.903  -3.905   5.587  0.00  0.00    +0.105 A 
ATOM      4  N   UNL     1       3.280  -3.073   6.385  0.00  0.00    -0.173 NA
ATOM      5  N   UNL     1       2.473  -2.216   5.630  0.00  0.00    -0.276 N 
ATOM      6  H   UNL     1       1.915  -1.509   5.990  0.00  0.00    +0.189 HD
ATOM      7  C   UNL     1       4.860  -5.037   5.513  0.00  0.00    +0.015 A 
ATOM      8  C   UNL     1       5.554  -5.724   6.501  0.00  0.00    +0.011 A 
ATOM      9  C   UNL     1       6.403  -6.764   6.163  0.00  0.00    +0.002 A 
ATOM     10  C   UNL     1       6.571  -7.131   4.843  0.00  0.00    +0.024 A 
ATOM     11  C   UNL     1       5.887  -6.457   3.837  0.00  0.00    +0.046 A 
ATOM     12  C   UNL     1       5.024  -5.404   4.166  0.00  0.00    +0.053 A 
ATOM     13  C   UNL     1       4.184  -4.526   3.326  0.00  0.00    +0.200 C 
ATOM     14  O   UNL     1       4.088  -4.570   2.114  0.00  0.00    -0.286 OA
ENDROOT
BRANCH   1  18
ATOM     15  C   UNL     1       0.610  -0.623   1.075  0.00  0.00    +0.120 A 
ATOM     16  C   UNL     1       1.196   0.141   2.077  0.00  0.00    +0.046 A 
ATOM     17  C   UNL     1       1.840  -0.474   3.128  0.00  0.00    +0.013 A 
ATOM     18  C   UNL     1       1.903  -1.869   3.186  0.00  0.00    +0.001 A 
ATOM     19  C   UNL     1       1.312  -2.634   2.176  0.00  0.00    +0.013 A 
ATOM     20  C   UNL     1       0.665  -2.010   1.132  0.00  0.00    +0.046 A 
BRANCH  15  22
ATOM     21  C   UNL     1      -0.043   1.417   0.045  0.00  0.00    +0.277 C 
ATOM     22  O   UNL     1      -0.023  -0.012   0.041  0.00  0.00    -0.495 OA
ENDBRANCH  15  22
ENDBRANCH   1  18
BRANCH  11  23
ATOM     23  N   UNL     1       6.059  -6.829   2.506  0.00  0.00    -0.268 N 
ATOM     24  C   UNL     1       6.448  -8.083   2.202  0.00  0.00    +0.320 C 
ATOM     25  O   UNL     1       6.550  -8.918   3.080  0.00  0.00    -0.251 OA
ATOM     26  N   UNL     1       6.724  -8.411   0.924  0.00  0.00    -0.218 N 
ATOM     27  H   UNL     1       5.898  -6.186   1.798  0.00  0.00    +0.156 HD
ATOM     28  H   UNL     1       7.004  -9.314   0.705  0.00  0.00    +0.174 HD
BRANCH  26  29
ATOM     29  N   UNL     1       6.607  -7.449  -0.087  0.00  0.00    -0.229 N 
ATOM     30  C   UNL     1       6.883  -7.777  -1.365  0.00  0.00    +0.260 C 
ATOM     31  O   UNL     1       7.234  -8.908  -1.640  0.00  0.00    -0.269 OA
ATOM     32  H   UNL     1       6.327  -6.547   0.132  0.00  0.00    +0.173 HD
BRANCH  30  33
ATOM     33  C   UNL     1       6.759  -6.763  -2.432  0.00  0.00    +0.039 A 
ATOM     34  C   UNL     1       6.358  -5.454  -2.107  0.00  0.00    +0.014 A 
ATOM     35  C   UNL     1       6.237  -4.505  -3.070  0.00  0.00    +0.009 A 
ATOM     36  C   UNL     1       6.514  -4.823  -4.412  0.00  0.00    -0.018 A 
ATOM     37  C   UNL     1       6.396  -3.857  -5.425  0.00  0.00    +0.008 A 
ATOM     38  C   UNL     1       6.672  -4.194  -6.715  0.00  0.00    +0.001 A 
ATOM     39  C   UNL     1       7.069  -5.488  -7.049  0.00  0.00    +0.001 A 
ATOM     40  C   UNL     1       7.194  -6.450  -6.096  0.00  0.00    +0.008 A 
ATOM     41  C   UNL     1       6.919  -6.139  -4.752  0.00  0.00    -0.017 A 
ATOM     42  C   UNL     1       7.044  -7.106  -3.743  0.00  0.00    +0.021 A 
ENDBRANCH  30  33
ENDBRANCH  26  29
ENDBRANCH  11  23
TORSDOF 5
