REMARK  Name = CHEMBL103355
REMARK  5 active torsions:
REMARK  status: ('A' for Active; 'I' for Inactive)
REMARK    1  A    between atoms: C_1  and  C_2
REMARK    2  A    between atoms: C_6  and  N_8
REMARK    3  A    between atoms: N_15  and  C_16
REMARK    4  A    between atoms: C_19  and  S_22
REMARK    5  A    between atoms: S_22  and  N_25
REMARK                            x       y       z     vdW  Elec       q    Type
REMARK                         _______ _______ _______ _____ _____    ______ ____
ROOT
ATOM      1  N   UNL     1       0.450  -2.727   2.427  0.00  0.00    -0.297 N 
ATOM      2  C   UNL     1       0.347  -2.060   3.638  0.00  0.00    +0.128 A 
ATOM      3  C   UNL     1       0.430  -0.666   3.689  0.00  0.00    +0.063 A 
ATOM      4  C   UNL     1       0.322  -0.045   4.917  0.00  0.00    +0.118 A 
ATOM      5  N   UNL     1       0.145  -0.782   6.004  0.00  0.00    -0.223 NA
ATOM      6  C   UNL     1       0.069  -2.102   5.926  0.00  0.00    +0.221 A 
ATOM      7  N   UNL     1       0.163  -2.737   4.767  0.00  0.00    -0.199 NA
ATOM      8  N   UNL     1      -0.117  -2.837   7.085  0.00  0.00    -0.284 N 
ATOM      9  H   UNL     1       0.492  -2.224   1.599  0.00  0.00    +0.154 HD
ATOM     10  H   UNL     1      -0.100  -3.807   7.053  0.00  0.00    +0.155 HD
ENDROOT
BRANCH   1  16
ATOM     11  C   UNL     1       1.268  -6.982   4.750  0.00  0.00    +0.044 C 
ATOM     12  C   UNL     1       0.886  -6.214   3.511  0.00  0.00    -0.049 A 
ATOM     13  C   UNL     1       0.575  -6.892   2.347  0.00  0.00    +0.006 A 
ATOM     14  C   UNL     1       0.223  -6.191   1.207  0.00  0.00    +0.040 A 
ATOM     15  C   UNL     1       0.180  -4.809   1.230  0.00  0.00    +0.144 A 
ATOM     16  C   UNL     1       0.492  -4.125   2.400  0.00  0.00    +0.068 A 
ATOM     17  C   UNL     1       0.840  -4.833   3.542  0.00  0.00    +0.029 A 
ATOM     18  F   UNL     1      -0.163  -4.125   0.117  0.00  0.00    -0.204 F 
ENDBRANCH   1  16
BRANCH   8  19
ATOM     19  C   UNL     1      -0.329  -2.182   8.302  0.00  0.00    +0.034 A 
ATOM     20  C   UNL     1      -1.056  -0.999   8.338  0.00  0.00    +0.025 A 
ATOM     21  C   UNL     1      -1.264  -0.354   9.541  0.00  0.00    +0.030 A 
ATOM     22  C   UNL     1      -0.750  -0.886  10.710  0.00  0.00    +0.105 A 
ATOM     23  C   UNL     1      -0.026  -2.064  10.678  0.00  0.00    +0.030 A 
ATOM     24  C   UNL     1       0.180  -2.717   9.479  0.00  0.00    +0.025 A 
BRANCH  22  25
ATOM     25  S   UNL     1      -1.018  -0.060  12.244  0.00  0.00    +0.056 S 
ATOM     26  O   UNL     1       0.028  -0.471  13.114  0.00  0.00    -0.153 OA
ATOM     27  O   UNL     1      -1.258   1.305  11.933  0.00  0.00    -0.153 OA
BRANCH  25  28
ATOM     28  N   UNL     1      -2.426  -0.655  12.881  0.00  0.00    -0.204 NA
ATOM     29  H   UNL     1      -2.546  -0.692  13.843  0.00  0.00    +0.144 HD
ATOM     30  H   UNL     1      -3.131  -0.968  12.292  0.00  0.00    +0.144 HD
ENDBRANCH  25  28
ENDBRANCH  22  25
ENDBRANCH   8  19
TORSDOF 4
