REMARK  Name = CHEMBL476577
REMARK  9 active torsions:
REMARK  status: ('A' for Active; 'I' for Inactive)
REMARK    1  A    between atoms: C_1  and  C_2
REMARK    2  A    between atoms: C_5  and  C_10
REMARK    3  A    between atoms: N_6  and  C_7
REMARK    4  A    between atoms: C_7  and  C_8
REMARK    5  A    between atoms: C_7  and  C_9
REMARK    6  A    between atoms: N_16  and  C_17
REMARK    7  A    between atoms: C_20  and  N_23
REMARK    8  A    between atoms: C_25  and  N_27
REMARK    9  A    between atoms: C_28  and  C_30
REMARK                            x       y       z     vdW  Elec       q    Type
REMARK                         _______ _______ _______ _____ _____    ______ ____
ROOT
ATOM      1  C   UNL     1       0.126  -3.326   1.696  0.00  0.00    +0.129 A 
ATOM      2  C   UNL     1       0.688  -3.171   2.971  0.00  0.00    +0.169 A 
ATOM      3  C   UNL     1       0.756  -4.277   3.799  0.00  0.00    +0.155 A 
ATOM      4  N   UNL     1       0.291  -5.440   3.366  0.00  0.00    -0.220 NA
ATOM      5  C   UNL     1      -0.235  -5.558   2.156  0.00  0.00    +0.220 A 
ATOM      6  N   UNL     1      -0.325  -4.527   1.332  0.00  0.00    -0.210 NA
ATOM      7  N   UNL     1      -0.708  -6.794   1.744  0.00  0.00    -0.284 N 
ATOM      8  F   UNL     1       1.153  -1.970   3.381  0.00  0.00    -0.202 F 
ATOM      9  H   UNL     1      -1.024  -6.914   0.834  0.00  0.00    +0.155 HD
ENDROOT
BRANCH   1  14
ATOM     10  C   UNL     1      -0.657   1.290  -0.169  0.00  0.00    +0.084 C 
ATOM     11  C   UNL     1      -0.310  -0.171  -0.046  0.00  0.00    +0.084 A 
ATOM     12  N   UNL     1       0.096  -0.939  -1.022  0.00  0.00    -0.349 N 
ATOM     13  C   UNL     1       0.313  -2.174  -0.559  0.00  0.00    +0.112 A 
ATOM     14  C   UNL     1       0.029  -2.177   0.774  0.00  0.00    +0.088 A 
ATOM     15  N   UNL     1      -0.362  -0.894   1.091  0.00  0.00    -0.325 N 
ATOM     16  H   UNL     1       0.220  -0.657  -1.941  0.00  0.00    +0.166 HD
BRANCH  15  17
ATOM     17  C   UNL     1      -0.762  -0.409   2.415  0.00  0.00    +0.083 C 
ATOM     18  C   UNL     1       0.100   0.795   2.798  0.00  0.00    +0.030 C 
ATOM     19  C   UNL     1      -2.234   0.007   2.381  0.00  0.00    +0.030 C 
ENDBRANCH  15  17
ENDBRANCH   1  14
BRANCH   7  20
ATOM     20  C   UNL     1      -0.730  -7.870   2.640  0.00  0.00    +0.034 A 
ATOM     21  C   UNL     1      -0.990  -7.648   3.986  0.00  0.00    +0.025 A 
ATOM     22  C   UNL     1      -1.011  -8.708   4.870  0.00  0.00    +0.025 A 
ATOM     23  C   UNL     1      -0.774  -9.998   4.413  0.00  0.00    +0.030 A 
ATOM     24  C   UNL     1      -0.515 -10.221   3.067  0.00  0.00    +0.025 A 
ATOM     25  C   UNL     1      -0.498  -9.161   2.182  0.00  0.00    +0.025 A 
BRANCH  23  26
ATOM     26  N   UNL     1      -0.795 -11.073   5.308  0.00  0.00    -0.326 N 
ATOM     27  C   UNL     1      -1.029 -11.245   6.750  0.00  0.00    +0.129 C 
ATOM     28  C   UNL     1      -1.510 -12.671   6.447  0.00  0.00    +0.107 C 
ATOM     29  C   UNL     1      -0.601 -12.528   5.221  0.00  0.00    +0.129 C 
BRANCH  28  30
ATOM     30  N   UNL     1      -2.936 -12.768   6.124  0.00  0.00    -0.310 N 
ATOM     31  C   UNL     1      -3.596 -13.925   6.329  0.00  0.00    +0.210 C 
ATOM     32  O   UNL     1      -3.009 -14.886   6.780  0.00  0.00    -0.276 OA
ATOM     33  C   UNL     1      -5.062 -14.025   5.997  0.00  0.00    +0.109 C 
ATOM     34  H   UNL     1      -3.404 -11.999   5.763  0.00  0.00    +0.149 HD
ENDBRANCH  28  30
ENDBRANCH  23  26
ENDBRANCH   7  20
TORSDOF 5
