REMARK  Name = CHEMBL192440
REMARK  6 active torsions:
REMARK  status: ('A' for Active; 'I' for Inactive)
REMARK    1  A    between atoms: C_1  and  C_2
REMARK    2  A    between atoms: C_2  and  C_3
REMARK    3  A    between atoms: C_2  and  C_21
REMARK    4  A    between atoms: C_6  and  N_9
REMARK    5  A    between atoms: C_10  and  C_15
REMARK    6  A    between atoms: C_26  and  C_30
REMARK                            x       y       z     vdW  Elec       q    Type
REMARK                         _______ _______ _______ _____ _____    ______ ____
ROOT
ATOM      1  C   UNL     1       0.708  -0.490  -1.238  0.00  0.00    -0.036 A 
ATOM      2  C   UNL     1       2.036  -0.167  -1.448  0.00  0.00    +0.006 A 
ATOM      3  C   UNL     1       2.685  -0.611  -2.583  0.00  0.00    +0.024 A 
ATOM      4  C   UNL     1       2.003  -1.383  -3.514  0.00  0.00    +0.037 A 
ATOM      5  C   UNL     1       0.669  -1.706  -3.300  0.00  0.00    +0.024 A 
ATOM      6  C   UNL     1       0.027  -1.263  -2.161  0.00  0.00    +0.006 A 
ENDROOT
BRANCH   4   7
ATOM      7  N   UNL     1       2.658  -1.834  -4.665  0.00  0.00    -0.264 N 
ATOM      8  C   UNL     1       2.071  -2.759  -5.643  0.00  0.00    +0.112 C 
ATOM      9  C   UNL     1       3.263  -3.299  -6.465  0.00  0.00    +0.037 C 
ATOM     10  C   UNL     1       4.295  -2.158  -6.311  0.00  0.00    +0.098 C 
ATOM     11  C   UNL     1       3.902  -1.471  -5.022  0.00  0.00    +0.220 C 
ATOM     12  O   UNL     1       4.608  -0.706  -4.399  0.00  0.00    -0.275 OA
BRANCH   8  13
ATOM     13  C   UNL     1       1.371  -3.889  -4.936  0.00  0.00    -0.027 A 
ATOM     14  C   UNL     1       1.932  -4.450  -3.803  0.00  0.00    +0.005 A 
ATOM     15  C   UNL     1       1.289  -5.488  -3.155  0.00  0.00    +0.000 A 
ATOM     16  C   UNL     1       0.085  -5.964  -3.637  0.00  0.00    +0.000 A 
ATOM     17  C   UNL     1      -0.477  -5.403  -4.769  0.00  0.00    +0.000 A 
ATOM     18  C   UNL     1       0.164  -4.363  -5.415  0.00  0.00    +0.005 A 
ENDBRANCH   8  13
ENDBRANCH   4   7
BRANCH   1  20
ATOM     19  C   UNL     1       0.015   1.526   0.029  0.00  0.00    +0.022 C 
ATOM     20  C   UNL     1       0.002  -0.004   0.002  0.00  0.00    +0.102 C 
BRANCH  20  21
ATOM     21  C   UNL     1       0.709  -0.534   1.223  0.00  0.00    +0.225 C 
ATOM     22  O   UNL     1       1.690  -1.237   1.098  0.00  0.00    -0.275 OA
ATOM     23  N   UNL     1       0.252  -0.227   2.453  0.00  0.00    -0.268 N 
ATOM     24  C   UNL     1       0.910  -0.720   3.588  0.00  0.00    +0.147 A 
ATOM     25  C   UNL     1       2.053  -1.535   3.590  0.00  0.00    +0.068 A 
ATOM     26  C   UNL     1       2.377  -1.793   4.878  0.00  0.00    +0.041 A 
ATOM     27  N   UNL     1       1.476  -1.167   5.664  0.00  0.00    -0.280 N 
ATOM     28  H   UNL     1       1.462  -1.177   6.634  0.00  0.00    +0.189 HD
ATOM     29  N   UNL     1       0.569  -0.495   4.835  0.00  0.00    -0.158 NA
ATOM     30  H   UNL     1      -0.532   0.336   2.553  0.00  0.00    +0.156 HD
BRANCH  26  31
ATOM     31  C   UNL     1       3.537  -2.631   5.350  0.00  0.00    +0.037 C 
ATOM     32  C   UNL     1       3.345  -3.444   6.632  0.00  0.00    +0.010 C 
ATOM     33  C   UNL     1       4.238  -2.203   6.640  0.00  0.00    +0.010 C 
ENDBRANCH  26  31
ENDBRANCH  20  21
ENDBRANCH   1  20
TORSDOF 5
