REMARK  Name = CHEMBL203571
REMARK  8 active torsions:
REMARK  status: ('A' for Active; 'I' for Inactive)
REMARK    1  A    between atoms: C_1  and  C_2
REMARK    2  A    between atoms: C_2  and  N_3
REMARK    3  A    between atoms: N_3  and  C_4
REMARK    4  A    between atoms: C_4  and  C_5
REMARK    5  A    between atoms: C_8  and  N_15
REMARK    6  A    between atoms: N_15  and  C_16
REMARK    7  A    between atoms: C_19  and  S_22
REMARK    8  A    between atoms: S_22  and  N_25
REMARK                            x       y       z     vdW  Elec       q    Type
REMARK                         _______ _______ _______ _____ _____    ______ ____
ROOT
ATOM      1  N   UNL     1       0.593  -0.192  -1.295  0.00  0.00    -0.316 N 
ATOM      2  C   UNL     1      -0.111  -0.598  -2.415  0.00  0.00    +0.128 A 
ATOM      3  C   UNL     1       0.580  -1.023  -3.559  0.00  0.00    +0.087 A 
ATOM      4  C   UNL     1      -0.132  -1.420  -4.656  0.00  0.00    +0.131 A 
ATOM      5  N   UNL     1      -1.499  -1.390  -4.605  0.00  0.00    -0.182 N 
ATOM      6  C   UNL     1      -2.138  -0.969  -3.473  0.00  0.00    +0.256 A 
ATOM      7  N   UNL     1      -1.435  -0.587  -2.401  0.00  0.00    -0.196 NA
ATOM      8  N   UNL     1      -3.443  -1.044  -3.708  0.00  0.00    -0.197 NA
ATOM      9  C   UNL     1      -3.651  -1.494  -4.941  0.00  0.00    +0.247 A 
ATOM     10  N   UNL     1      -2.501  -1.720  -5.527  0.00  0.00    -0.151 NA
ENDROOT
BRANCH   1  12
ATOM     11  C   UNL     1      -0.370   1.756  -0.174  0.00  0.00    +0.024 C 
ATOM     12  C   UNL     1      -0.126   0.247  -0.097  0.00  0.00    +0.103 C 
ENDBRANCH   1  12
BRANCH   1  13
ATOM     13  C   UNL     1       2.058  -0.203  -1.308  0.00  0.00    +0.103 C 
ATOM     14  C   UNL     1       2.563  -1.562  -0.818  0.00  0.00    +0.024 C 
ENDBRANCH   1  13
BRANCH   4  15
ATOM     15  N   UNL     1       0.517  -1.844  -5.796  0.00  0.00    -0.299 N 
ATOM     16  H   UNL     1       1.133  -2.592  -5.754  0.00  0.00    +0.154 HD
BRANCH  15  17
ATOM     17  C   UNL     1       0.288  -1.195  -7.013  0.00  0.00    +0.032 A 
ATOM     18  C   UNL     1      -0.472  -0.033  -7.050  0.00  0.00    +0.025 A 
ATOM     19  C   UNL     1      -0.696   0.606  -8.254  0.00  0.00    +0.030 A 
ATOM     20  C   UNL     1      -0.165   0.090  -9.422  0.00  0.00    +0.105 A 
ATOM     21  C   UNL     1       0.592  -1.067  -9.389  0.00  0.00    +0.030 A 
ATOM     22  C   UNL     1       0.825  -1.708  -8.187  0.00  0.00    +0.025 A 
BRANCH  20  23
ATOM     23  S   UNL     1      -0.454   0.908 -10.955  0.00  0.00    +0.056 S 
ATOM     24  O   UNL     1      -0.307  -0.073 -11.973  0.00  0.00    -0.153 OA
ATOM     25  O   UNL     1      -1.646   1.665 -10.794  0.00  0.00    -0.153 OA
BRANCH  23  26
ATOM     26  N   UNL     1       0.774   1.998 -11.168  0.00  0.00    -0.204 NA
ATOM     27  H   UNL     1       1.068   2.229 -12.062  0.00  0.00    +0.144 HD
ATOM     28  H   UNL     1       1.200   2.405 -10.397  0.00  0.00    +0.144 HD
ENDBRANCH  23  26
ENDBRANCH  20  23
ENDBRANCH  15  17
ENDBRANCH   4  15
TORSDOF 6
