REMARK  Name = CHEMBL1164177
REMARK  6 active torsions:
REMARK  status: ('A' for Active; 'I' for Inactive)
REMARK    1  A    between atoms: C_1  and  N_2
REMARK    2  A    between atoms: C_6  and  C_7
REMARK    3  A    between atoms: C_7  and  N_8
REMARK    4  A    between atoms: C_9  and  C_11
REMARK    5  A    between atoms: C_16  and  C_21
REMARK    6  A    between atoms: C_22  and  C_27
REMARK                            x       y       z     vdW  Elec       q    Type
REMARK                         _______ _______ _______ _____ _____    ______ ____
ROOT
ATOM      1  C   UNL     1       2.639  -0.151   5.572  0.00  0.00    +0.039 A 
ATOM      2  C   UNL     1       3.591  -0.417   4.576  0.00  0.00    +0.014 A 
ATOM      3  C   UNL     1       4.899  -0.096   4.768  0.00  0.00    +0.011 A 
ATOM      4  C   UNL     1       5.304   0.508   5.968  0.00  0.00    +0.000 A 
ATOM      5  C   UNL     1       6.557   0.949   6.455  0.00  0.00    +0.037 A 
ATOM      6  C   UNL     1       6.362   1.463   7.700  0.00  0.00    +0.066 A 
ATOM      7  N   UNL     1       5.028   1.366   8.027  0.00  0.00    -0.353 N 
ATOM      8  H   UNL     1       4.628   1.661   8.860  0.00  0.00    +0.166 HD
ATOM      9  C   UNL     1       4.355   0.780   6.975  0.00  0.00    +0.048 A 
ATOM     10  C   UNL     1       3.024   0.453   6.768  0.00  0.00    +0.039 A 
ENDROOT
BRANCH   6  11
ATOM     11  C   UNL     1       7.411   2.031   8.560  0.00  0.00    +0.090 A 
ATOM     12  C   UNL     1       7.304   3.168   9.356  0.00  0.00    +0.029 A 
ATOM     13  C   UNL     1       8.539   3.342  10.003  0.00  0.00    +0.143 A 
ATOM     14  N   UNL     1       9.344   2.382   9.631  0.00  0.00    -0.181 NA
ATOM     15  H   UNL     1       9.041   0.750   8.312  0.00  0.00    +0.189 HD
ATOM     16  N   UNL     1       8.673   1.542   8.735  0.00  0.00    -0.275 N 
BRANCH  12  17
ATOM     17  C   UNL     1       6.110   4.035   9.494  0.00  0.00    -0.014 A 
ATOM     18  C   UNL     1       5.521   4.602   8.364  0.00  0.00    +0.008 A 
ATOM     19  C   UNL     1       4.409   5.407   8.499  0.00  0.00    +0.001 A 
ATOM     20  C   UNL     1       3.878   5.653   9.753  0.00  0.00    +0.000 A 
ATOM     21  C   UNL     1       4.458   5.094  10.878  0.00  0.00    +0.001 A 
ATOM     22  C   UNL     1       5.567   4.282  10.755  0.00  0.00    +0.008 A 
ENDBRANCH  12  17
ENDBRANCH   6  11
BRANCH   1  24
ATOM     23  N   UNL     1       0.850  -1.089   4.194  0.00  0.00    -0.306 N 
ATOM     24  C   UNL     1       1.225  -0.505   5.350  0.00  0.00    +0.244 C 
ATOM     25  O   UNL     1       0.397  -0.271   6.209  0.00  0.00    -0.270 OA
ATOM     26  H   UNL     1       1.510  -1.277   3.509  0.00  0.00    +0.149 HD
BRANCH  23  27
ATOM     27  C   UNL     1      -0.555  -1.442   3.974  0.00  0.00    +0.159 C 
BRANCH  27  33
ATOM     28  C   UNL     1      -0.937   0.027   1.229  0.00  0.00    +0.150 C 
ATOM     29  N   UNL     1      -0.873  -1.423   1.424  0.00  0.00    -0.336 N 
ATOM     30  C   UNL     1      -0.960  -2.366   0.461  0.00  0.00    +0.199 A 
ATOM     31  N   UNL     1      -0.861  -3.542   1.017  0.00  0.00    -0.244 NA
ATOM     32  C   UNL     1      -0.708  -3.395   2.341  0.00  0.00    +0.135 A 
ATOM     33  C   UNL     1      -0.707  -2.076   2.615  0.00  0.00    +0.055 A 
ENDBRANCH  27  33
ENDBRANCH  23  27
ENDBRANCH   1  24
TORSDOF 5
