REMARK  Name = CHEMBL551258
REMARK  9 active torsions:
REMARK  status: ('A' for Active; 'I' for Inactive)
REMARK    1  A    between atoms: C_6  and  O_7
REMARK    2  A    between atoms: O_7  and  C_8
REMARK    3  A    between atoms: C_8  and  C_9
REMARK    4  A    between atoms: C_15  and  S_17
REMARK    5  A    between atoms: S_17  and  S_18
REMARK    6  A    between atoms: S_18  and  C_19
REMARK    7  A    between atoms: C_22  and  C_27
REMARK    8  A    between atoms: C_27  and  O_28
REMARK    9  A    between atoms: O_28  and  C_29
REMARK                            x       y       z     vdW  Elec       q    Type
REMARK                         _______ _______ _______ _____ _____    ______ ____
ROOT
ATOM      1  S   UNL     1      -4.227  -3.439  -4.994  0.00  0.00    -0.021 S 
ENDROOT
BRANCH   1   8
ATOM      2  C   UNL     1      -2.454  -2.722   0.012  0.00  0.00    +0.193 A 
ATOM      3  N   UNL     1      -3.150  -3.026   1.073  0.00  0.00    -0.128 NA
ATOM      4  N   UNL     1      -4.290  -3.514   0.726  0.00  0.00    -0.120 NA
ATOM      5  C   UNL     1      -4.369  -3.543  -0.570  0.00  0.00    +0.219 A 
ATOM      6  N   UNL     1      -3.209  -3.037  -1.098  0.00  0.00    -0.186 N 
ATOM      7  N   UNL     1      -3.126  -2.988  -2.483  0.00  0.00    -0.148 NA
ATOM      8  C   UNL     1      -4.112  -3.406  -3.236  0.00  0.00    +0.169 A 
ATOM      9  S   UNL     1      -5.309  -3.941  -2.023  0.00  0.00    -0.019 S 
BRANCH   2  10
ATOM     10  C   UNL     1      -1.070  -2.126   0.001  0.00  0.00    +0.307 C 
BRANCH  10  11
ATOM     11  O   UNL     1      -1.165  -0.701   0.010  0.00  0.00    -0.484 OA
BRANCH  11  17
ATOM     12  C   UNL     1      -0.017   1.383   0.010  0.00  0.00    +0.047 A 
ATOM     13  C   UNL     1       1.171   2.089   0.002  0.00  0.00    +0.023 A 
ATOM     14  C   UNL     1       2.378   1.414  -0.013  0.00  0.00    +0.041 A 
ATOM     15  C   UNL     1       2.399   0.030  -0.021  0.00  0.00    +0.023 A 
ATOM     16  C   UNL     1       1.214  -0.679  -0.014  0.00  0.00    +0.047 A 
ATOM     17  C   UNL     1       0.002  -0.004   0.002  0.00  0.00    +0.121 A 
ATOM     18 CL   UNL     1       3.869   2.303  -0.022  0.00  0.00    -0.084 Cl
ENDBRANCH  11  17
ENDBRANCH  10  11
ENDBRANCH   2  10
ENDBRANCH   1   8
BRANCH   1  19
ATOM     19  S   UNL     1      -2.436  -2.664  -5.622  0.00  0.00    -0.021 S 
BRANCH  19  20
ATOM     20  C   UNL     1      -1.349  -4.050  -5.625  0.00  0.00    +0.169 A 
ATOM     21  N   UNL     1      -1.602  -5.295  -5.311  0.00  0.00    -0.148 NA
ATOM     22  N   UNL     1      -0.612  -6.267  -5.372  0.00  0.00    -0.186 N 
ATOM     23  C   UNL     1      -0.449  -7.617  -5.143  0.00  0.00    +0.193 A 
ATOM     24  N   UNL     1       0.792  -7.923  -5.402  0.00  0.00    -0.128 NA
ATOM     25  N   UNL     1       1.435  -6.873  -5.779  0.00  0.00    -0.120 NA
ATOM     26  C   UNL     1       0.631  -5.853  -5.776  0.00  0.00    +0.219 A 
ATOM     27  S   UNL     1       0.381  -4.119  -6.066  0.00  0.00    -0.019 S 
BRANCH  23  28
ATOM     28  C   UNL     1      -1.517  -8.571  -4.675  0.00  0.00    +0.307 C 
BRANCH  28  29
ATOM     29  O   UNL     1      -2.186  -9.130  -5.807  0.00  0.00    -0.484 OA
BRANCH  29  30
ATOM     30  C   UNL     1      -3.185 -10.017  -5.558  0.00  0.00    +0.121 A 
ATOM     31  C   UNL     1      -3.518 -10.339  -4.250  0.00  0.00    +0.047 A 
ATOM     32  C   UNL     1      -4.534 -11.240  -3.998  0.00  0.00    +0.023 A 
ATOM     33  C   UNL     1      -5.220 -11.823  -5.050  0.00  0.00    +0.041 A 
ATOM     34  C   UNL     1      -4.889 -11.503  -6.355  0.00  0.00    +0.023 A 
ATOM     35  C   UNL     1      -3.877 -10.598  -6.610  0.00  0.00    +0.047 A 
ATOM     36 CL   UNL     1      -6.496 -12.956  -4.731  0.00  0.00    -0.084 Cl
ENDBRANCH  29  30
ENDBRANCH  28  29
ENDBRANCH  23  28
ENDBRANCH  19  20
ENDBRANCH   1  19
TORSDOF 9
