REMARK  Name = CHEMBL232737
REMARK  7 active torsions:
REMARK  status: ('A' for Active; 'I' for Inactive)
REMARK    1  A    between atoms: C_1  and  C_2
REMARK    2  A    between atoms: C_7  and  O_28
REMARK    3  A    between atoms: C_8  and  C_20
REMARK    4  A    between atoms: C_11  and  N_13
REMARK    5  A    between atoms: N_16  and  C_19
REMARK    6  A    between atoms: C_23  and  O_27
REMARK    7  A    between atoms: C_24  and  O_26
REMARK                            x       y       z     vdW  Elec       q    Type
REMARK                         _______ _______ _______ _____ _____    ______ ____
ROOT
ATOM      1  C   UNL     1       0.302   1.505  -0.026  0.00  0.00    +0.044 C 
ATOM      2  C   UNL     1       0.303  -0.002  -0.032  0.00  0.00    -0.048 A 
ATOM      3  C   UNL     1       0.042  -0.682  -1.201  0.00  0.00    +0.019 A 
ATOM      4  C   UNL     1       0.044  -2.078  -1.205  0.00  0.00    +0.070 A 
ATOM      5  C   UNL     1      -0.230  -2.839  -2.439  0.00  0.00    +0.234 A 
ATOM      6  O   UNL     1      -0.468  -2.273  -3.493  0.00  0.00    -0.283 OA
ATOM      7  C   UNL     1      -0.207  -4.253  -2.352  0.00  0.00    +0.208 A 
ATOM      8  C   UNL     1       0.065  -4.849  -1.143  0.00  0.00    +0.181 A 
ATOM      9  O   UNL     1       0.312  -4.136  -0.032  0.00  0.00    -0.449 OA
ATOM     10  C   UNL     1       0.311  -2.786  -0.024  0.00  0.00    +0.160 A 
ATOM     11  C   UNL     1       0.573  -2.080   1.152  0.00  0.00    +0.073 A 
ATOM     12  C   UNL     1       0.573  -0.695   1.137  0.00  0.00    +0.030 A 
ENDROOT
BRANCH  11  13
ATOM     13  N   UNL     1       0.840  -2.769   2.339  0.00  0.00    -0.331 N 
ATOM     14  C   UNL     1       2.216  -3.134   2.708  0.00  0.00    +0.086 C 
ATOM     15  C   UNL     1       2.471  -2.673   4.147  0.00  0.00    -0.060 C 
ATOM     16  N   UNL     1       1.439  -3.232   5.029  0.00  0.00    +0.380 N 
ATOM     17  C   UNL     1       0.124  -2.688   4.668  0.00  0.00    -0.060 C 
ATOM     18  C   UNL     1      -0.247  -3.144   3.257  0.00  0.00    +0.086 C 
ATOM     19  C   UNL     1       1.746  -2.882   6.423  0.00  0.00    -0.096 C 
ATOM     20  H   UNL     1       1.424  -4.237   4.933  0.00  0.00    -0.082 HD
ENDBRANCH  11  13
BRANCH   8  21
ATOM     21  C   UNL     1       0.086  -6.321  -1.064  0.00  0.00    +0.025 A 
ATOM     22  C   UNL     1       0.791  -7.063  -2.016  0.00  0.00    +0.015 A 
ATOM     23  C   UNL     1       0.810  -8.439  -1.940  0.00  0.00    +0.050 A 
ATOM     24  C   UNL     1       0.130  -9.091  -0.920  0.00  0.00    +0.158 A 
ATOM     25  C   UNL     1      -0.575  -8.357   0.032  0.00  0.00    +0.159 A 
ATOM     26  C   UNL     1      -0.594  -6.977  -0.034  0.00  0.00    +0.060 A 
BRANCH  25  27
ATOM     27  O   UNL     1      -1.241  -8.999   1.029  0.00  0.00    -0.503 OA
ATOM     28  H   UNL     1      -0.710  -9.147   1.824  0.00  0.00    +0.292 HD
ENDBRANCH  25  27
BRANCH  24  29
ATOM     29  O   UNL     1       0.152 -10.448  -0.850  0.00  0.00    -0.503 OA
ATOM     30  H   UNL     1       0.881 -10.803  -0.324  0.00  0.00    +0.292 HD
ENDBRANCH  24  29
ENDBRANCH   8  21
BRANCH   7  31
ATOM     31  O   UNL     1      -0.453  -5.013  -3.453  0.00  0.00    -0.501 OA
ATOM     32  H   UNL     1      -0.634  -4.501  -4.253  0.00  0.00    +0.292 HD
ENDBRANCH   7  31
TORSDOF 5
