REMARK  Name = CHEMBL337325
REMARK  12 active torsions:
REMARK  status: ('A' for Active; 'I' for Inactive)
REMARK    1  A    between atoms: C_1  and  O_2
REMARK    2  A    between atoms: O_2  and  C_3
REMARK    3  A    between atoms: C_7  and  O_36
REMARK    4  A    between atoms: C_8  and  C_9
REMARK    5  A    between atoms: C_9  and  N_10
REMARK    6  A    between atoms: C_11  and  C_13
REMARK    7  A    between atoms: C_19  and  N_24
REMARK    8  A    between atoms: C_20  and  O_23
REMARK    9  A    between atoms: N_25  and  C_26
REMARK   10  A    between atoms: C_29  and  S_32
REMARK   11  A    between atoms: S_32  and  N_35
REMARK   12  A    between atoms: O_36  and  C_37
REMARK                            x       y       z     vdW  Elec       q    Type
REMARK                         _______ _______ _______ _____ _____    ______ ____
ROOT
ATOM      1  C   UNL     1       0.357  -8.779  -2.092  0.00  0.00    +0.037 A 
ATOM      2  C   UNL     1       0.522  -7.770  -1.135  0.00  0.00    +0.015 A 
ATOM      3  C   UNL     1       0.588  -6.460  -1.510  0.00  0.00    +0.027 A 
ATOM      4  C   UNL     1       0.492  -6.109  -2.855  0.00  0.00    +0.051 A 
ATOM      5  C   UNL     1       0.327  -7.114  -3.824  0.00  0.00    +0.031 A 
ATOM      6  C   UNL     1       0.265  -8.448  -3.442  0.00  0.00    +0.025 A 
ATOM      7  C   UNL     1       0.261  -6.422  -5.125  0.00  0.00    +0.154 A 
ATOM      8  C   UNL     1       0.390  -5.069  -4.851  0.00  0.00    +0.219 A 
ATOM      9  N   UNL     1       0.526  -4.894  -3.508  0.00  0.00    -0.324 N 
ATOM     10  H   UNL     1       0.632  -4.034  -3.071  0.00  0.00    +0.169 HD
ENDROOT
BRANCH   1  12
ATOM     11  N   UNL     1       0.376 -10.512  -0.364  0.00  0.00    -0.307 N 
ATOM     12  C   UNL     1       0.286 -10.193  -1.671  0.00  0.00    +0.244 C 
ATOM     13  O   UNL     1       0.148 -11.068  -2.503  0.00  0.00    -0.270 OA
ATOM     14  H   UNL     1       0.486  -9.813   0.299  0.00  0.00    +0.149 HD
BRANCH  11  15
ATOM     15  C   UNL     1       0.306 -11.914   0.053  0.00  0.00    +0.147 C 
BRANCH  15  21
ATOM     16  C   UNL     1      -0.706 -11.947   2.347  0.00  0.00    +0.128 A 
ATOM     17  C   UNL     1      -0.590 -12.031   3.727  0.00  0.00    +0.046 A 
ATOM     18  C   UNL     1       0.656 -12.159   4.311  0.00  0.00    +0.007 A 
ATOM     19  C   UNL     1       1.790 -12.204   3.522  0.00  0.00    +0.046 A 
ATOM     20  C   UNL     1       1.679 -12.121   2.141  0.00  0.00    +0.128 A 
ATOM     21  C   UNL     1       0.429 -11.999   1.553  0.00  0.00    +0.053 A 
BRANCH  16  23
ATOM     22  C   UNL     1      -3.057 -11.775   2.653  0.00  0.00    +0.277 C 
ATOM     23  O   UNL     1      -1.931 -11.821   1.774  0.00  0.00    -0.495 OA
ENDBRANCH  16  23
BRANCH  20  24
ATOM     24  O   UNL     1       2.794 -12.166   1.365  0.00  0.00    -0.495 OA
ATOM     25  C   UNL     1       4.048 -12.299   2.038  0.00  0.00    +0.277 C 
ENDBRANCH  20  24
ENDBRANCH  15  21
ENDBRANCH  11  15
ENDBRANCH   1  12
BRANCH   8  26
ATOM     26  O   UNL     1       0.382  -4.080  -5.773  0.00  0.00    -0.492 OA
ATOM     27  H   UNL     1      -0.487  -3.680  -5.914  0.00  0.00    +0.294 HD
ENDBRANCH   8  26
BRANCH   7  28
ATOM     28  N   UNL     1       0.106  -6.991  -6.338  0.00  0.00    -0.143 NA
ATOM     29  N   UNL     1       0.989  -7.822  -6.778  0.00  0.00    -0.149 NA
BRANCH  29  30
ATOM     30  C   UNL     1       1.827  -8.456  -5.903  0.00  0.00    +0.086 A 
ATOM     31  C   UNL     1       2.933  -7.782  -5.377  0.00  0.00    +0.031 A 
ATOM     32  C   UNL     1       3.773  -8.427  -4.494  0.00  0.00    +0.030 A 
ATOM     33  C   UNL     1       3.525  -9.739  -4.129  0.00  0.00    +0.105 A 
ATOM     34  C   UNL     1       2.432 -10.412  -4.646  0.00  0.00    +0.030 A 
ATOM     35  C   UNL     1       1.579  -9.778  -5.526  0.00  0.00    +0.031 A 
BRANCH  33  36
ATOM     36  S   UNL     1       4.604 -10.555  -3.001  0.00  0.00    +0.056 S 
ATOM     37  O   UNL     1       4.465 -11.948  -3.242  0.00  0.00    -0.153 OA
ATOM     38  O   UNL     1       5.857  -9.889  -3.084  0.00  0.00    -0.153 OA
BRANCH  36  39
ATOM     39  N   UNL     1       4.020 -10.277  -1.477  0.00  0.00    -0.204 NA
ATOM     40  H   UNL     1       3.219  -9.745  -1.354  0.00  0.00    +0.144 HD
ATOM     41  H   UNL     1       4.480 -10.646  -0.706  0.00  0.00    +0.144 HD
ENDBRANCH  36  39
ENDBRANCH  33  36
ENDBRANCH  29  30
ENDBRANCH   7  28
TORSDOF 10
