REMARK  Name = CHEMBL445813
REMARK  4 active torsions:
REMARK  status: ('A' for Active; 'I' for Inactive)
REMARK    1  A    between atoms: C_4  and  C_8
REMARK    2  A    between atoms: N_10  and  C_11
REMARK    3  A    between atoms: C_16  and  C_17
REMARK    4  A    between atoms: N_19  and  C_20
REMARK                            x       y       z     vdW  Elec       q    Type
REMARK                         _______ _______ _______ _____ _____    ______ ____
ROOT
ATOM      1  C   UNL     1       5.494  -1.682  -1.230  0.00  0.00    +0.084 A 
ATOM      2  C   UNL     1       6.251  -2.103  -0.124  0.00  0.00    +0.158 A 
ATOM      3  N   UNL     1       7.323  -2.698  -0.576  0.00  0.00    -0.180 NA
ATOM      4  H   UNL     1       8.045  -3.099  -2.404  0.00  0.00    +0.189 HD
ATOM      5  N   UNL     1       7.343  -2.709  -1.859  0.00  0.00    -0.271 N 
ATOM      6  C   UNL     1       6.219  -2.092  -2.345  0.00  0.00    +0.141 A 
ENDROOT
BRANCH   1   9
ATOM      7  C   UNL     1       3.697  -0.683  -0.038  0.00  0.00    +0.251 C 
ATOM      8  O   UNL     1       4.239  -0.984   1.007  0.00  0.00    -0.270 OA
ATOM      9  N   UNL     1       4.274  -1.004  -1.213  0.00  0.00    -0.278 N 
ATOM     10  H   UNL     1       3.841  -0.764  -2.048  0.00  0.00    +0.155 HD
BRANCH   7  14
ATOM     11  C   UNL     1      -0.017   1.379   0.010  0.00  0.00    +0.003 A 
ATOM     12  C   UNL     1       1.167   2.094   0.002  0.00  0.00    +0.021 A 
ATOM     13  C   UNL     1       2.379   1.431  -0.013  0.00  0.00    +0.054 A 
ATOM     14  C   UNL     1       2.406   0.034  -0.021  0.00  0.00    +0.074 A 
ATOM     15  C   UNL     1       1.205  -0.682  -0.013  0.00  0.00    +0.054 A 
ATOM     16  C   UNL     1       0.002  -0.004   0.002  0.00  0.00    +0.021 A 
ATOM     17 CL   UNL     1       1.226  -2.418  -0.023  0.00  0.00    -0.083 Cl
ATOM     18 CL   UNL     1       3.863   2.330  -0.024  0.00  0.00    -0.083 Cl
ENDBRANCH   7  14
ENDBRANCH   1   9
BRANCH   6  19
ATOM     19  C   UNL     1       5.856  -1.899  -3.752  0.00  0.00    +0.264 C 
ATOM     20  O   UNL     1       4.822  -1.327  -4.041  0.00  0.00    -0.268 OA
ATOM     21  N   UNL     1       6.668  -2.356  -4.726  0.00  0.00    -0.307 N 
ATOM     22  H   UNL     1       7.492  -2.812  -4.495  0.00  0.00    +0.149 HD
BRANCH  21  23
ATOM     23  C   UNL     1       6.305  -2.164  -6.132  0.00  0.00    +0.070 C 
ATOM     24  C   UNL     1       5.383  -3.301  -6.583  0.00  0.00    +0.003 C 
ATOM     25  C   UNL     1       5.073  -3.138  -8.073  0.00  0.00    -0.081 C 
ATOM     26  N   UNL     1       6.321  -3.182  -8.844  0.00  0.00    +0.379 N 
ATOM     27  C   UNL     1       7.180  -2.053  -8.468  0.00  0.00    -0.081 C 
ATOM     28  C   UNL     1       7.572  -2.175  -6.993  0.00  0.00    +0.003 C 
ATOM     29  H   UNL     1       6.802  -4.048  -8.653  0.00  0.00    -0.086 HD
ATOM     30  H   UNL     1       6.108  -3.128  -9.829  0.00  0.00    -0.086 HD
ENDBRANCH  21  23
ENDBRANCH   6  19
TORSDOF 4
