REMARK  Name = CHEMBL114636
REMARK  5 active torsions:
REMARK  status: ('A' for Active; 'I' for Inactive)
REMARK    1  A    between atoms: C_3  and  C_6
REMARK    2  A    between atoms: C_9  and  C_12
REMARK    3  A    between atoms: C_12  and  C_13
REMARK    4  A    between atoms: N_15  and  C_16
REMARK    5  A    between atoms: C_18  and  C_22
REMARK                            x       y       z     vdW  Elec       q    Type
REMARK                         _______ _______ _______ _____ _____    ______ ____
ROOT
ATOM      1  C   UNL     1       8.257   3.416   1.361  0.00  0.00    +0.223 C 
ATOM      2  O   UNL     1       7.526   3.143   2.288  0.00  0.00    -0.275 OA
ATOM      3  N   UNL     1       9.508   3.858   1.597  0.00  0.00    -0.270 N 
ATOM      4  H   UNL     1      10.094   4.077   0.854  0.00  0.00    +0.156 HD
ENDROOT
BRANCH   3   5
ATOM      5  C   UNL     1       9.961   4.002   2.908  0.00  0.00    +0.120 A 
ATOM      6  C   UNL     1       9.252   3.734   4.038  0.00  0.00    +0.068 A 
ATOM      7  C   UNL     1      10.073   4.011   5.134  0.00  0.00    +0.068 A 
ATOM      8  N   UNL     1      11.229   4.428   4.687  0.00  0.00    -0.177 NA
ATOM      9  H   UNL     1      11.910   4.688   2.695  0.00  0.00    +0.190 HD
ATOM     10  N   UNL     1      11.188   4.427   3.287  0.00  0.00    -0.264 N 
BRANCH   7  11
ATOM     11  C   UNL     1       9.691   3.855   6.584  0.00  0.00    +0.040 C 
ATOM     12  C   UNL     1       8.202   3.728   6.913  0.00  0.00    +0.010 C 
ATOM     13  C   UNL     1       8.952   5.019   7.248  0.00  0.00    +0.010 C 
ENDBRANCH   7  11
ENDBRANCH   3   5
BRANCH   1  14
ATOM     14  C   UNL     1       7.768   3.260  -0.056  0.00  0.00    +0.131 C 
BRANCH  14  18
ATOM     15  C   UNL     1       3.740   1.825  -0.024  0.00  0.00    -0.011 A 
ATOM     16  C   UNL     1       3.995   3.197  -0.014  0.00  0.00    +0.009 A 
ATOM     17  C   UNL     1       5.297   3.654  -0.024  0.00  0.00    +0.005 A 
ATOM     18  C   UNL     1       6.348   2.755  -0.044  0.00  0.00    -0.039 A 
ATOM     19  C   UNL     1       6.102   1.393  -0.055  0.00  0.00    +0.005 A 
ATOM     20  C   UNL     1       4.805   0.923  -0.039  0.00  0.00    +0.009 A 
BRANCH  15  23
ATOM     21  C   UNL     1      -0.016   1.353   0.009  0.00  0.00    +0.008 A 
ATOM     22  C   UNL     1       1.178   2.041   0.002  0.00  0.00    +0.016 A 
ATOM     23  C   UNL     1       2.347   1.329  -0.013  0.00  0.00    +0.019 A 
ATOM     24  S   UNL     1       1.752  -0.354  -0.017  0.00  0.00    -0.097 S 
ATOM     25  C   UNL     1       0.002  -0.004   0.002  0.00  0.00    +0.046 A 
ENDBRANCH  15  23
ENDBRANCH  14  18
ENDBRANCH   1  14
TORSDOF 5
