REMARK  Name = CHEMBL271595
REMARK  4 active torsions:
REMARK  status: ('A' for Active; 'I' for Inactive)
REMARK    1  A    between atoms: C_3  and  S_22
REMARK    2  A    between atoms: C_6  and  N_7
REMARK    3  A    between atoms: N_7  and  C_8
REMARK    4  A    between atoms: S_22  and  N_25
REMARK                            x       y       z     vdW  Elec       q    Type
REMARK                         _______ _______ _______ _____ _____    ______ ____
ROOT
ATOM      1  C   UNL     1      -1.177  -2.083   0.003  0.00  0.00    +0.085 C 
ATOM      2  C   UNL     1      -2.349  -2.783   0.011  0.00  0.00    +0.061 C 
ATOM      3  C   UNL     1      -2.518  -4.255   0.010  0.00  0.00    +0.025 A 
ATOM      4  C   UNL     1      -3.899  -4.490   0.021  0.00  0.00    +0.043 A 
ATOM      5  C   UNL     1      -4.356  -5.808   0.023  0.00  0.00    +0.026 A 
ATOM      6  C   UNL     1      -3.498  -6.862   0.015  0.00  0.00    +0.031 A 
ATOM      7  C   UNL     1      -2.099  -6.664   0.005  0.00  0.00    +0.079 A 
ATOM      8  C   UNL     1      -1.645  -5.328   0.003  0.00  0.00    +0.049 A 
ATOM      9  S   UNL     1       0.116  -5.535  -0.011  0.00  0.00    -0.075 S 
ATOM     10  C   UNL     1       0.155  -7.218  -0.013  0.00  0.00    +0.157 A 
ATOM     11  N   UNL     1      -1.098  -7.569  -0.004  0.00  0.00    -0.247 NA
ATOM     12  N   UNL     1      -4.570  -3.273   0.027  0.00  0.00    -0.281 N 
ATOM     13  C   UNL     1      -3.712  -2.240   0.027  0.00  0.00    +0.250 C 
ATOM     14  O   UNL     1      -4.012  -1.059   0.037  0.00  0.00    -0.270 OA
ATOM     15  H   UNL     1      -5.536  -3.182   0.034  0.00  0.00    +0.155 HD
ENDROOT
BRANCH   1  16
ATOM     16  N   UNL     1      -1.198  -0.721   0.010  0.00  0.00    -0.320 N 
ATOM     17  H   UNL     1      -2.045  -0.248   0.021  0.00  0.00    +0.152 HD
BRANCH  16  23
ATOM     18  C   UNL     1      -0.017   1.385   0.010  0.00  0.00    +0.025 A 
ATOM     19  C   UNL     1       1.171   2.090   0.002  0.00  0.00    +0.030 A 
ATOM     20  C   UNL     1       2.377   1.415  -0.013  0.00  0.00    +0.105 A 
ATOM     21  C   UNL     1       2.400   0.032  -0.021  0.00  0.00    +0.030 A 
ATOM     22  C   UNL     1       1.216  -0.679  -0.014  0.00  0.00    +0.025 A 
ATOM     23  C   UNL     1       0.002  -0.004   0.002  0.00  0.00    +0.031 A 
BRANCH  20  24
ATOM     24  S   UNL     1       3.890   2.319  -0.023  0.00  0.00    +0.056 S 
ATOM     25  O   UNL     1       4.872   1.461  -0.588  0.00  0.00    -0.153 OA
ATOM     26  O   UNL     1       3.595   3.599  -0.564  0.00  0.00    -0.153 OA
BRANCH  24  27
ATOM     27  N   UNL     1       4.325   2.561   1.557  0.00  0.00    -0.204 NA
ATOM     28  H   UNL     1       3.767   2.220   2.272  0.00  0.00    +0.144 HD
ATOM     29  H   UNL     1       5.139   3.045   1.766  0.00  0.00    +0.144 HD
ENDBRANCH  24  27
ENDBRANCH  20  24
ENDBRANCH  16  23
ENDBRANCH   1  16
TORSDOF 4
