REMARK  Name = CHEMBL398774
REMARK  9 active torsions:
REMARK  status: ('A' for Active; 'I' for Inactive)
REMARK    1  A    between atoms: C_4  and  C_7
REMARK    2  A    between atoms: C_12  and  C_15
REMARK    3  A    between atoms: C_15  and  C_16
REMARK    4  A    between atoms: C_19  and  S_31
REMARK    5  A    between atoms: N_20  and  N_21
REMARK    6  A    between atoms: C_22  and  C_24
REMARK    7  A    between atoms: S_31  and  C_32
REMARK    8  A    between atoms: C_32  and  C_33
REMARK    9  A    between atoms: N_35  and  N_36
REMARK                            x       y       z     vdW  Elec       q    Type
REMARK                         _______ _______ _______ _____ _____    ______ ____
ROOT
ATOM      1  C   UNL     1       5.087  -6.030   1.752  0.00  0.00    +0.158 A 
ATOM      2  N   UNL     1       5.907  -6.465   2.666  0.00  0.00    -0.132 NA
ATOM      3  N   UNL     1       6.011  -7.744   2.593  0.00  0.00    -0.121 NA
ATOM      4  C   UNL     1       5.256  -8.198   1.620  0.00  0.00    +0.209 A 
ATOM      5  N   UNL     1       4.639  -7.118   1.056  0.00  0.00    -0.218 N 
ENDROOT
BRANCH   5   6
ATOM      6  N   UNL     1       3.736  -7.124  -0.016  0.00  0.00    -0.215 N 
ATOM      7  C   UNL     1       2.448  -7.461   0.191  0.00  0.00    +0.262 C 
ATOM      8  O   UNL     1       2.047  -7.669   1.319  0.00  0.00    -0.268 OA
ATOM      9  H   UNL     1       4.039  -6.886  -0.906  0.00  0.00    +0.176 HD
BRANCH   7  10
ATOM     10  C   UNL     1       1.522  -7.578  -0.955  0.00  0.00    +0.038 A 
ATOM     11  C   UNL     1       1.980  -7.345  -2.253  0.00  0.00    +0.014 A 
ATOM     12  C   UNL     1       1.112  -7.455  -3.319  0.00  0.00    +0.021 A 
ATOM     13  C   UNL     1      -0.214  -7.796  -3.103  0.00  0.00    +0.041 A 
ATOM     14  C   UNL     1      -0.674  -8.027  -1.817  0.00  0.00    +0.021 A 
ATOM     15  C   UNL     1       0.186  -7.926  -0.745  0.00  0.00    +0.014 A 
ATOM     16 CL   UNL     1      -1.301  -7.932  -4.449  0.00  0.00    -0.084 Cl
ENDBRANCH   7  10
ENDBRANCH   5   6
BRANCH   1  17
ATOM     17  C   UNL     1       4.699  -4.594   1.510  0.00  0.00    +0.134 C 
BRANCH  17  23
ATOM     18  C   UNL     1      -0.876  -4.835   3.852  0.00  0.00    +0.250 C 
ATOM     19  O   UNL     1      -0.671  -3.860   4.549  0.00  0.00    -0.270 OA
ATOM     20  N   UNL     1       0.093  -5.297   3.038  0.00  0.00    -0.261 N 
ATOM     21  C   UNL     1       1.327  -4.661   2.996  0.00  0.00    +0.165 A 
ATOM     22  N   UNL     1       2.379  -4.964   2.266  0.00  0.00    -0.229 NA
ATOM     23  C   UNL     1       3.489  -4.253   2.341  0.00  0.00    +0.058 A 
ATOM     24  C   UNL     1       3.492  -3.204   3.200  0.00  0.00    +0.072 A 
ATOM     25  S   UNL     1       1.837  -3.309   3.860  0.00  0.00    -0.060 S 
ATOM     26  H   UNL     1      -0.071  -6.075   2.481  0.00  0.00    +0.157 HD
BRANCH  18  30
ATOM     27  C   UNL     1      -4.649  -6.781   3.979  0.00  0.00    +0.000 A 
ATOM     28  C   UNL     1      -4.419  -5.672   4.775  0.00  0.00    +0.001 A 
ATOM     29  C   UNL     1      -3.196  -5.036   4.738  0.00  0.00    +0.013 A 
ATOM     30  C   UNL     1      -2.189  -5.512   3.896  0.00  0.00    +0.037 A 
ATOM     31  C   UNL     1      -2.429  -6.631   3.096  0.00  0.00    +0.013 A 
ATOM     32  C   UNL     1      -3.656  -7.258   3.143  0.00  0.00    +0.001 A 
ENDBRANCH  18  30
ENDBRANCH  17  23
ENDBRANCH   1  17
BRANCH   4  33
ATOM     33  S   UNL     1       5.071  -9.882   1.136  0.00  0.00    -0.075 S 
BRANCH  33  34
ATOM     34  C   UNL     1       6.146 -10.788   2.282  0.00  0.00    +0.174 C 
BRANCH  34  35
ATOM     35  C   UNL     1       6.079 -12.262   1.974  0.00  0.00    +0.237 C 
ATOM     36  O   UNL     1       5.376 -12.661   1.070  0.00  0.00    -0.274 OA
ATOM     37  N   UNL     1       6.801 -13.136   2.703  0.00  0.00    -0.253 N 
ATOM     38  H   UNL     1       7.363 -12.817   3.426  0.00  0.00    +0.169 HD
BRANCH  37  39
ATOM     39  N   UNL     1       6.741 -14.472   2.423  0.00  0.00    -0.254 NA
ATOM     40  H   UNL     1       7.331 -14.999   3.049  0.00  0.00    +0.140 HD
ATOM     41  H   UNL     1       5.789 -14.806   2.457  0.00  0.00    +0.140 HD
ENDBRANCH  37  39
ENDBRANCH  34  35
ENDBRANCH  33  34
ENDBRANCH   4  33
TORSDOF 9
