REMARK  Name = CHEMBL125731
REMARK  5 active torsions:
REMARK  status: ('A' for Active; 'I' for Inactive)
REMARK    1  A    between atoms: C_1  and  C_2
REMARK    2  A    between atoms: C_8  and  S_10
REMARK    3  A    between atoms: S_10  and  C_11
REMARK    4  A    between atoms: C_11  and  C_12
REMARK    5  A    between atoms: C_15  and  C_17
REMARK                            x       y       z     vdW  Elec       q    Type
REMARK                         _______ _______ _______ _____ _____    ______ ____
ROOT
ATOM      1  C   UNL     1       0.065  -6.239  -3.985  0.00  0.00    +0.170 C 
ENDROOT
BRANCH   1   2
ATOM      2  C   UNL     1       0.082  -7.617  -4.594  0.00  0.00    +0.206 A 
ATOM      3  N   UNL     1      -0.971  -8.322  -4.902  0.00  0.00    -0.220 NA
ATOM      4  C   UNL     1      -0.574  -9.493  -5.422  0.00  0.00    +0.161 A 
ATOM      5  C   UNL     1       0.784  -9.497  -5.430  0.00  0.00    +0.155 A 
ATOM      6  O   UNL     1       1.182  -8.313  -4.913  0.00  0.00    -0.439 OA
BRANCH   5   7
ATOM      7  C   UNL     1       1.659 -10.585  -5.916  0.00  0.00    +0.019 A 
ATOM      8  C   UNL     1       1.101 -11.753  -6.437  0.00  0.00    +0.011 A 
ATOM      9  C   UNL     1       1.923 -12.765  -6.889  0.00  0.00    +0.001 A 
ATOM     10  C   UNL     1       3.298 -12.623  -6.826  0.00  0.00    +0.000 A 
ATOM     11  C   UNL     1       3.857 -11.467  -6.311  0.00  0.00    +0.001 A 
ATOM     12  C   UNL     1       3.047 -10.446  -5.861  0.00  0.00    +0.011 A 
ENDBRANCH   5   7
ENDBRANCH   1   2
BRANCH   1  13
ATOM     13  S   UNL     1       0.074  -6.378  -2.176  0.00  0.00    -0.107 S 
BRANCH  13  21
ATOM     14  C   UNL     1      -0.018   1.503   0.010  0.00  0.00    +0.109 C 
ATOM     15  C   UNL     1       0.002  -0.004   0.002  0.00  0.00    +0.216 C 
ATOM     16  O   UNL     1       0.020  -0.616   1.049  0.00  0.00    -0.276 OA
ATOM     17  N   UNL     1       0.000  -0.672  -1.169  0.00  0.00    -0.265 N 
ATOM     18  C   UNL     1       0.019  -2.064  -1.177  0.00  0.00    +0.165 A 
ATOM     19  N   UNL     1       0.034  -2.905  -0.160  0.00  0.00    -0.232 NA
ATOM     20  C   UNL     1       0.051  -4.212  -0.351  0.00  0.00    +0.135 A 
ATOM     21  C   UNL     1       0.053  -4.706  -1.620  0.00  0.00    +0.067 A 
ATOM     22  S   UNL     1       0.021  -3.189  -2.566  0.00  0.00    -0.046 S 
ATOM     23  H   UNL     1      -0.015  -0.182  -2.006  0.00  0.00    +0.157 HD
ENDBRANCH  13  21
ENDBRANCH   1  13
TORSDOF 4
