REMARK  Name = CHEMBL365608
REMARK  5 active torsions:
REMARK  status: ('A' for Active; 'I' for Inactive)
REMARK    1  A    between atoms: C_2  and  C_3
REMARK    2  A    between atoms: C_2  and  C_23
REMARK    3  A    between atoms: C_8  and  N_22
REMARK    4  A    between atoms: C_9  and  C_12
REMARK    5  A    between atoms: C_12  and  C_14
REMARK                            x       y       z     vdW  Elec       q    Type
REMARK                         _______ _______ _______ _____ _____    ______ ____
ROOT
ATOM      1  C   UNL     1      -1.260  -0.859  -0.001  0.00  0.00    -0.001 A 
ATOM      2  C   UNL     1      -1.570  -1.741   1.057  0.00  0.00    +0.013 A 
ATOM      3  C   UNL     1      -2.762  -2.397   1.055  0.00  0.00    +0.047 A 
ATOM      4  C   UNL     1      -3.669  -2.188  -0.000  0.00  0.00    +0.140 A 
ATOM      5  N   UNL     1      -4.878  -2.696  -0.237  0.00  0.00    -0.213 NA
ATOM      6  C   UNL     1      -5.364  -2.202  -1.370  0.00  0.00    +0.146 A 
ATOM      7  C   UNL     1      -4.413  -1.323  -1.899  0.00  0.00    +0.135 A 
ATOM      8  N   UNL     1      -3.345  -1.329  -1.012  0.00  0.00    -0.294 N 
ATOM      9  C   UNL     1      -2.159  -0.669  -1.011  0.00  0.00    +0.102 A 
ENDROOT
BRANCH   6  10
ATOM     10  N   UNL     1      -6.595  -2.505  -1.931  0.00  0.00    -0.341 N 
ATOM     11  H   UNL     1      -7.158  -3.185  -1.527  0.00  0.00    +0.144 HD
ATOM     12  H   UNL     1      -6.894  -2.038  -2.727  0.00  0.00    +0.144 HD
ENDBRANCH   6  10
BRANCH   1  14
ATOM     13  C   UNL     1       0.055   1.202  -0.002  0.00  0.00    +0.018 C 
ATOM     14  C   UNL     1       0.035  -0.137  -0.012  0.00  0.00    -0.011 C 
BRANCH  14  15
ATOM     15  C   UNL     1       1.307  -0.897  -0.034  0.00  0.00    +0.053 A 
ATOM     16  C   UNL     1       1.897  -1.242  -1.251  0.00  0.00    +0.134 A 
ATOM     17  C   UNL     1       3.083  -1.951  -1.264  0.00  0.00    +0.039 A 
ATOM     18  C   UNL     1       3.686  -2.319  -0.075  0.00  0.00    +0.006 A 
ATOM     19  C   UNL     1       3.108  -1.980   1.135  0.00  0.00    +0.039 A 
ATOM     20  C   UNL     1       1.924  -1.266   1.162  0.00  0.00    +0.134 A 
ATOM     21  F   UNL     1       1.363  -0.931   2.345  0.00  0.00    -0.205 F 
ATOM     22  F   UNL     1       1.308  -0.885  -2.414  0.00  0.00    -0.205 F 
ENDBRANCH  14  15
ENDBRANCH   1  14
BRANCH   7  23
ATOM     23  C   UNL     1      -4.518  -0.581  -3.091  0.00  0.00    +0.219 C 
ATOM     24  O   UNL     1      -4.178  -1.078  -4.151  0.00  0.00    -0.285 OA
BRANCH  23  25
ATOM     25  C   UNL     1      -5.041   0.801  -3.057  0.00  0.00    +0.094 A 
ATOM     26  C   UNL     1      -5.316   1.419  -1.833  0.00  0.00    +0.137 A 
ATOM     27  C   UNL     1      -5.805   2.712  -1.811  0.00  0.00    +0.039 A 
ATOM     28  C   UNL     1      -6.022   3.394  -2.994  0.00  0.00    +0.006 A 
ATOM     29  C   UNL     1      -5.752   2.790  -4.209  0.00  0.00    +0.039 A 
ATOM     30  C   UNL     1      -5.258   1.500  -4.249  0.00  0.00    +0.137 A 
ATOM     31  F   UNL     1      -4.991   0.913  -5.436  0.00  0.00    -0.205 F 
ATOM     32  F   UNL     1      -5.106   0.754  -0.676  0.00  0.00    -0.205 F 
ENDBRANCH  23  25
ENDBRANCH   7  23
TORSDOF 5
