REMARK  Name = CHEMBL411224
REMARK  8 active torsions:
REMARK  status: ('A' for Active; 'I' for Inactive)
REMARK    1  A    between atoms: C_1  and  C_2
REMARK    2  A    between atoms: C_2  and  C_3
REMARK    3  A    between atoms: C_2  and  C_4
REMARK    4  A    between atoms: C_4  and  C_5
REMARK    5  A    between atoms: N_12  and  N_13
REMARK    6  A    between atoms: N_13  and  C_14
REMARK    7  A    between atoms: C_17  and  S_20
REMARK    8  A    between atoms: S_20  and  N_23
REMARK                            x       y       z     vdW  Elec       q    Type
REMARK                         _______ _______ _______ _____ _____    ______ ____
ROOT
ATOM      1  C   UNL     1      -1.416  -2.035  -0.119  0.00  0.00    -0.036 A 
ATOM      2  C   UNL     1      -1.553  -2.623  -1.361  0.00  0.00    +0.004 A 
ATOM      3  C   UNL     1      -1.537  -4.002  -1.481  0.00  0.00    +0.002 A 
ATOM      4  C   UNL     1      -1.383  -4.803  -0.367  0.00  0.00    +0.024 A 
ATOM      5  C   UNL     1      -1.244  -4.229   0.891  0.00  0.00    +0.043 A 
ATOM      6  C   UNL     1      -1.256  -2.833   1.008  0.00  0.00    +0.031 A 
ATOM      7  C   UNL     1      -1.082  -2.532   2.448  0.00  0.00    +0.153 C 
ATOM      8  N   UNL     1      -1.038  -1.349   3.018  0.00  0.00    -0.177 NA
ATOM      9  C   UNL     1      -0.970  -3.847   3.101  0.00  0.00    +0.269 C 
ATOM     10  O   UNL     1      -0.815  -4.044   4.293  0.00  0.00    -0.268 OA
ATOM     11  N   UNL     1      -1.078  -4.792   2.151  0.00  0.00    -0.280 N 
ATOM     12  H   UNL     1      -1.036  -5.746   2.322  0.00  0.00    +0.155 HD
ENDROOT
BRANCH   8  13
ATOM     13  N   UNL     1      -0.879  -1.254   4.295  0.00  0.00    -0.237 N 
ATOM     14  H   UNL     1      -0.793  -2.056   4.834  0.00  0.00    +0.174 HD
BRANCH  13  15
ATOM     15  C   UNL     1      -0.833   0.002   4.901  0.00  0.00    +0.048 A 
ATOM     16  C   UNL     1      -0.962   1.152   4.131  0.00  0.00    +0.026 A 
ATOM     17  C   UNL     1      -0.915   2.393   4.734  0.00  0.00    +0.030 A 
ATOM     18  C   UNL     1      -0.739   2.493   6.103  0.00  0.00    +0.105 A 
ATOM     19  C   UNL     1      -0.610   1.351   6.872  0.00  0.00    +0.030 A 
ATOM     20  C   UNL     1      -0.662   0.106   6.277  0.00  0.00    +0.026 A 
BRANCH  18  21
ATOM     21  S   UNL     1      -0.679   4.079   6.868  0.00  0.00    +0.056 S 
ATOM     22  O   UNL     1       0.039   3.917   8.083  0.00  0.00    -0.153 OA
ATOM     23  O   UNL     1      -0.278   5.000   5.863  0.00  0.00    -0.153 OA
BRANCH  21  24
ATOM     24  N   UNL     1      -2.231   4.480   7.285  0.00  0.00    -0.204 NA
ATOM     25  H   UNL     1      -2.959   3.869   7.091  0.00  0.00    +0.144 HD
ATOM     26  H   UNL     1      -2.412   5.326   7.723  0.00  0.00    +0.144 HD
ENDBRANCH  21  24
ENDBRANCH  18  21
ENDBRANCH  13  15
ENDBRANCH   8  13
BRANCH   1  27
ATOM     27  C   UNL     1      -1.433  -0.534   0.013  0.00  0.00    +0.039 C 
BRANCH  27  29
ATOM     28  C   UNL     1      -0.019   1.526   0.010  0.00  0.00    +0.007 C 
ATOM     29  C   UNL     1       0.002  -0.004   0.002  0.00  0.00    -0.013 C 
ATOM     30  C   UNL     1       0.742  -0.511   1.242  0.00  0.00    +0.007 C 
ENDBRANCH  27  29
ENDBRANCH   1  27
TORSDOF 6
