REMARK  Name = CHEMBL360520
REMARK  4 active torsions:
REMARK  status: ('A' for Active; 'I' for Inactive)
REMARK    1  A    between atoms: C_3  and  S_23
REMARK    2  A    between atoms: C_6  and  N_7
REMARK    3  A    between atoms: C_18  and  C_20
REMARK    4  A    between atoms: S_23  and  N_26
REMARK                            x       y       z     vdW  Elec       q    Type
REMARK                         _______ _______ _______ _____ _____    ______ ____
ROOT
ATOM      1  N   UNL     1      -1.200  -0.722   0.010  0.00  0.00    -0.231 N 
ATOM      2  C   UNL     1      -1.415  -1.911  -0.629  0.00  0.00    +0.086 A 
ATOM      3  C   UNL     1      -2.733  -2.291  -0.374  0.00  0.00    +0.033 A 
ATOM      4  C   UNL     1      -3.268  -3.486  -0.900  0.00  0.00    +0.014 A 
ATOM      5  C   UNL     1      -2.545  -4.324  -1.671  0.00  0.00    +0.031 A 
ATOM      6  C   UNL     1      -1.156  -4.011  -1.993  0.00  0.00    +0.095 A 
ATOM      7  C   UNL     1      -0.574  -2.771  -1.459  0.00  0.00    +0.046 A 
ATOM      8  C   UNL     1       0.727  -2.722  -1.909  0.00  0.00    +0.115 A 
ATOM      9  N   UNL     1       0.947  -3.818  -2.653  0.00  0.00    -0.284 N 
ATOM     10  N   UNL     1      -0.211  -4.603  -2.697  0.00  0.00    -0.174 NA
ATOM     11  H   UNL     1       1.784  -4.034  -3.093  0.00  0.00    +0.188 HD
ATOM     12  C   UNL     1      -3.307  -1.237   0.474  0.00  0.00    +0.155 A 
ATOM     13  N   UNL     1      -2.367  -0.339   0.678  0.00  0.00    -0.161 NA
ENDROOT
BRANCH   1  19
ATOM     14  C   UNL     1      -0.017   1.385   0.010  0.00  0.00    +0.030 A 
ATOM     15  C   UNL     1       1.171   2.090   0.002  0.00  0.00    +0.030 A 
ATOM     16  C   UNL     1       2.377   1.415  -0.013  0.00  0.00    +0.105 A 
ATOM     17  C   UNL     1       2.400   0.032  -0.021  0.00  0.00    +0.030 A 
ATOM     18  C   UNL     1       1.216  -0.679  -0.013  0.00  0.00    +0.030 A 
ATOM     19  C   UNL     1       0.002  -0.004   0.002  0.00  0.00    +0.066 A 
BRANCH  16  20
ATOM     20  S   UNL     1       3.890   2.318  -0.024  0.00  0.00    +0.056 S 
ATOM     21  O   UNL     1       4.872   1.460  -0.589  0.00  0.00    -0.153 OA
ATOM     22  O   UNL     1       3.595   3.599  -0.566  0.00  0.00    -0.153 OA
BRANCH  20  23
ATOM     23  N   UNL     1       4.326   2.562   1.555  0.00  0.00    -0.204 NA
ATOM     24  H   UNL     1       3.768   2.220   2.270  0.00  0.00    +0.144 HD
ATOM     25  H   UNL     1       5.141   3.046   1.764  0.00  0.00    +0.144 HD
ENDBRANCH  20  23
ENDBRANCH  16  20
ENDBRANCH   1  19
BRANCH  12  26
ATOM     26  C   UNL     1      -4.682  -1.196   1.003  0.00  0.00    +0.262 C 
ATOM     27  O   UNL     1      -5.460  -2.095   0.746  0.00  0.00    -0.269 OA
ATOM     28  N   UNL     1      -5.077  -0.163   1.773  0.00  0.00    -0.324 N 
ATOM     29  H   UNL     1      -4.456   0.554   1.979  0.00  0.00    +0.145 HD
ATOM     30  H   UNL     1      -5.982  -0.136   2.122  0.00  0.00    +0.145 HD
ENDBRANCH  12  26
TORSDOF 4
