REMARK  Name = CHEMBL559513
REMARK  5 active torsions:
REMARK  status: ('A' for Active; 'I' for Inactive)
REMARK    1  A    between atoms: C_1  and  N_2
REMARK    2  A    between atoms: C_5  and  C_7
REMARK    3  A    between atoms: N_18  and  C_19
REMARK    4  A    between atoms: C_23  and  N_25
REMARK    5  A    between atoms: N_28  and  C_31
REMARK                            x       y       z     vdW  Elec       q    Type
REMARK                         _______ _______ _______ _____ _____    ______ ____
ROOT
ATOM      1  C   UNL     1      -0.828   1.571  -0.134  0.00  0.00    +0.173 C 
ATOM      2  N   UNL     1      -0.647   0.119  -0.061  0.00  0.00    -0.264 N 
ATOM      3  C   UNL     1      -0.353  -0.678  -1.105  0.00  0.00    +0.091 A 
ATOM      4  C   UNL     1      -0.246  -1.962  -0.613  0.00  0.00    +0.012 A 
ATOM      5  C   UNL     1      -0.513  -1.866   0.753  0.00  0.00    +0.151 A 
ATOM      6  N   UNL     1      -0.741  -0.588   1.016  0.00  0.00    -0.166 NA
ATOM      7  C   UNL     1       0.113  -3.132  -1.482  0.00  0.00    +0.044 C 
ATOM      8  C   UNL     1      -0.419  -2.906  -2.898  0.00  0.00    +0.043 C 
ATOM      9  C   UNL     1      -0.140  -1.520  -3.403  0.00  0.00    -0.001 A 
ATOM     10  C   UNL     1      -0.130  -0.416  -2.537  0.00  0.00    +0.097 A 
ATOM     11  N   UNL     1       0.081   0.799  -3.019  0.00  0.00    -0.212 NA
ATOM     12  C   UNL     1       0.304   0.970  -4.316  0.00  0.00    +0.220 A 
ATOM     13  N   UNL     1       0.325  -0.053  -5.157  0.00  0.00    -0.222 NA
ATOM     14  C   UNL     1       0.109  -1.293  -4.743  0.00  0.00    +0.120 A 
ATOM     15  N   UNL     1       0.521   2.250  -4.801  0.00  0.00    -0.284 N 
ATOM     16  H   UNL     1       0.589   2.997  -4.186  0.00  0.00    +0.155 HD
ENDROOT
BRANCH  15  17
ATOM     17  C   UNL     1       0.641   2.464  -6.177  0.00  0.00    +0.035 A 
ATOM     18  C   UNL     1      -0.155   1.749  -7.065  0.00  0.00    +0.023 A 
ATOM     19  C   UNL     1      -0.037   1.960  -8.425  0.00  0.00    +0.004 A 
ATOM     20  C   UNL     1       0.872   2.882  -8.908  0.00  0.00    +0.023 A 
ATOM     21  C   UNL     1       1.671   3.600  -8.026  0.00  0.00    +0.032 A 
ATOM     22  C   UNL     1       1.550   3.395  -6.659  0.00  0.00    +0.046 A 
BRANCH  21  23
ATOM     23  N   UNL     1       2.590   4.531  -8.515  0.00  0.00    -0.327 N 
ATOM     24  C   UNL     1       2.642   4.861  -9.947  0.00  0.00    +0.120 C 
ATOM     25  C   UNL     1       2.585   6.384 -10.099  0.00  0.00    +0.103 C 
ATOM     26  N   UNL     1       3.643   6.994  -9.283  0.00  0.00    -0.302 NA
ATOM     27  C   UNL     1       3.440   6.718  -7.854  0.00  0.00    +0.103 C 
ATOM     28  C   UNL     1       3.528   5.213  -7.610  0.00  0.00    +0.120 C 
ATOM     29  C   UNL     1       3.734   8.439  -9.532  0.00  0.00    +0.105 C 
ENDBRANCH  21  23
ENDBRANCH  15  17
BRANCH   5  30
ATOM     30  C   UNL     1      -0.534  -2.979   1.724  0.00  0.00    +0.262 C 
ATOM     31  O   UNL     1      -0.303  -4.114   1.353  0.00  0.00    -0.269 OA
ATOM     32  N   UNL     1      -0.810  -2.737   3.021  0.00  0.00    -0.324 N 
ATOM     33  H   UNL     1      -0.995  -1.832   3.316  0.00  0.00    +0.145 HD
ATOM     34  H   UNL     1      -0.824  -3.468   3.658  0.00  0.00    +0.145 HD
ENDBRANCH   5  30
TORSDOF 3
