REMARK  Name = CHEMBL429142
REMARK  9 active torsions:
REMARK  status: ('A' for Active; 'I' for Inactive)
REMARK    1  A    between atoms: C_1  and  C_2
REMARK    2  A    between atoms: C_2  and  C_3
REMARK    3  A    between atoms: C_2  and  C_4
REMARK    4  A    between atoms: C_4  and  C_5
REMARK    5  A    between atoms: C_5  and  C_7
REMARK    6  A    between atoms: C_14  and  N_15
REMARK    7  A    between atoms: N_15  and  C_16
REMARK    8  A    between atoms: C_19  and  S_22
REMARK    9  A    between atoms: S_22  and  N_25
REMARK                            x       y       z     vdW  Elec       q    Type
REMARK                         _______ _______ _______ _____ _____    ______ ____
ROOT
ATOM      1  C   UNL     1      -0.128  -1.290   3.810  0.00  0.00    +0.018 A 
ATOM      2  C   UNL     1       1.009  -2.105   3.909  0.00  0.00    +0.013 A 
ATOM      3  C   UNL     1       1.597  -2.332   5.119  0.00  0.00    +0.024 A 
ATOM      4  C   UNL     1       1.075  -1.756   6.277  0.00  0.00    +0.042 A 
ATOM      5  C   UNL     1      -0.063  -0.939   6.187  0.00  0.00    +0.010 A 
ATOM      6  C   UNL     1      -0.661  -0.701   4.961  0.00  0.00    +0.022 A 
ATOM      7  C   UNL     1      -0.362  -0.489   7.568  0.00  0.00    +0.060 C 
ATOM      8  C   UNL     1      -1.381   0.323   7.975  0.00  0.00    +0.085 C 
ATOM      9  C   UNL     1       0.675  -1.109   8.401  0.00  0.00    +0.250 C 
ATOM     10  O   UNL     1       0.788  -0.990   9.608  0.00  0.00    -0.270 OA
ATOM     11  N   UNL     1       1.477  -1.829   7.600  0.00  0.00    -0.281 N 
ATOM     12  H   UNL     1       2.243  -2.338   7.910  0.00  0.00    +0.155 HD
ENDROOT
BRANCH   1  13
ATOM     13  C   UNL     1      -0.753  -1.052   2.502  0.00  0.00    +0.163 C 
ATOM     14  O   UNL     1      -1.733  -0.343   2.418  0.00  0.00    -0.292 OA
BRANCH  13  15
ATOM     15  C   UNL     1      -0.176  -1.690   1.264  0.00  0.00    +0.082 C 
BRANCH  15  17
ATOM     16  C   UNL     1      -0.881   0.225  -0.178  0.00  0.00    +0.007 C 
ATOM     17  C   UNL     1      -1.008  -1.284   0.046  0.00  0.00    -0.010 C 
ATOM     18  C   UNL     1      -0.500  -2.028  -1.190  0.00  0.00    +0.007 C 
ENDBRANCH  15  17
ENDBRANCH  13  15
ENDBRANCH   1  13
BRANCH   8  19
ATOM     19  N   UNL     1      -2.160   0.952   7.052  0.00  0.00    -0.320 N 
ATOM     20  H   UNL     1      -1.945   0.885   6.109  0.00  0.00    +0.152 HD
BRANCH  19  21
ATOM     21  C   UNL     1      -3.270   1.694   7.465  0.00  0.00    +0.031 A 
ATOM     22  C   UNL     1      -3.576   1.796   8.816  0.00  0.00    +0.025 A 
ATOM     23  C   UNL     1      -4.674   2.530   9.220  0.00  0.00    +0.030 A 
ATOM     24  C   UNL     1      -5.468   3.163   8.282  0.00  0.00    +0.105 A 
ATOM     25  C   UNL     1      -5.166   3.064   6.936  0.00  0.00    +0.030 A 
ATOM     26  C   UNL     1      -4.067   2.336   6.525  0.00  0.00    +0.025 A 
BRANCH  24  27
ATOM     27  S   UNL     1      -6.868   4.098   8.802  0.00  0.00    +0.056 S 
ATOM     28  O   UNL     1      -7.761   4.140   7.697  0.00  0.00    -0.153 OA
ATOM     29  O   UNL     1      -7.250   3.586  10.071  0.00  0.00    -0.153 OA
BRANCH  27  30
ATOM     30  N   UNL     1      -6.353   5.652   9.054  0.00  0.00    -0.204 NA
ATOM     31  H   UNL     1      -5.423   5.884   8.908  0.00  0.00    +0.144 HD
ATOM     32  H   UNL     1      -6.982   6.329   9.348  0.00  0.00    +0.144 HD
ENDBRANCH  27  30
ENDBRANCH  24  27
ENDBRANCH  19  21
ENDBRANCH   8  19
TORSDOF 7
