REMARK  Name = CHEMBL231950
REMARK  5 active torsions:
REMARK  status: ('A' for Active; 'I' for Inactive)
REMARK    1  A    between atoms: C_1  and  C_2
REMARK    2  A    between atoms: C_2  and  C_10
REMARK    3  A    between atoms: C_13  and  C_15
REMARK    4  A    between atoms: C_18  and  S_21
REMARK    5  A    between atoms: S_21  and  N_24
REMARK                            x       y       z     vdW  Elec       q    Type
REMARK                         _______ _______ _______ _____ _____    ______ ____
ROOT
ATOM      1  C   UNL     1       0.000  -0.704  -1.225  0.00  0.00    +0.133 A 
ATOM      2  C   UNL     1      -1.021  -0.705  -2.158  0.00  0.00    +0.050 A 
ATOM      3  C   UNL     1      -0.603  -1.524  -3.211  0.00  0.00    +0.050 A 
ATOM      4  C   UNL     1       0.641  -1.988  -2.890  0.00  0.00    +0.136 A 
ATOM      5  O   UNL     1       0.996  -1.483  -1.695  0.00  0.00    -0.455 OA
ENDROOT
BRANCH   1   7
ATOM      6  C   UNL     1      -0.018   1.503   0.010  0.00  0.00    +0.049 C 
ATOM      7  C   UNL     1       0.002  -0.004   0.002  0.00  0.00    +0.011 C 
ATOM      8  C   UNL     1       0.023  -0.692   1.179  0.00  0.00    +0.084 C 
ATOM      9  C   UNL     1       0.023  -0.181   2.559  0.00  0.00    +0.257 C 
ATOM     10  O   UNL     1       0.002   1.014   2.794  0.00  0.00    -0.269 OA
ATOM     11  N   UNL     1       0.046  -1.075   3.533  0.00  0.00    -0.261 N 
ATOM     12  C   UNL     1       0.069  -2.425   3.245  0.00  0.00    +0.158 C 
ATOM     13  N   UNL     1       0.093  -3.432   4.075  0.00  0.00    -0.279 NA
ATOM     14  S   UNL     1       0.049  -2.457   1.460  0.00  0.00    -0.049 S 
ATOM     15  H   UNL     1       0.046  -0.780   4.457  0.00  0.00    +0.157 HD
ATOM     16  H   UNL     1       0.108  -4.340   3.736  0.00  0.00    +0.189 HD
ENDBRANCH   1   7
BRANCH   4  17
ATOM     17  C   UNL     1       1.461  -2.891  -3.721  0.00  0.00    +0.017 A 
ATOM     18  C   UNL     1       0.982  -3.339  -4.954  0.00  0.00    +0.013 A 
ATOM     19  C   UNL     1       1.755  -4.182  -5.725  0.00  0.00    +0.029 A 
ATOM     20  C   UNL     1       3.002  -4.585  -5.279  0.00  0.00    +0.105 A 
ATOM     21  C   UNL     1       3.482  -4.145  -4.058  0.00  0.00    +0.029 A 
ATOM     22  C   UNL     1       2.724  -3.296  -3.280  0.00  0.00    +0.013 A 
BRANCH  20  23
ATOM     23  S   UNL     1       3.981  -5.663  -6.271  0.00  0.00    +0.056 S 
ATOM     24  O   UNL     1       4.874  -6.327  -5.387  0.00  0.00    -0.153 OA
ATOM     25  O   UNL     1       3.082  -6.366  -7.116  0.00  0.00    -0.153 OA
BRANCH  23  26
ATOM     26  N   UNL     1       4.912  -4.711  -7.256  0.00  0.00    -0.204 NA
ATOM     27  H   UNL     1       4.841  -3.745  -7.205  0.00  0.00    +0.144 HD
ATOM     28  H   UNL     1       5.527  -5.120  -7.885  0.00  0.00    +0.144 HD
ENDBRANCH  23  26
ENDBRANCH  20  23
ENDBRANCH   4  17
TORSDOF 4
