REMARK  Name = CHEMBL446409
REMARK  6 active torsions:
REMARK  status: ('A' for Active; 'I' for Inactive)
REMARK    1  A    between atoms: C_3  and  C_24
REMARK    2  A    between atoms: C_9  and  O_23
REMARK    3  A    between atoms: C_10  and  N_11
REMARK    4  A    between atoms: N_12  and  C_13
REMARK    5  A    between atoms: C_16  and  S_19
REMARK    6  A    between atoms: S_19  and  N_22
REMARK                            x       y       z     vdW  Elec       q    Type
REMARK                         _______ _______ _______ _____ _____    ______ ____
ROOT
ATOM      1  C   UNL     1       2.138  -5.018  -2.006  0.00  0.00    +0.003 A 
ATOM      2  C   UNL     1       2.454  -3.789  -2.557  0.00  0.00    +0.011 A 
ATOM      3  C   UNL     1       3.359  -2.949  -1.917  0.00  0.00    +0.013 A 
ATOM      4  C   UNL     1       3.946  -3.359  -0.711  0.00  0.00    +0.040 A 
ATOM      5  C   UNL     1       3.619  -4.607  -0.160  0.00  0.00    +0.052 A 
ATOM      6  C   UNL     1       2.711  -5.428  -0.819  0.00  0.00    +0.026 A 
ATOM      7  N   UNL     1       4.335  -4.752   1.016  0.00  0.00    -0.324 N 
ATOM      8  H   UNL     1       4.294  -5.527   1.597  0.00  0.00    +0.169 HD
ATOM      9  C   UNL     1       5.105  -3.653   1.241  0.00  0.00    +0.219 A 
ATOM     10  C   UNL     1       4.917  -2.744   0.210  0.00  0.00    +0.155 A 
ENDROOT
BRANCH   3  11
ATOM     11  C   UNL     1       3.701  -1.632  -2.505  0.00  0.00    +0.093 A 
ATOM     12  C   UNL     1       3.183  -1.098  -3.702  0.00  0.00    +0.049 A 
ATOM     13  C   UNL     1       3.741   0.117  -3.889  0.00  0.00    +0.105 A 
ATOM     14  N   UNL     1       4.581   0.354  -2.859  0.00  0.00    -0.284 N 
ATOM     15  H   UNL     1       5.118   1.152  -2.733  0.00  0.00    +0.188 HD
ATOM     16  N   UNL     1       4.538  -0.751  -1.998  0.00  0.00    -0.174 NA
ENDBRANCH   3  11
BRANCH  10  17
ATOM     17  N   UNL     1       5.505  -1.537   0.078  0.00  0.00    -0.143 NA
ATOM     18  N   UNL     1       5.485  -0.699   1.059  0.00  0.00    -0.149 NA
BRANCH  18  19
ATOM     19  C   UNL     1       4.865  -1.032   2.231  0.00  0.00    +0.086 A 
ATOM     20  C   UNL     1       5.600  -1.113   3.416  0.00  0.00    +0.031 A 
ATOM     21  C   UNL     1       4.968  -1.450   4.595  0.00  0.00    +0.030 A 
ATOM     22  C   UNL     1       3.609  -1.709   4.605  0.00  0.00    +0.105 A 
ATOM     23  C   UNL     1       2.874  -1.631   3.435  0.00  0.00    +0.030 A 
ATOM     24  C   UNL     1       3.491  -1.289   2.250  0.00  0.00    +0.031 A 
BRANCH  22  25
ATOM     25  S   UNL     1       2.810  -2.140   6.115  0.00  0.00    +0.056 S 
ATOM     26  O   UNL     1       1.640  -2.865   5.763  0.00  0.00    -0.153 OA
ATOM     27  O   UNL     1       3.813  -2.678   6.966  0.00  0.00    -0.153 OA
BRANCH  25  28
ATOM     28  N   UNL     1       2.299  -0.731   6.819  0.00  0.00    -0.204 NA
ATOM     29  H   UNL     1       1.507  -0.727   7.379  0.00  0.00    +0.144 HD
ATOM     30  H   UNL     1       2.791   0.092   6.670  0.00  0.00    +0.144 HD
ENDBRANCH  25  28
ENDBRANCH  22  25
ENDBRANCH  18  19
ENDBRANCH  10  17
BRANCH   9  31
ATOM     31  O   UNL     1       5.925  -3.476   2.302  0.00  0.00    -0.492 OA
ATOM     32  H   UNL     1       6.803  -3.864   2.190  0.00  0.00    +0.294 HD
ENDBRANCH   9  31
TORSDOF 6
