REMARK  Name = CHEMBL14619
REMARK  7 active torsions:
REMARK  status: ('A' for Active; 'I' for Inactive)
REMARK    1  A    between atoms: C_1  and  C_2
REMARK    2  A    between atoms: C_2  and  C_3
REMARK    3  A    between atoms: C_3  and  C_4
REMARK    4  A    between atoms: C_4  and  O_5
REMARK    5  A    between atoms: O_5  and  C_6
REMARK    6  A    between atoms: C_15  and  C_16
REMARK    7  A    between atoms: C_16  and  C_18
REMARK                            x       y       z     vdW  Elec       q    Type
REMARK                         _______ _______ _______ _____ _____    ______ ____
ROOT
ATOM      1  C   UNL     1      -2.784  -3.905   0.011  0.00  0.00    +0.145 A 
ATOM      2  C   UNL     1      -2.877  -4.617  -1.206  0.00  0.00    +0.081 A 
ATOM      3  C   UNL     1      -2.747  -4.285  -2.542  0.00  0.00    +0.118 A 
ATOM      4  N   UNL     1      -2.946  -5.397  -3.260  0.00  0.00    -0.282 N 
ATOM      5  N   UNL     1      -3.210  -6.475  -2.408  0.00  0.00    -0.154 NA
ATOM      6  H   UNL     1      -2.913  -5.448  -4.228  0.00  0.00    +0.188 HD
ATOM      7  C   UNL     1      -3.179  -6.056  -1.159  0.00  0.00    +0.185 A 
ATOM      8  N   UNL     1      -3.359  -6.656   0.034  0.00  0.00    -0.233 NA
ATOM      9  C   UNL     1      -3.272  -5.995   1.155  0.00  0.00    +0.128 A 
ATOM     10  C   UNL     1      -2.982  -4.618   1.201  0.00  0.00    +0.083 A 
ENDROOT
BRANCH  10  11
ATOM     11  C   UNL     1      -2.890  -3.929   2.495  0.00  0.00    +0.198 C 
ATOM     12  O   UNL     1      -1.908  -4.080   3.197  0.00  0.00    -0.286 OA
BRANCH  11  13
ATOM     13  C   UNL     1      -3.992  -3.051   2.944  0.00  0.00    +0.022 A 
ATOM     14  C   UNL     1      -5.170  -2.967   2.199  0.00  0.00    +0.012 A 
ATOM     15  C   UNL     1      -6.194  -2.146   2.624  0.00  0.00    +0.001 A 
ATOM     16  C   UNL     1      -6.054  -1.405   3.784  0.00  0.00    +0.000 A 
ATOM     17  C   UNL     1      -4.889  -1.483   4.527  0.00  0.00    +0.001 A 
ATOM     18  C   UNL     1      -3.861  -2.306   4.117  0.00  0.00    +0.012 A 
ENDBRANCH  11  13
ENDBRANCH  10  11
BRANCH   1  19
ATOM     19  O   UNL     1      -2.508  -2.582   0.027  0.00  0.00    -0.490 OA
BRANCH  19  20
ATOM     20  C   UNL     1      -1.131  -2.207   0.086  0.00  0.00    +0.229 C 
BRANCH  20  21
ATOM     21  C   UNL     1      -1.017  -0.681   0.096  0.00  0.00    +0.041 C 
BRANCH  21  23
ATOM     22  C   UNL     1       0.571   1.246   0.169  0.00  0.00    +0.004 C 
ATOM     23  C   UNL     1       0.458  -0.280   0.158  0.00  0.00    -0.000 C 
ENDBRANCH  21  23
ENDBRANCH  20  21
ENDBRANCH  19  20
ENDBRANCH   1  19
TORSDOF 6
