REMARK  Name = CHEMBL435992
REMARK  10 active torsions:
REMARK  status: ('A' for Active; 'I' for Inactive)
REMARK    1  A    between atoms: C_1  and  C_2
REMARK    2  A    between atoms: C_2  and  C_3
REMARK    3  A    between atoms: C_2  and  C_4
REMARK    4  A    between atoms: C_10  and  S_12
REMARK    5  A    between atoms: S_12  and  C_15
REMARK    6  A    between atoms: C_15  and  C_16
REMARK    7  A    between atoms: C_19  and  C_21
REMARK    8  A    between atoms: C_21  and  C_22
REMARK    9  A    between atoms: C_21  and  C_23
REMARK   10  A    between atoms: C_21  and  C_24
REMARK                            x       y       z     vdW  Elec       q    Type
REMARK                         _______ _______ _______ _____ _____    ______ ____
ROOT
ATOM      1  S   UNL     1      -6.573  -4.753   0.046  0.00  0.00    +0.013 S 
ATOM      2  O   UNL     1      -6.049  -5.931   0.644  0.00  0.00    -0.168 OA
ATOM      3  O   UNL     1      -7.641  -4.043   0.658  0.00  0.00    -0.168 OA
ENDROOT
BRANCH   1  10
ATOM      4  C   UNL     1      -1.412  -0.526   0.013  0.00  0.00    +0.221 C 
ATOM      5  O   UNL     1      -2.344   0.250   0.026  0.00  0.00    -0.275 OA
ATOM      6  N   UNL     1      -1.640  -1.854   0.008  0.00  0.00    -0.264 N 
ATOM      7  C   UNL     1      -2.944  -2.335   0.018  0.00  0.00    +0.166 A 
ATOM      8  N   UNL     1      -4.068  -1.651   0.026  0.00  0.00    -0.231 NA
ATOM      9  C   UNL     1      -5.238  -2.262   0.035  0.00  0.00    +0.147 A 
ATOM     10  C   UNL     1      -5.226  -3.617   0.035  0.00  0.00    +0.147 A 
ATOM     11  S   UNL     1      -3.469  -3.934   0.014  0.00  0.00    -0.034 S 
ATOM     12  H   UNL     1      -0.894  -2.474  -0.003  0.00  0.00    +0.157 HD
BRANCH   4  14
ATOM     13  C   UNL     1      -0.019   1.526   0.010  0.00  0.00    +0.017 C 
ATOM     14  C   UNL     1       0.002  -0.004   0.002  0.00  0.00    +0.069 C 
ATOM     15  C   UNL     1       0.742  -0.511   1.242  0.00  0.00    +0.017 C 
ENDBRANCH   4  14
ENDBRANCH   1  10
BRANCH   1  16
ATOM     16  C   UNL     1      -6.944  -5.054  -1.704  0.00  0.00    +0.268 C 
BRANCH  16  17
ATOM     17  C   UNL     1      -8.093  -6.022  -1.815  0.00  0.00    +0.217 A 
ATOM     18  N   UNL     1      -9.354  -5.700  -1.871  0.00  0.00    -0.220 NA
ATOM     19  C   UNL     1     -10.082  -6.826  -1.967  0.00  0.00    +0.156 A 
ATOM     20  C   UNL     1      -9.230  -7.865  -1.968  0.00  0.00    +0.131 A 
ATOM     21  O   UNL     1      -7.986  -7.356  -1.879  0.00  0.00    -0.442 OA
BRANCH  20  22
ATOM     22  C   UNL     1      -9.597  -9.323  -2.059  0.00  0.00    +0.022 C 
ATOM     23  C   UNL     1     -10.349  -9.580  -3.366  0.00  0.00    +0.019 C 
ATOM     24  C   UNL     1      -8.324 -10.172  -2.028  0.00  0.00    +0.019 C 
ATOM     25  C   UNL     1     -10.490  -9.700  -0.875  0.00  0.00    +0.019 C 
ENDBRANCH  20  22
ENDBRANCH  16  17
ENDBRANCH   1  16
TORSDOF 5
