REMARK  Name = CHEMBL373346
REMARK  5 active torsions:
REMARK  status: ('A' for Active; 'I' for Inactive)
REMARK    1  A    between atoms: C_1  and  C_2
REMARK    2  A    between atoms: C_2  and  C_3
REMARK    3  A    between atoms: C_2  and  C_16
REMARK    4  A    between atoms: C_6  and  N_9
REMARK    5  A    between atoms: C_21  and  C_25
REMARK                            x       y       z     vdW  Elec       q    Type
REMARK                         _______ _______ _______ _____ _____    ______ ____
ROOT
ATOM      1  C   UNL     1      -0.319   1.463  -0.130  0.00  0.00    +0.022 C 
ATOM      2  C   UNL     1      -0.014  -0.030   0.003  0.00  0.00    +0.102 C 
ENDROOT
BRANCH   2   3
ATOM      3  C   UNL     1       0.867  -0.257   1.205  0.00  0.00    +0.225 C 
ATOM      4  O   UNL     1       1.962  -0.760   1.068  0.00  0.00    -0.275 OA
ATOM      5  N   UNL     1       0.438   0.098   2.432  0.00  0.00    -0.268 N 
ATOM      6  C   UNL     1       1.256  -0.113   3.550  0.00  0.00    +0.147 A 
ATOM      7  C   UNL     1       2.542  -0.677   3.535  0.00  0.00    +0.068 A 
ATOM      8  C   UNL     1       2.996  -0.708   4.809  0.00  0.00    +0.041 A 
ATOM      9  N   UNL     1       2.038  -0.185   5.602  0.00  0.00    -0.280 N 
ATOM     10  H   UNL     1       2.090  -0.081   6.566  0.00  0.00    +0.189 HD
ATOM     11  N   UNL     1       0.958   0.187   4.792  0.00  0.00    -0.158 NA
ATOM     12  H   UNL     1      -0.439   0.500   2.542  0.00  0.00    +0.156 HD
BRANCH   8  13
ATOM     13  C   UNL     1       4.334  -1.234   5.261  0.00  0.00    +0.037 C 
ATOM     14  C   UNL     1       4.401  -1.909   6.633  0.00  0.00    +0.010 C 
ATOM     15  C   UNL     1       5.014  -0.521   6.432  0.00  0.00    +0.010 C 
ENDBRANCH   8  13
ENDBRANCH   2   3
BRANCH   2  16
ATOM     16  C   UNL     1       0.695  -0.510  -1.237  0.00  0.00    -0.036 A 
ATOM     17  C   UNL     1       1.910   0.044  -1.596  0.00  0.00    +0.006 A 
ATOM     18  C   UNL     1       2.562  -0.394  -2.732  0.00  0.00    +0.024 A 
ATOM     19  C   UNL     1       1.997  -1.393  -3.513  0.00  0.00    +0.041 A 
ATOM     20  C   UNL     1       0.777  -1.948  -3.150  0.00  0.00    +0.024 A 
ATOM     21  C   UNL     1       0.132  -1.509  -2.010  0.00  0.00    +0.006 A 
BRANCH  19  22
ATOM     22  N   UNL     1       2.656  -1.839  -4.666  0.00  0.00    -0.245 N 
ATOM     23  C   UNL     1       2.179  -1.616  -5.948  0.00  0.00    +0.012 C 
ATOM     24  C   UNL     1       1.070  -0.972  -6.256  0.00  0.00    +0.029 C 
ATOM     25  C   UNL     1       3.143  -2.236  -6.936  0.00  0.00    +0.060 C 
ATOM     26  C   UNL     1       4.242  -2.847  -6.045  0.00  0.00    +0.102 C 
ATOM     27  C   UNL     1       3.809  -2.518  -4.636  0.00  0.00    +0.224 C 
ATOM     28  O   UNL     1       4.414  -2.824  -3.630  0.00  0.00    -0.275 OA
ENDBRANCH  19  22
ENDBRANCH   2  16
TORSDOF 4
