REMARK  Name = CHEMBL8817
REMARK  6 active torsions:
REMARK  status: ('A' for Active; 'I' for Inactive)
REMARK    1  A    between atoms: C_1  and  N_2
REMARK    2  A    between atoms: C_5  and  C_11
REMARK    3  A    between atoms: C_7  and  O_10
REMARK    4  A    between atoms: C_12  and  O_30
REMARK    5  A    between atoms: C_14  and  O_29
REMARK    6  A    between atoms: C_18  and  C_22
REMARK                            x       y       z     vdW  Elec       q    Type
REMARK                         _______ _______ _______ _____ _____    ______ ____
ROOT
ATOM      1  C   UNL     1      -1.636   0.215   3.925  0.00  0.00    +0.043 A 
ATOM      2  C   UNL     1      -1.806   1.589   4.016  0.00  0.00    +0.127 A 
ATOM      3  C   UNL     1      -2.405   2.156   5.135  0.00  0.00    +0.092 A 
ATOM      4  C   UNL     1      -2.839   1.352   6.174  0.00  0.00    +0.135 A 
ATOM      5  C   UNL     1      -2.671  -0.035   6.088  0.00  0.00    +0.106 A 
ATOM      6  C   UNL     1      -2.070  -0.607   4.953  0.00  0.00    +0.150 A 
ATOM      7  O   UNL     1      -1.916  -1.946   4.878  0.00  0.00    -0.454 OA
ATOM      8  C   UNL     1      -2.325  -2.770   5.856  0.00  0.00    +0.141 A 
ATOM      9  C   UNL     1      -2.922  -2.319   6.991  0.00  0.00    +0.098 A 
ATOM     10  C   UNL     1      -3.117  -0.928   7.171  0.00  0.00    +0.197 A 
ATOM     11  O   UNL     1      -3.649  -0.488   8.177  0.00  0.00    -0.287 OA
ENDROOT
BRANCH   1  16
ATOM     12  C   UNL     1       0.486   1.493   0.267  0.00  0.00    -0.096 C 
ATOM     13  N   UNL     1       0.434   0.026   0.213  0.00  0.00    +0.380 N 
ATOM     14  C   UNL     1      -0.966  -0.413   0.209  0.00  0.00    -0.078 C 
ATOM     15  C   UNL     1      -1.681   0.138   1.445  0.00  0.00    -0.008 C 
ATOM     16  C   UNL     1      -0.985  -0.384   2.705  0.00  0.00    +0.051 C 
ATOM     17  C   UNL     1       0.493   0.017   2.663  0.00  0.00    +0.106 C 
ATOM     18  C   UNL     1       1.127  -0.529   1.382  0.00  0.00    -0.047 C 
ATOM     19  H   UNL     1       0.888  -0.295  -0.629  0.00  0.00    -0.082 HD
BRANCH  17  20
ATOM     20  O   UNL     1       0.602   1.442   2.680  0.00  0.00    -0.393 OA
ATOM     21  H   UNL     1       1.512   1.767   2.655  0.00  0.00    +0.210 HD
ENDBRANCH  17  20
ENDBRANCH   1  16
BRANCH   8  22
ATOM     22  C   UNL     1      -2.119  -4.223   5.692  0.00  0.00    +0.036 A 
ATOM     23  C   UNL     1      -3.204  -5.098   5.764  0.00  0.00    +0.013 A 
ATOM     24  C   UNL     1      -3.005  -6.454   5.610  0.00  0.00    +0.001 A 
ATOM     25  C   UNL     1      -1.732  -6.948   5.383  0.00  0.00    +0.001 A 
ATOM     26  C   UNL     1      -0.651  -6.088   5.310  0.00  0.00    +0.021 A 
ATOM     27  C   UNL     1      -0.837  -4.728   5.457  0.00  0.00    +0.052 A 
ATOM     28 CL   UNL     1       0.520  -3.648   5.358  0.00  0.00    -0.083 Cl
ENDBRANCH   8  22
BRANCH   4  29
ATOM     29  O   UNL     1      -3.423   1.904   7.267  0.00  0.00    -0.506 OA
ATOM     30  H   UNL     1      -4.384   1.992   7.198  0.00  0.00    +0.292 HD
ENDBRANCH   4  29
BRANCH   2  31
ATOM     31  O   UNL     1      -1.384   2.387   3.002  0.00  0.00    -0.506 OA
ATOM     32  H   UNL     1      -2.052   2.545   2.322  0.00  0.00    +0.292 HD
ENDBRANCH   2  31
TORSDOF 5
