REMARK  Name = CHEMBL143748
REMARK  4 active torsions:
REMARK  status: ('A' for Active; 'I' for Inactive)
REMARK    1  A    between atoms: C_5  and  N_7
REMARK    2  A    between atoms: C_13  and  C_17
REMARK    3  A    between atoms: C_17  and  N_18
REMARK    4  A    between atoms: N_18  and  C_19
REMARK                            x       y       z     vdW  Elec       q    Type
REMARK                         _______ _______ _______ _____ _____    ______ ____
ROOT
ATOM      1  N   UNL     1       1.231  -2.086  -0.011  0.00  0.00    -0.269 N 
ATOM      2  C   UNL     1       0.076  -2.774   0.090  0.00  0.00    +0.309 C 
ATOM      3  O   UNL     1      -0.986  -2.182   0.095  0.00  0.00    -0.252 OA
ATOM      4  N   UNL     1       0.099  -4.118   0.184  0.00  0.00    -0.253 N 
ATOM      5  C   UNL     1      -1.102  -4.833   0.289  0.00  0.00    +0.148 A 
ATOM      6  C   UNL     1      -2.393  -4.281   0.302  0.00  0.00    +0.069 A 
ATOM      7  C   UNL     1      -3.278  -5.298   0.415  0.00  0.00    +0.052 A 
ATOM      8  N   UNL     1      -2.579  -6.451   0.472  0.00  0.00    -0.279 N 
ATOM      9  N   UNL     1      -1.216  -6.137   0.386  0.00  0.00    -0.158 NA
ATOM     10  H   UNL     1      -2.954  -7.341   0.555  0.00  0.00    +0.189 HD
ATOM     11  H   UNL     1       2.072  -2.560  -0.098  0.00  0.00    +0.156 HD
ATOM     12  H   UNL     1       0.946  -4.590   0.180  0.00  0.00    +0.158 HD
ENDROOT
BRANCH   1  17
ATOM     13  C   UNL     1       0.151   1.372   0.648  0.00  0.00    +0.003 A 
ATOM     14  C   UNL     1       1.166   2.091   0.051  0.00  0.00    +0.013 A 
ATOM     15  C   UNL     1       2.216   1.425  -0.580  0.00  0.00    +0.044 A 
ATOM     16  C   UNL     1       2.241   0.026  -0.583  0.00  0.00    +0.006 A 
ATOM     17  C   UNL     1       1.216  -0.686   0.010  0.00  0.00    +0.040 A 
ATOM     18  C   UNL     1       0.168  -0.010   0.626  0.00  0.00    +0.024 A 
ATOM     19  C   UNL     1       3.513  -0.367  -1.276  0.00  0.00    +0.109 C 
ATOM     20  C   UNL     1       3.269  -1.299  -2.474  0.00  0.00    +0.029 C 
ATOM     21  C   UNL     1       4.266  -0.809  -3.551  0.00  0.00    +0.021 C 
ATOM     22  C   UNL     1       4.988   0.399  -2.904  0.00  0.00    +0.109 C 
ATOM     23  N   UNL     1       4.044   0.880  -1.872  0.00  0.00    -0.290 N 
ATOM     24  C   UNL     1       3.410   1.909  -1.307  0.00  0.00    +0.247 C 
ATOM     25  O   UNL     1       3.760   3.071  -1.379  0.00  0.00    -0.270 OA
ENDBRANCH   1  17
BRANCH   7  26
ATOM     26  C   UNL     1      -4.778  -5.166   0.469  0.00  0.00    +0.136 C 
BRANCH  26  27
ATOM     27  N   UNL     1      -5.334  -5.345  -0.879  0.00  0.00    -0.307 NA
ATOM     28  H   UNL     1      -4.923  -4.693  -1.529  0.00  0.00    +0.123 HD
BRANCH  27  29
ATOM     29  C   UNL     1      -6.798  -5.223  -0.865  0.00  0.00    +0.063 C 
ATOM     30  C   UNL     1      -7.228  -3.756  -1.074  0.00  0.00    +0.054 C 
ATOM     31  C   UNL     1      -8.500  -3.829  -1.892  0.00  0.00    -0.043 A 
ATOM     32  C   UNL     1      -9.483  -2.877  -2.108  0.00  0.00    +0.005 A 
ATOM     33  C   UNL     1     -10.572  -3.172  -2.904  0.00  0.00    +0.020 A 
ATOM     34  C   UNL     1     -10.683  -4.421  -3.488  0.00  0.00    +0.041 A 
ATOM     35  C   UNL     1      -9.702  -5.372  -3.273  0.00  0.00    +0.024 A 
ATOM     36  C   UNL     1      -8.610  -5.077  -2.475  0.00  0.00    -0.041 A 
ATOM     37  C   UNL     1      -7.419  -5.933  -2.086  0.00  0.00    +0.054 C 
ATOM     38 CL   UNL     1     -12.050  -4.795  -4.490  0.00  0.00    -0.084 Cl
ENDBRANCH  27  29
ENDBRANCH  26  27
ENDBRANCH   7  26
TORSDOF 4
