REMARK  Name = CHEMBL186371
REMARK  2 active torsions:
REMARK  status: ('A' for Active; 'I' for Inactive)
REMARK    1  A    between atoms: C_5  and  N_7
REMARK    2  A    between atoms: C_14  and  C_16
REMARK                            x       y       z     vdW  Elec       q    Type
REMARK                         _______ _______ _______ _____ _____    ______ ____
ROOT
ATOM      1  N   UNL     1      -3.603   2.194   0.048  0.00  0.00    -0.267 N 
ATOM      2  C   UNL     1      -3.549   3.536   0.156  0.00  0.00    +0.310 C 
ATOM      3  O   UNL     1      -2.474   4.104   0.148  0.00  0.00    -0.252 OA
ATOM      4  N   UNL     1      -4.687   4.249   0.272  0.00  0.00    -0.248 N 
ATOM      5  C   UNL     1      -4.631   5.633   0.384  0.00  0.00    +0.166 A 
ATOM      6  N   UNL     1      -3.570   6.411   0.388  0.00  0.00    -0.233 NA
ATOM      7  C   UNL     1      -3.685   7.721   0.503  0.00  0.00    +0.124 A 
ATOM      8  C   UNL     1      -4.940   8.222   0.615  0.00  0.00    +0.014 A 
ATOM      9  S   UNL     1      -5.905   6.722   0.537  0.00  0.00    -0.057 S 
ATOM     10  H   UNL     1      -4.462   1.746  -0.012  0.00  0.00    +0.156 HD
ATOM     11  H   UNL     1      -5.545   3.796   0.278  0.00  0.00    +0.158 HD
ENDROOT
BRANCH   1  16
ATOM     12  C   UNL     1      -0.114   1.223  -0.627  0.00  0.00    +0.004 A 
ATOM     13  C   UNL     1      -0.003  -0.010  -0.065  0.00  0.00    +0.032 A 
ATOM     14  C   UNL     1      -1.114  -0.583   0.579  0.00  0.00    +0.114 A 
ATOM     15  C   UNL     1      -2.374   0.172   0.626  0.00  0.00    +0.134 A 
ATOM     16  C   UNL     1      -2.423   1.447   0.022  0.00  0.00    +0.064 A 
ATOM     17  C   UNL     1      -1.304   1.946  -0.581  0.00  0.00    +0.026 A 
ATOM     18  N   UNL     1      -3.213  -0.611   1.282  0.00  0.00    -0.153 NA
ATOM     19  N   UNL     1      -2.601  -1.696   1.609  0.00  0.00    -0.196 N 
ATOM     20  N   UNL     1      -1.375  -1.714   1.214  0.00  0.00    -0.155 NA
ATOM     21  H   UNL     1      -3.018  -2.421   2.099  0.00  0.00    +0.213 HD
ENDBRANCH   1  16
BRANCH   8  22
ATOM     22  C   UNL     1      -5.394   9.652   0.759  0.00  0.00    +0.027 C 
ATOM     23  C   UNL     1      -6.597   9.824   1.702  0.00  0.00    +0.009 C 
ATOM     24  C   UNL     1      -7.137  10.856   0.699  0.00  0.00    +0.001 C 
ATOM     25  C   UNL     1      -6.319  10.121  -0.377  0.00  0.00    +0.009 C 
ENDBRANCH   8  22
TORSDOF 2
