REMARK  Name = CHEMBL561179
REMARK  5 active torsions:
REMARK  status: ('A' for Active; 'I' for Inactive)
REMARK    1  A    between atoms: C_3  and  N_24
REMARK    2  A    between atoms: C_6  and  C_7
REMARK    3  A    between atoms: C_10  and  C_15
REMARK    4  A    between atoms: C_15  and  O_16
REMARK    5  A    between atoms: O_16  and  C_17
REMARK                            x       y       z     vdW  Elec       q    Type
REMARK                         _______ _______ _______ _____ _____    ______ ____
ROOT
ATOM      1  C   UNL     1      -1.268  -0.762   0.010  0.00  0.00    +0.132 A 
ATOM      2  N   UNL     1      -1.452  -2.058   0.010  0.00  0.00    -0.155 NA
ATOM      3  N   UNL     1      -2.729  -2.603   0.019  0.00  0.00    -0.186 N 
ATOM      4  C   UNL     1      -3.349  -3.836   0.023  0.00  0.00    +0.193 A 
ATOM      5  N   UNL     1      -4.638  -3.639   0.033  0.00  0.00    -0.128 NA
ATOM      6  N   UNL     1      -4.892  -2.377   0.036  0.00  0.00    -0.120 NA
ATOM      7  C   UNL     1      -3.776  -1.713   0.028  0.00  0.00    +0.218 A 
ATOM      8  S   UNL     1      -2.943  -0.144   0.030  0.00  0.00    -0.026 S 
ENDROOT
BRANCH   1  14
ATOM      9  C   UNL     1      -0.017   1.392   0.010  0.00  0.00    +0.012 A 
ATOM     10  C   UNL     1       1.168   2.095   0.002  0.00  0.00    +0.023 A 
ATOM     11  C   UNL     1       2.381   1.417  -0.013  0.00  0.00    +0.025 A 
ATOM     12  C   UNL     1       2.403   0.026  -0.021  0.00  0.00    +0.023 A 
ATOM     13  C   UNL     1       1.222  -0.683  -0.014  0.00  0.00    +0.012 A 
ATOM     14  C   UNL     1       0.002  -0.004   0.002  0.00  0.00    +0.009 A 
BRANCH  11  15
ATOM     15  N   UNL     1       3.579   2.131  -0.021  0.00  0.00    -0.358 N 
ATOM     16  H   UNL     1       3.564   3.101  -0.015  0.00  0.00    +0.142 HD
ATOM     17  H   UNL     1       4.426   1.659  -0.031  0.00  0.00    +0.142 HD
ENDBRANCH  11  15
ENDBRANCH   1  14
BRANCH   4  18
ATOM     18  C   UNL     1      -2.657  -5.174   0.016  0.00  0.00    +0.307 C 
BRANCH  18  19
ATOM     19  O   UNL     1      -2.428  -5.599   1.361  0.00  0.00    -0.484 OA
BRANCH  19  20
ATOM     20  C   UNL     1      -1.808  -6.796   1.533  0.00  0.00    +0.121 A 
ATOM     21  C   UNL     1      -1.423  -7.544   0.430  0.00  0.00    +0.047 A 
ATOM     22  C   UNL     1      -0.793  -8.761   0.606  0.00  0.00    +0.023 A 
ATOM     23  C   UNL     1      -0.546  -9.234   1.883  0.00  0.00    +0.041 A 
ATOM     24  C   UNL     1      -0.930  -8.490   2.985  0.00  0.00    +0.023 A 
ATOM     25  C   UNL     1      -1.554  -7.269   2.812  0.00  0.00    +0.047 A 
ATOM     26 CL   UNL     1       0.245 -10.763   2.103  0.00  0.00    -0.084 Cl
ENDBRANCH  19  20
ENDBRANCH  18  19
ENDBRANCH   4  18
TORSDOF 5
