REMARK  Name = CHEMBL181790
REMARK  3 active torsions:
REMARK  status: ('A' for Active; 'I' for Inactive)
REMARK    1  A    between atoms: N_11  and  C_17
REMARK    2  A    between atoms: C_13  and  C_14
REMARK    3  A    between atoms: C_17  and  C_18
REMARK                            x       y       z     vdW  Elec       q    Type
REMARK                         _______ _______ _______ _____ _____    ______ ____
ROOT
ATOM      1  C   UNL     1      -0.016   1.308   0.009  0.00  0.00    +0.144 A 
ATOM      2  C   UNL     1      -1.344   1.716   0.018  0.00  0.00    +0.041 A 
ATOM      3  C   UNL     1      -2.142   0.586  -0.013  0.00  0.00    +0.046 A 
ATOM      4  N   UNL     1      -1.322  -0.471  -0.001  0.00  0.00    -0.281 N 
ATOM      5  N   UNL     1       0.002  -0.004   0.002  0.00  0.00    -0.181 NA
ATOM      6  H   UNL     1      -1.595  -1.402   0.005  0.00  0.00    +0.189 HD
ATOM      7  C   UNL     1      -3.644   0.645  -0.062  0.00  0.00    +0.060 C 
ATOM      8  C   UNL     1      -4.179   1.892   0.646  0.00  0.00    +0.046 C 
ATOM      9  C   UNL     1      -3.346   3.099   0.331  0.00  0.00    +0.011 A 
ATOM     10  C   UNL     1      -1.995   3.038   0.052  0.00  0.00    +0.076 A 
ATOM     11  N   UNL     1      -1.569   4.295  -0.141  0.00  0.00    -0.254 N 
ATOM     12  N   UNL     1      -2.563   5.113  -0.033  0.00  0.00    -0.165 NA
ATOM     13  C   UNL     1      -3.676   4.455   0.251  0.00  0.00    +0.151 A 
ENDROOT
BRANCH  13  14
ATOM     14  C   UNL     1      -5.017   5.044   0.446  0.00  0.00    +0.262 C 
ATOM     15  O   UNL     1      -5.965   4.327   0.703  0.00  0.00    -0.269 OA
ATOM     16  N   UNL     1      -5.190   6.376   0.338  0.00  0.00    -0.324 N 
ATOM     17  H   UNL     1      -4.434   6.948   0.133  0.00  0.00    +0.145 HD
ATOM     18  H   UNL     1      -6.071   6.763   0.466  0.00  0.00    +0.145 HD
ENDBRANCH  13  14
BRANCH  11  19
ATOM     19  C   UNL     1      -0.186   4.683  -0.429  0.00  0.00    +0.257 C 
BRANCH  19  20
ATOM     20  C   UNL     1       0.037   4.689  -1.943  0.00  0.00    +0.409 C 
ATOM     21  F   UNL     1      -0.837   5.603  -2.539  0.00  0.00    -0.169 F 
ATOM     22  F   UNL     1       1.358   5.058  -2.218  0.00  0.00    -0.169 F 
ATOM     23  F   UNL     1      -0.205   3.409  -2.455  0.00  0.00    -0.169 F 
ENDBRANCH  19  20
ENDBRANCH  11  19
TORSDOF 3
