REMARK  Name = CHEMBL434700
REMARK  2 active torsions:
REMARK  status: ('A' for Active; 'I' for Inactive)
REMARK    1  A    between atoms: C_5  and  N_7
REMARK    2  A    between atoms: C_18  and  C_19
REMARK                            x       y       z     vdW  Elec       q    Type
REMARK                         _______ _______ _______ _____ _____    ______ ____
ROOT
ATOM      1  C   UNL     1      -0.030   1.367   0.042  0.00  0.00    +0.002 A 
ATOM      2  C   UNL     1       1.154   2.095   0.038  0.00  0.00    +0.011 A 
ATOM      3  C   UNL     1       2.375   1.439   0.014  0.00  0.00    +0.013 A 
ATOM      4  C   UNL     1       2.407   0.031  -0.006  0.00  0.00    +0.053 A 
ATOM      5  C   UNL     1       1.214  -0.690  -0.001  0.00  0.00    +0.046 A 
ATOM      6  C   UNL     1      -0.006  -0.009   0.023  0.00  0.00    +0.024 A 
ATOM      7  C   UNL     1       3.828  -0.382  -0.029  0.00  0.00    +0.200 C 
ATOM      8  O   UNL     1       4.249  -1.521  -0.051  0.00  0.00    -0.286 OA
ATOM      9  C   UNL     1       4.637   0.853  -0.022  0.00  0.00    +0.078 A 
ATOM     10  C   UNL     1       3.771   1.939   0.004  0.00  0.00    +0.078 A 
ATOM     11  N   UNL     1       4.528   3.057   0.010  0.00  0.00    -0.276 N 
ATOM     12  H   UNL     1       4.192   3.967   0.027  0.00  0.00    +0.189 HD
ATOM     13  N   UNL     1       5.876   2.685  -0.012  0.00  0.00    -0.169 NA
ATOM     14  C   UNL     1       5.957   1.369  -0.031  0.00  0.00    +0.139 A 
ENDROOT
BRANCH   5  15
ATOM     15  N   UNL     1       1.238  -2.081  -0.020  0.00  0.00    -0.269 N 
ATOM     16  C   UNL     1       0.185  -2.766  -0.507  0.00  0.00    +0.301 C 
ATOM     17  O   UNL     1      -0.742  -2.171  -1.023  0.00  0.00    -0.253 OA
ATOM     18  N   UNL     1       0.158  -4.111  -0.423  0.00  0.00    -0.313 N 
ATOM     19  H   UNL     1       2.013  -2.557   0.317  0.00  0.00    +0.156 HD
ATOM     20  H   UNL     1       0.897  -4.585  -0.011  0.00  0.00    +0.146 HD
ATOM     21  H   UNL     1      -0.600  -4.604  -0.773  0.00  0.00    +0.146 HD
ENDBRANCH   5  15
BRANCH  14  22
ATOM     22  C   UNL     1       7.200   0.574  -0.056  0.00  0.00    +0.155 A 
ATOM     23  C   UNL     1       8.354   0.915  -0.692  0.00  0.00    +0.051 A 
ATOM     24  C   UNL     1       9.272  -0.125  -0.453  0.00  0.00    +0.042 A 
ATOM     25  C   UNL     1       8.642  -1.041   0.310  0.00  0.00    +0.196 A 
ATOM     26  O   UNL     1       7.393  -0.613   0.553  0.00  0.00    -0.461 OA
ENDBRANCH  14  22
TORSDOF 2
