REMARK  Name = CHEMBL339948
REMARK  6 active torsions:
REMARK  status: ('A' for Active; 'I' for Inactive)
REMARK    1  A    between atoms: C_1  and  N_2
REMARK    2  A    between atoms: N_19  and  C_20
REMARK    3  A    between atoms: C_20  and  C_21
REMARK    4  A    between atoms: C_21  and  C_22
REMARK    5  A    between atoms: C_21  and  O_24
REMARK    6  A    between atoms: C_22  and  O_23
REMARK                            x       y       z     vdW  Elec       q    Type
REMARK                         _______ _______ _______ _____ _____    ______ ____
ROOT
ATOM      1  C   UNL     1       0.281   1.038   0.528  0.00  0.00    +0.149 C 
ATOM      2  N   UNL     1       0.015  -0.400   0.622  0.00  0.00    -0.341 N 
ATOM      3  C   UNL     1       0.027  -1.277  -0.447  0.00  0.00    +0.050 A 
ATOM      4  C   UNL     1       0.270  -1.096  -1.805  0.00  0.00    +0.026 A 
ATOM      5  C   UNL     1       0.215  -2.172  -2.665  0.00  0.00    +0.002 A 
ATOM      6  C   UNL     1      -0.081  -3.441  -2.190  0.00  0.00    +0.001 A 
ATOM      7  C   UNL     1      -0.324  -3.641  -0.849  0.00  0.00    +0.010 A 
ATOM      8  C   UNL     1      -0.272  -2.562   0.033  0.00  0.00    +0.008 A 
ATOM      9  C   UNL     1      -0.474  -2.430   1.485  0.00  0.00    +0.022 A 
ATOM     10  C   UNL     1      -0.279  -1.073   1.792  0.00  0.00    +0.075 A 
ATOM     11  C   UNL     1      -0.400  -0.632   3.116  0.00  0.00    +0.075 A 
ATOM     12  C   UNL     1      -0.713  -1.549   4.133  0.00  0.00    +0.022 A 
ATOM     13  C   UNL     1      -0.766  -0.778   5.386  0.00  0.00    +0.008 A 
ATOM     14  C   UNL     1      -1.025  -1.122   6.712  0.00  0.00    +0.010 A 
ATOM     15  C   UNL     1      -1.001  -0.149   7.688  0.00  0.00    +0.001 A 
ATOM     16  C   UNL     1      -0.720   1.168   7.354  0.00  0.00    +0.002 A 
ATOM     17  C   UNL     1      -0.463   1.522   6.048  0.00  0.00    +0.026 A 
ATOM     18  C   UNL     1      -0.482   0.554   5.047  0.00  0.00    +0.050 A 
ATOM     19  N   UNL     1      -0.266   0.620   3.684  0.00  0.00    -0.336 N 
ATOM     20  C   UNL     1      -0.904  -2.903   3.828  0.00  0.00    +0.060 A 
ATOM     21  C   UNL     1      -0.791  -3.344   2.498  0.00  0.00    +0.060 A 
ATOM     22  C   UNL     1      -1.050  -4.794   2.528  0.00  0.00    +0.252 C 
ATOM     23  O   UNL     1      -1.031  -5.538   1.568  0.00  0.00    -0.270 OA
ATOM     24  N   UNL     1      -1.311  -5.156   3.797  0.00  0.00    -0.248 N 
ATOM     25  C   UNL     1      -1.233  -4.098   4.625  0.00  0.00    +0.252 C 
ATOM     26  O   UNL     1      -1.417  -4.122   5.825  0.00  0.00    -0.270 OA
ATOM     27  H   UNL     1      -1.514  -6.061   4.080  0.00  0.00    +0.158 HD
ENDROOT
BRANCH  19  28
ATOM     28  C   UNL     1       0.059   1.843   2.946  0.00  0.00    +0.156 C 
BRANCH  28  29
ATOM     29  C   UNL     1      -1.234   2.537   2.514  0.00  0.00    +0.159 C 
BRANCH  29  30
ATOM     30  O   UNL     1      -2.065   1.605   1.818  0.00  0.00    -0.388 OA
ATOM     31  H   UNL     1      -1.871   1.535   0.873  0.00  0.00    +0.210 HD
ENDBRANCH  29  30
BRANCH  29  32
ATOM     32  C   UNL     1      -0.900   3.710   1.591  0.00  0.00    +0.188 C 
BRANCH  32  33
ATOM     33  O   UNL     1      -2.095   4.428   1.280  0.00  0.00    -0.392 OA
ATOM     34  H   UNL     1      -1.958   5.188   0.698  0.00  0.00    +0.210 HD
ENDBRANCH  32  33
ENDBRANCH  29  32
ENDBRANCH  28  29
ENDBRANCH  19  28
TORSDOF 5
