REMARK  Name = CHEMBL507142
REMARK  8 active torsions:
REMARK  status: ('A' for Active; 'I' for Inactive)
REMARK    1  A    between atoms: C_1  and  C_2
REMARK    2  A    between atoms: C_2  and  C_3
REMARK    3  A    between atoms: C_2  and  N_4
REMARK    4  A    between atoms: C_5  and  C_12
REMARK    5  A    between atoms: C_8  and  C_9
REMARK    6  A    between atoms: N_18  and  C_19
REMARK    7  A    between atoms: C_22  and  C_25
REMARK    8  A    between atoms: N_27  and  C_28
REMARK                            x       y       z     vdW  Elec       q    Type
REMARK                         _______ _______ _______ _____ _____    ______ ____
ROOT
ATOM      1  C   UNL     1      -2.010   0.289   2.150  0.00  0.00    +0.094 A 
ATOM      2  C   UNL     1      -0.703   0.694   2.446  0.00  0.00    +0.050 A 
ATOM      3  C   UNL     1      -0.481   1.403   3.611  0.00  0.00    +0.116 A 
ATOM      4  N   UNL     1      -1.504   1.678   4.407  0.00  0.00    -0.223 NA
ATOM      5  C   UNL     1      -2.732   1.283   4.104  0.00  0.00    +0.220 A 
ATOM      6  N   UNL     1      -2.991   0.606   2.996  0.00  0.00    -0.213 NA
ATOM      7  N   UNL     1      -3.772   1.591   4.965  0.00  0.00    -0.284 N 
ATOM      8  H   UNL     1      -4.661   1.239   4.798  0.00  0.00    +0.155 HD
ENDROOT
BRANCH   7   9
ATOM      9  C   UNL     1      -3.543   2.405   6.071  0.00  0.00    +0.034 A 
ATOM     10  C   UNL     1      -4.229   2.173   7.259  0.00  0.00    +0.024 A 
ATOM     11  C   UNL     1      -4.005   2.976   8.354  0.00  0.00    +0.015 A 
ATOM     12  C   UNL     1      -3.085   4.026   8.272  0.00  0.00    +0.037 A 
ATOM     13  C   UNL     1      -2.397   4.256   7.078  0.00  0.00    +0.015 A 
ATOM     14  C   UNL     1      -2.623   3.446   5.988  0.00  0.00    +0.024 A 
BRANCH  12  15
ATOM     15  C   UNL     1      -2.842   4.889   9.444  0.00  0.00    +0.244 C 
ATOM     16  O   UNL     1      -3.442   4.688  10.482  0.00  0.00    -0.270 OA
ATOM     17  N   UNL     1      -1.955   5.901   9.363  0.00  0.00    -0.314 N 
ATOM     18  C   UNL     1      -1.714   6.758  10.526  0.00  0.00    +0.128 C 
ATOM     19  H   UNL     1      -1.477   6.061   8.535  0.00  0.00    +0.149 HD
ENDBRANCH  12  15
ENDBRANCH   7   9
BRANCH   1  21
ATOM     20  N   UNL     1      -3.511  -1.015   0.549  0.00  0.00    -0.324 N 
ATOM     21  C   UNL     1      -2.300  -0.471   0.918  0.00  0.00    +0.088 A 
ATOM     22  C   UNL     1      -1.422  -0.773  -0.079  0.00  0.00    +0.140 A 
ATOM     23  N   UNL     1      -2.082  -1.471  -1.008  0.00  0.00    -0.240 NA
ATOM     24  C   UNL     1      -3.326  -1.624  -0.640  0.00  0.00    +0.113 A 
BRANCH  20  26
ATOM     25  C   UNL     1      -5.865  -0.364   0.423  0.00  0.00    +0.030 C 
ATOM     26  C   UNL     1      -4.762  -0.948   1.308  0.00  0.00    +0.083 C 
ATOM     27  C   UNL     1      -5.161  -2.355   1.758  0.00  0.00    +0.030 C 
ENDBRANCH  20  26
BRANCH  24  28
ATOM     28  C   UNL     1      -4.384  -2.361  -1.419  0.00  0.00    +0.055 C 
ATOM     29  C   UNL     1      -3.921  -3.251  -2.574  0.00  0.00    +0.012 C 
ATOM     30  C   UNL     1      -4.629  -1.926  -2.865  0.00  0.00    +0.012 C 
ENDBRANCH  24  28
ENDBRANCH   1  21
TORSDOF 5
