REMARK  Name = CHEMBL498659
REMARK  4 active torsions:
REMARK  status: ('A' for Active; 'I' for Inactive)
REMARK    1  A    between atoms: C_4  and  C_8
REMARK    2  A    between atoms: N_10  and  C_11
REMARK    3  A    between atoms: C_16  and  C_17
REMARK    4  A    between atoms: N_19  and  C_20
REMARK                            x       y       z     vdW  Elec       q    Type
REMARK                         _______ _______ _______ _____ _____    ______ ____
ROOT
ATOM      1  C   UNL     1       5.496  -1.680  -1.228  0.00  0.00    +0.084 A 
ATOM      2  C   UNL     1       6.253  -2.101  -0.122  0.00  0.00    +0.158 A 
ATOM      3  N   UNL     1       7.325  -2.696  -0.573  0.00  0.00    -0.180 NA
ATOM      4  H   UNL     1       8.048  -3.096  -2.401  0.00  0.00    +0.189 HD
ATOM      5  N   UNL     1       7.346  -2.707  -1.857  0.00  0.00    -0.271 N 
ATOM      6  C   UNL     1       6.221  -2.090  -2.342  0.00  0.00    +0.141 A 
ENDROOT
BRANCH   1   9
ATOM      7  C   UNL     1       3.698  -0.682  -0.037  0.00  0.00    +0.254 C 
ATOM      8  O   UNL     1       4.240  -0.983   1.009  0.00  0.00    -0.270 OA
ATOM      9  N   UNL     1       4.275  -1.003  -1.212  0.00  0.00    -0.278 N 
ATOM     10  H   UNL     1       3.843  -0.763  -2.046  0.00  0.00    +0.155 HD
BRANCH   7  14
ATOM     11  C   UNL     1      -0.017   1.379   0.010  0.00  0.00    +0.006 A 
ATOM     12  C   UNL     1       1.167   2.095   0.002  0.00  0.00    +0.039 A 
ATOM     13  C   UNL     1       2.380   1.432  -0.013  0.00  0.00    +0.138 A 
ATOM     14  C   UNL     1       2.408   0.033  -0.021  0.00  0.00    +0.107 A 
ATOM     15  C   UNL     1       1.206  -0.683  -0.013  0.00  0.00    +0.138 A 
ATOM     16  C   UNL     1       0.002  -0.004   0.002  0.00  0.00    +0.039 A 
ATOM     17  F   UNL     1       1.222  -2.034  -0.021  0.00  0.00    -0.205 F 
ATOM     18  F   UNL     1       3.534   2.133  -0.021  0.00  0.00    -0.205 F 
ENDBRANCH   7  14
ENDBRANCH   1   9
BRANCH   6  19
ATOM     19  C   UNL     1       5.859  -1.897  -3.750  0.00  0.00    +0.264 C 
ATOM     20  O   UNL     1       4.825  -1.325  -4.039  0.00  0.00    -0.268 OA
ATOM     21  N   UNL     1       6.672  -2.354  -4.723  0.00  0.00    -0.309 N 
ATOM     22  H   UNL     1       7.496  -2.810  -4.493  0.00  0.00    +0.149 HD
BRANCH  21  23
ATOM     23  C   UNL     1       6.310  -2.162  -6.130  0.00  0.00    +0.056 C 
ATOM     24  C   UNL     1       6.778  -0.779  -6.594  0.00  0.00    +0.018 C 
ATOM     25  C   UNL     1       6.465  -0.619  -8.084  0.00  0.00    -0.017 C 
ATOM     26  C   UNL     1       7.136  -1.751  -8.865  0.00  0.00    -0.082 C 
ATOM     27  N   UNL     1       6.628  -3.044  -8.393  0.00  0.00    +0.380 N 
ATOM     28  C   UNL     1       6.986  -3.237  -6.983  0.00  0.00    -0.060 C 
ATOM     29  H   UNL     1       5.624  -3.065  -8.490  0.00  0.00    -0.086 HD
ATOM     30  H   UNL     1       7.033  -3.785  -8.946  0.00  0.00    -0.086 HD
ENDBRANCH  21  23
ENDBRANCH   6  19
TORSDOF 4
