REMARK  Name = CHEMBL482211
REMARK  10 active torsions:
REMARK  status: ('A' for Active; 'I' for Inactive)
REMARK    1  A    between atoms: C_1  and  C_2
REMARK    2  A    between atoms: C_2  and  CA_3
REMARK    3  A    between atoms: CA_3  and  C_5
REMARK    4  A    between atoms: CA_3  and  N_7
REMARK    5  A    between atoms: C_5  and  O_6
REMARK    6  A    between atoms: C_14  and  C_17
REMARK    7  A    between atoms: C_17  and  C_18
REMARK    8  A    between atoms: C_17  and  C_19
REMARK    9  A    between atoms: N_20  and  C_21
REMARK   10  A    between atoms: C_21  and  C_22
REMARK                            x       y       z     vdW  Elec       q    Type
REMARK                         _______ _______ _______ _____ _____    ______ ____
ROOT
ATOM      1  N   UNL     1      -0.008  -0.140   2.444  0.00  0.00    -0.309 N 
ATOM      2  C   UNL     1       0.649  -0.007   3.659  0.00  0.00    +0.210 A 
ATOM      3  N   UNL     1       1.967  -0.216   3.710  0.00  0.00    -0.196 NA
ATOM      4  C   UNL     1       2.643  -0.103   4.839  0.00  0.00    +0.167 A 
ATOM      5  C   UNL     1       1.956   0.249   6.028  0.00  0.00    +0.193 A 
ATOM      6  N   UNL     1       2.339   0.435   7.280  0.00  0.00    -0.232 NA
ATOM      7  C   UNL     1       1.277   0.759   8.015  0.00  0.00    +0.136 A 
ATOM      8  C   UNL     1       0.185   0.779   7.209  0.00  0.00    +0.064 A 
ATOM      9  N   UNL     1       0.603   0.460   5.960  0.00  0.00    -0.234 N 
ATOM     10  N   UNL     1      -0.041   0.326   4.726  0.00  0.00    -0.263 N 
ATOM     11  N   UNL     1       4.005  -0.326   4.861  0.00  0.00    -0.322 N 
ATOM     12  H   UNL     1      -0.965   0.013   2.391  0.00  0.00    +0.149 HD
ATOM     13  H   UNL     1       4.497  -0.241   5.693  0.00  0.00    +0.148 HD
ATOM     14  H   UNL     1      -0.997   0.475   4.658  0.00  0.00    +0.190 HD
ENDROOT
BRANCH   8  15
ATOM     15  C   UNL     1      -1.228   1.098   7.625  0.00  0.00    +0.033 C 
ATOM     16  C   UNL     1      -1.476   0.567   9.038  0.00  0.00    +0.014 C 
ATOM     17  C   UNL     1      -1.437   2.613   7.605  0.00  0.00    +0.014 C 
ENDBRANCH   8  15
BRANCH   1  18
ATOM     18  CA  UNL     1       0.742  -0.511   1.242  0.00  0.00    +0.098 C 
BRANCH  18  20
ATOM     19  C   UNL     1      -0.019   1.526   0.010  0.00  0.00    +0.006 C 
ATOM     20  C   UNL     1       0.002  -0.004   0.002  0.00  0.00    +0.021 C 
ENDBRANCH  18  20
BRANCH  18  21
ATOM     21  C   UNL     1       0.872  -2.034   1.171  0.00  0.00    +0.178 C 
BRANCH  21  22
ATOM     22  O   UNL     1      -0.423  -2.615   1.003  0.00  0.00    -0.393 OA
ATOM     23  H   UNL     1      -0.416  -3.580   0.950  0.00  0.00    +0.209 HD
ENDBRANCH  21  22
ENDBRANCH  18  21
ENDBRANCH   1  18
BRANCH  11  24
ATOM     24  C   UNL     1       4.708  -0.690   3.629  0.00  0.00    +0.138 C 
BRANCH  24  25
ATOM     25  C   UNL     1       6.175  -0.875   3.923  0.00  0.00    -0.030 A 
ATOM     26  C   UNL     1       7.039   0.199   3.831  0.00  0.00    +0.005 A 
ATOM     27  C   UNL     1       8.384   0.029   4.101  0.00  0.00    +0.000 A 
ATOM     28  C   UNL     1       8.865  -1.216   4.463  0.00  0.00    +0.000 A 
ATOM     29  C   UNL     1       8.000  -2.290   4.555  0.00  0.00    +0.000 A 
ATOM     30  C   UNL     1       6.654  -2.119   4.289  0.00  0.00    +0.005 A 
ENDBRANCH  24  25
ENDBRANCH  11  24
TORSDOF 7
