REMARK  Name = CHEMBL361862
REMARK  4 active torsions:
REMARK  status: ('A' for Active; 'I' for Inactive)
REMARK    1  A    between atoms: C_3  and  S_23
REMARK    2  A    between atoms: C_6  and  N_7
REMARK    3  A    between atoms: C_10  and  C_12
REMARK    4  A    between atoms: S_23  and  N_26
REMARK                            x       y       z     vdW  Elec       q    Type
REMARK                         _______ _______ _______ _____ _____    ______ ____
ROOT
ATOM      1  N   UNL     1      -1.200  -0.722   0.010  0.00  0.00    -0.231 N 
ATOM      2  C   UNL     1      -1.459  -1.843  -0.688  0.00  0.00    +0.082 A 
ATOM      3  C   UNL     1      -2.738  -2.259  -0.379  0.00  0.00    +0.011 A 
ATOM      4  C   UNL     1      -3.273  -1.322   0.512  0.00  0.00    +0.151 A 
ATOM      5  N   UNL     1      -2.350  -0.404   0.754  0.00  0.00    -0.161 NA
ATOM      6  C   UNL     1      -3.342  -3.523  -0.925  0.00  0.00    +0.046 C 
ATOM      7  C   UNL     1      -2.803  -3.842  -2.321  0.00  0.00    +0.060 C 
ATOM      8  C   UNL     1      -1.320  -3.603  -2.402  0.00  0.00    +0.046 A 
ATOM      9  C   UNL     1      -0.673  -2.642  -1.648  0.00  0.00    +0.041 A 
ATOM     10  C   UNL     1       0.674  -2.656  -1.992  0.00  0.00    +0.144 A 
ATOM     11  N   UNL     1       0.848  -3.595  -2.892  0.00  0.00    -0.181 NA
ATOM     12  N   UNL     1      -0.389  -4.204  -3.151  0.00  0.00    -0.281 N 
ATOM     13  H   UNL     1      -0.543  -4.936  -3.769  0.00  0.00    +0.189 HD
ENDROOT
BRANCH   1  19
ATOM     14  C   UNL     1       0.662   0.235  -1.196  0.00  0.00    +0.030 A 
ATOM     15  C   UNL     1       1.847   0.944  -1.201  0.00  0.00    +0.030 A 
ATOM     16  C   UNL     1       2.377   1.415  -0.014  0.00  0.00    +0.105 A 
ATOM     17  C   UNL     1       1.723   1.179   1.181  0.00  0.00    +0.030 A 
ATOM     18  C   UNL     1       0.537   0.470   1.192  0.00  0.00    +0.030 A 
ATOM     19  C   UNL     1       0.002  -0.004   0.002  0.00  0.00    +0.066 A 
BRANCH  16  20
ATOM     20  S   UNL     1       3.889   2.320  -0.024  0.00  0.00    +0.056 S 
ATOM     21  O   UNL     1       4.454   2.181   1.272  0.00  0.00    -0.153 OA
ATOM     22  O   UNL     1       4.584   1.936  -1.203  0.00  0.00    -0.153 OA
BRANCH  20  23
ATOM     23  N   UNL     1       3.502   3.920  -0.203  0.00  0.00    -0.204 NA
ATOM     24  H   UNL     1       4.073   4.603   0.182  0.00  0.00    +0.144 HD
ATOM     25  H   UNL     1       2.704   4.174  -0.692  0.00  0.00    +0.144 HD
ENDBRANCH  20  23
ENDBRANCH  16  20
ENDBRANCH   1  19
BRANCH   4  26
ATOM     26  C   UNL     1      -4.632  -1.355   1.088  0.00  0.00    +0.262 C 
ATOM     27  O   UNL     1      -5.395  -2.255   0.796  0.00  0.00    -0.269 OA
ATOM     28  N   UNL     1      -5.027  -0.387   1.939  0.00  0.00    -0.324 N 
ATOM     29  H   UNL     1      -4.418   0.332   2.172  0.00  0.00    +0.145 HD
ATOM     30  H   UNL     1      -5.920  -0.408   2.318  0.00  0.00    +0.145 HD
ENDBRANCH   4  26
TORSDOF 4
