REMARK  Name = CHEMBL321939
REMARK  7 active torsions:
REMARK  status: ('A' for Active; 'I' for Inactive)
REMARK    1  A    between atoms: C_3  and  C_22
REMARK    2  A    between atoms: C_5  and  N_7
REMARK    3  A    between atoms: N_10  and  C_11
REMARK    4  A    between atoms: C_13  and  C_18
REMARK    5  A    between atoms: N_28  and  C_29
REMARK    6  A    between atoms: C_32  and  S_35
REMARK    7  A    between atoms: S_35  and  N_38
REMARK                            x       y       z     vdW  Elec       q    Type
REMARK                         _______ _______ _______ _____ _____    ______ ____
ROOT
ATOM      1  C   UNL     1       0.591   1.280  -0.193  0.00  0.00    +0.002 A 
ATOM      2  C   UNL     1       1.662   2.151  -0.175  0.00  0.00    +0.010 A 
ATOM      3  C   UNL     1       2.965   1.656  -0.235  0.00  0.00    +0.002 A 
ATOM      4  C   UNL     1       3.181   0.281  -0.313  0.00  0.00    +0.033 A 
ATOM      5  C   UNL     1       2.099  -0.586  -0.330  0.00  0.00    +0.035 A 
ATOM      6  C   UNL     1       0.805  -0.084  -0.270  0.00  0.00    +0.023 A 
ENDROOT
BRANCH   3   7
ATOM      7  C   UNL     1       4.114   2.587  -0.217  0.00  0.00    +0.068 A 
ATOM      8  C   UNL     1       4.050   3.949  -0.138  0.00  0.00    +0.073 A 
ATOM      9  C   UNL     1       5.361   4.442  -0.149  0.00  0.00    +0.145 A 
ATOM     10  N   UNL     1       6.186   3.424  -0.231  0.00  0.00    -0.158 NA
ATOM     11  N   UNL     1       5.432   2.244  -0.269  0.00  0.00    -0.275 N 
ATOM     12  H   UNL     1       5.786   1.342  -0.325  0.00  0.00    +0.189 HD
ATOM     13  N   UNL     1       5.729   5.791  -0.085  0.00  0.00    -0.298 N 
ATOM     14  H   UNL     1       5.053   6.473   0.051  0.00  0.00    +0.154 HD
BRANCH  13  15
ATOM     15  C   UNL     1       7.072   6.156  -0.218  0.00  0.00    +0.033 A 
ATOM     16  C   UNL     1       7.910   5.431  -1.055  0.00  0.00    +0.025 A 
ATOM     17  C   UNL     1       9.237   5.794  -1.183  0.00  0.00    +0.030 A 
ATOM     18  C   UNL     1       9.730   6.878  -0.480  0.00  0.00    +0.105 A 
ATOM     19  C   UNL     1       8.897   7.601   0.355  0.00  0.00    +0.030 A 
ATOM     20  C   UNL     1       7.569   7.247   0.483  0.00  0.00    +0.025 A 
BRANCH  18  21
ATOM     21  S   UNL     1      11.423   7.337  -0.646  0.00  0.00    +0.056 S 
ATOM     22  O   UNL     1      11.768   8.050   0.534  0.00  0.00    -0.153 OA
ATOM     23  O   UNL     1      12.120   6.172  -1.064  0.00  0.00    -0.153 OA
BRANCH  21  24
ATOM     24  N   UNL     1      11.516   8.419  -1.897  0.00  0.00    -0.204 NA
ATOM     25  H   UNL     1      10.713   8.676  -2.376  0.00  0.00    +0.144 HD
ATOM     26  H   UNL     1      12.373   8.795  -2.150  0.00  0.00    +0.144 HD
ENDBRANCH  21  24
ENDBRANCH  18  21
ENDBRANCH  13  15
ENDBRANCH   3   7
BRANCH   5  27
ATOM     27  N   UNL     1       2.311  -1.967  -0.409  0.00  0.00    -0.269 N 
ATOM     28  C   UNL     1       1.488  -2.813   0.243  0.00  0.00    +0.308 C 
ATOM     29  O   UNL     1       0.519  -2.382   0.837  0.00  0.00    -0.252 OA
ATOM     30  N   UNL     1       1.740  -4.137   0.236  0.00  0.00    -0.267 N 
ATOM     31  H   UNL     1       3.049  -2.316  -0.932  0.00  0.00    +0.156 HD
ATOM     32  H   UNL     1       2.545  -4.476  -0.186  0.00  0.00    +0.156 HD
BRANCH  30  33
ATOM     33  C   UNL     1       0.839  -5.025   0.839  0.00  0.00    +0.071 A 
ATOM     34  C   UNL     1       0.144  -4.644   1.978  0.00  0.00    +0.038 A 
ATOM     35  C   UNL     1      -0.744  -5.521   2.570  0.00  0.00    +0.057 A 
ATOM     36  C   UNL     1      -0.941  -6.778   2.030  0.00  0.00    +0.015 A 
ATOM     37  C   UNL     1      -0.251  -7.162   0.895  0.00  0.00    +0.041 A 
ATOM     38  C   UNL     1       0.635  -6.287   0.293  0.00  0.00    +0.145 A 
ATOM     39  F   UNL     1       1.304  -6.660  -0.819  0.00  0.00    -0.204 F 
BRANCH  35  40
ATOM     40  C   UNL     1      -1.498  -5.107   3.807  0.00  0.00    +0.417 C 
ATOM     41  F   UNL     1      -2.704  -4.502   3.438  0.00  0.00    -0.166 F 
ATOM     42  F   UNL     1      -1.763  -6.235   4.591  0.00  0.00    -0.166 F 
ATOM     43  F   UNL     1      -0.727  -4.199   4.542  0.00  0.00    -0.166 F 
ENDBRANCH  35  40
ENDBRANCH  30  33
ENDBRANCH   5  27
TORSDOF 7
