REMARK  Name = CHEMBL185470
REMARK  2 active torsions:
REMARK  status: ('A' for Active; 'I' for Inactive)
REMARK    1  A    between atoms: C_4  and  N_7
REMARK    2  A    between atoms: C_14  and  C_16
REMARK                            x       y       z     vdW  Elec       q    Type
REMARK                         _______ _______ _______ _____ _____    ______ ____
ROOT
ATOM      1  N   UNL     1       3.622  -0.651  -0.036  0.00  0.00    -0.269 N 
ATOM      2  C   UNL     1       3.645  -1.995   0.058  0.00  0.00    +0.310 C 
ATOM      3  O   UNL     1       2.603  -2.622   0.065  0.00  0.00    -0.252 OA
ATOM      4  N   UNL     1       4.823  -2.644   0.144  0.00  0.00    -0.248 N 
ATOM      5  C   UNL     1       4.846  -4.031   0.241  0.00  0.00    +0.166 A 
ATOM      6  N   UNL     1       3.831  -4.867   0.258  0.00  0.00    -0.233 NA
ATOM      7  C   UNL     1       4.021  -6.169   0.356  0.00  0.00    +0.124 A 
ATOM      8  C   UNL     1       5.304  -6.600   0.438  0.00  0.00    +0.014 A 
ATOM      9  S   UNL     1       6.182  -5.048   0.359  0.00  0.00    -0.057 S 
ATOM     10  H   UNL     1       4.452  -0.156  -0.120  0.00  0.00    +0.156 HD
ATOM     11  H   UNL     1       5.654  -2.144   0.138  0.00  0.00    +0.158 HD
ENDROOT
BRANCH   1  15
ATOM     12  C   UNL     1      -0.015   1.381   0.031  0.00  0.00    +0.000 A 
ATOM     13  C   UNL     1       0.140   0.218   0.765  0.00  0.00    +0.002 A 
ATOM     14  C   UNL     1       1.344  -0.457   0.744  0.00  0.00    +0.023 A 
ATOM     15  C   UNL     1       2.400   0.031  -0.014  0.00  0.00    +0.035 A 
ATOM     16  C   UNL     1       2.241   1.198  -0.750  0.00  0.00    +0.023 A 
ATOM     17  C   UNL     1       1.034   1.870  -0.725  0.00  0.00    +0.002 A 
ENDBRANCH   1  15
BRANCH   8  18
ATOM     18  C   UNL     1       5.840  -8.003   0.558  0.00  0.00    +0.027 C 
ATOM     19  C   UNL     1       7.069  -8.117   1.476  0.00  0.00    +0.009 C 
ATOM     20  C   UNL     1       7.646  -9.107   0.451  0.00  0.00    +0.001 C 
ATOM     21  C   UNL     1       6.767  -8.409  -0.600  0.00  0.00    +0.009 C 
ENDBRANCH   8  18
TORSDOF 2
