REMARK  Name = CHEMBL555229
REMARK  3 active torsions:
REMARK  status: ('A' for Active; 'I' for Inactive)
REMARK    1  A    between atoms: C_6  and  O_7
REMARK    2  A    between atoms: O_7  and  C_8
REMARK    3  A    between atoms: C_8  and  C_9
REMARK                            x       y       z     vdW  Elec       q    Type
REMARK                         _______ _______ _______ _____ _____    ______ ____
ROOT
ATOM      1  C   UNL     1      -1.070  -2.126   0.001  0.00  0.00    +0.307 C 
ENDROOT
BRANCH   1   2
ATOM      2  C   UNL     1      -2.454  -2.722   0.012  0.00  0.00    +0.193 A 
ATOM      3  N   UNL     1      -3.150  -3.026   1.072  0.00  0.00    -0.128 NA
ATOM      4  N   UNL     1      -4.289  -3.515   0.726  0.00  0.00    -0.120 NA
ATOM      5  C   UNL     1      -4.369  -3.544  -0.570  0.00  0.00    +0.219 A 
ATOM      6  N   UNL     1      -3.209  -3.037  -1.098  0.00  0.00    -0.186 N 
ATOM      7  N   UNL     1      -3.127  -2.988  -2.483  0.00  0.00    -0.148 NA
ATOM      8  C   UNL     1      -4.112  -3.405  -3.236  0.00  0.00    +0.169 A 
ATOM      9  S   UNL     1      -5.308  -3.944  -2.023  0.00  0.00    -0.019 S 
ATOM     10  S   UNL     1      -4.226  -3.438  -4.994  0.00  0.00    -0.021 SA
ENDBRANCH   1   2
BRANCH   1  11
ATOM     11  O   UNL     1      -1.165  -0.701   0.010  0.00  0.00    -0.484 OA
BRANCH  11  17
ATOM     12  C   UNL     1      -0.017   1.383   0.010  0.00  0.00    +0.047 A 
ATOM     13  C   UNL     1       1.171   2.089   0.002  0.00  0.00    +0.023 A 
ATOM     14  C   UNL     1       2.378   1.414  -0.013  0.00  0.00    +0.041 A 
ATOM     15  C   UNL     1       2.399   0.030  -0.021  0.00  0.00    +0.023 A 
ATOM     16  C   UNL     1       1.214  -0.679  -0.014  0.00  0.00    +0.047 A 
ATOM     17  C   UNL     1       0.002  -0.004   0.002  0.00  0.00    +0.121 A 
ATOM     18 CL   UNL     1       3.869   2.303  -0.024  0.00  0.00    -0.084 Cl
ENDBRANCH  11  17
ENDBRANCH   1  11
TORSDOF 3
