REMARK  Name = CHEMBL498659
REMARK  4 active torsions:
REMARK  status: ('A' for Active; 'I' for Inactive)
REMARK    1  A    between atoms: C_4  and  C_8
REMARK    2  A    between atoms: N_10  and  C_11
REMARK    3  A    between atoms: C_16  and  C_17
REMARK    4  A    between atoms: N_19  and  C_20
REMARK                            x       y       z     vdW  Elec       q    Type
REMARK                         _______ _______ _______ _____ _____    ______ ____
ROOT
ATOM      1  C   UNL     1       5.502  -1.684  -1.229  0.00  0.00    +0.084 A 
ATOM      2  C   UNL     1       6.230  -2.095  -0.157  0.00  0.00    +0.129 A 
ATOM      3  N   UNL     1       7.340  -2.709  -0.642  0.00  0.00    -0.282 N 
ATOM      4  H   UNL     1       8.040  -3.101  -0.096  0.00  0.00    +0.188 HD
ATOM      5  N   UNL     1       7.330  -2.696  -1.926  0.00  0.00    -0.167 NA
ATOM      6  C   UNL     1       6.242  -2.095  -2.368  0.00  0.00    +0.168 A 
ENDROOT
BRANCH   1   9
ATOM      7  C   UNL     1       3.698  -0.682  -0.038  0.00  0.00    +0.254 C 
ATOM      8  O   UNL     1       4.240  -0.983   1.008  0.00  0.00    -0.270 OA
ATOM      9  N   UNL     1       4.275  -1.003  -1.213  0.00  0.00    -0.278 N 
ATOM     10  H   UNL     1       3.842  -0.763  -2.047  0.00  0.00    +0.155 HD
BRANCH   7  14
ATOM     11  C   UNL     1      -0.017   1.379   0.010  0.00  0.00    +0.006 A 
ATOM     12  C   UNL     1       1.167   2.095   0.002  0.00  0.00    +0.039 A 
ATOM     13  C   UNL     1       2.380   1.432  -0.013  0.00  0.00    +0.138 A 
ATOM     14  C   UNL     1       2.408   0.033  -0.021  0.00  0.00    +0.107 A 
ATOM     15  C   UNL     1       1.206  -0.683  -0.013  0.00  0.00    +0.138 A 
ATOM     16  C   UNL     1       0.002  -0.004   0.002  0.00  0.00    +0.039 A 
ATOM     17  F   UNL     1       1.222  -2.034  -0.021  0.00  0.00    -0.205 F 
ATOM     18  F   UNL     1       3.534   2.133  -0.021  0.00  0.00    -0.205 F 
ENDBRANCH   7  14
ENDBRANCH   1   9
BRANCH   6  19
ATOM     19  C   UNL     1       5.867  -1.887  -3.779  0.00  0.00    +0.266 C 
ATOM     20  O   UNL     1       4.831  -1.312  -4.055  0.00  0.00    -0.268 OA
ATOM     21  N   UNL     1       6.672  -2.334  -4.763  0.00  0.00    -0.309 N 
ATOM     22  H   UNL     1       7.498  -2.793  -4.543  0.00  0.00    +0.149 HD
BRANCH  21  23
ATOM     23  C   UNL     1       6.300  -2.128  -6.165  0.00  0.00    +0.056 C 
ATOM     24  C   UNL     1       6.764  -0.741  -6.619  0.00  0.00    +0.018 C 
ATOM     25  C   UNL     1       6.441  -0.566  -8.105  0.00  0.00    -0.017 C 
ATOM     26  C   UNL     1       7.106  -1.690  -8.903  0.00  0.00    -0.082 C 
ATOM     27  N   UNL     1       6.600  -2.988  -8.440  0.00  0.00    +0.380 N 
ATOM     28  C   UNL     1       6.969  -3.195  -7.034  0.00  0.00    -0.060 C 
ATOM     29  H   UNL     1       5.596  -3.008  -8.529  0.00  0.00    -0.086 HD
ATOM     30  H   UNL     1       7.000  -3.724  -9.003  0.00  0.00    -0.086 HD
ENDBRANCH  21  23
ENDBRANCH   6  19
TORSDOF 4
