REMARK  Name = CHEMBL397531
REMARK  4 active torsions:
REMARK  status: ('A' for Active; 'I' for Inactive)
REMARK    1  A    between atoms: C_1  and  C_2
REMARK    2  A    between atoms: C_2  and  N_3
REMARK    3  A    between atoms: C_9  and  N_12
REMARK    4  A    between atoms: C_17  and  C_19
REMARK                            x       y       z     vdW  Elec       q    Type
REMARK                         _______ _______ _______ _____ _____    ______ ____
ROOT
ATOM      1  N   UNL     1       0.480  -3.738  -6.356  0.00  0.00    -0.310 N 
ATOM      2  C   UNL     1       1.142  -4.540  -7.270  0.00  0.00    +0.216 A 
ATOM      3  N   UNL     1       2.302  -5.083  -6.930  0.00  0.00    -0.221 NA
ATOM      4  C   UNL     1       2.969  -5.857  -7.775  0.00  0.00    +0.136 A 
ATOM      5  C   UNL     1       2.442  -6.101  -9.028  0.00  0.00    +0.087 A 
ATOM      6  C   UNL     1       1.212  -5.514  -9.362  0.00  0.00    +0.112 A 
ATOM      7  N   UNL     1       0.596  -4.750  -8.457  0.00  0.00    -0.211 NA
ATOM      8 CL   UNL     1       3.283  -7.109 -10.165  0.00  0.00    -0.080 Cl
ATOM      9  H   UNL     1      -0.372  -3.337  -6.590  0.00  0.00    +0.149 HD
ENDROOT
BRANCH   1  16
ATOM     10  N   UNL     1      -0.071  -1.689  -0.647  0.00  0.00    -0.300 N 
ATOM     11  C   UNL     1       0.377  -2.901  -1.030  0.00  0.00    +0.302 C 
ATOM     12  O   UNL     1       0.272  -3.852  -0.280  0.00  0.00    -0.253 OA
ATOM     13  N   UNL     1       0.941  -3.059  -2.244  0.00  0.00    -0.286 N 
ATOM     14  C   UNL     1       1.178  -1.900  -3.115  0.00  0.00    +0.111 C 
ATOM     15  C   UNL     1       0.537  -2.169  -4.480  0.00  0.00    +0.041 C 
ATOM     16  C   UNL     1       1.067  -3.493  -5.036  0.00  0.00    +0.076 C 
ATOM     17  C   UNL     1       0.687  -4.634  -4.090  0.00  0.00    +0.041 C 
ATOM     18  C   UNL     1       1.335  -4.392  -2.718  0.00  0.00    +0.111 C 
ATOM     19  H   UNL     1       0.076  -0.916  -1.215  0.00  0.00    +0.150 HD
BRANCH  10  21
ATOM     20  C   UNL     1      -1.177  -0.073   0.818  0.00  0.00    +0.024 C 
ATOM     21  C   UNL     1      -0.780  -1.538   0.625  0.00  0.00    +0.102 C 
ENDBRANCH  10  21
ENDBRANCH   1  16
BRANCH   6  22
ATOM     22  C   UNL     1       0.608  -5.742 -10.685  0.00  0.00    +0.091 A 
ATOM     23  C   UNL     1      -0.715  -6.024 -10.950  0.00  0.00    +0.112 A 
ATOM     24  N   UNL     1      -0.858  -6.160 -12.263  0.00  0.00    -0.345 N 
ATOM     25  C   UNL     1       0.315  -5.978 -12.861  0.00  0.00    +0.116 A 
ATOM     26  N   UNL     1       1.254  -5.709 -11.902  0.00  0.00    -0.299 N 
ATOM     27  C   UNL     1       2.551  -5.477 -12.249  0.00  0.00    +0.093 A 
ATOM     28  C   UNL     1       2.932  -5.503 -13.545  0.00  0.00    +0.018 A 
ATOM     29  C   UNL     1       1.993  -5.773 -14.552  0.00  0.00    +0.005 A 
ATOM     30  C   UNL     1       0.696  -6.015 -14.216  0.00  0.00    +0.045 A 
ATOM     31  H   UNL     1      -1.692  -6.361 -12.716  0.00  0.00    +0.167 HD
ENDBRANCH   6  22
TORSDOF 3
