REMARK  Name = CHEMBL335275
REMARK  7 active torsions:
REMARK  status: ('A' for Active; 'I' for Inactive)
REMARK    1  A    between atoms: C_1  and  C_2
REMARK    2  A    between atoms: C_2  and  C_14
REMARK    3  A    between atoms: N_3  and  C_4
REMARK    4  A    between atoms: C_7  and  S_10
REMARK    5  A    between atoms: S_10  and  N_13
REMARK    6  A    between atoms: C_17  and  C_25
REMARK    7  A    between atoms: C_23  and  O_24
REMARK                            x       y       z     vdW  Elec       q    Type
REMARK                         _______ _______ _______ _____ _____    ______ ____
ROOT
ATOM      1  C   UNL     1       0.000  -0.706  -1.228  0.00  0.00    +0.064 A 
ATOM      2  C   UNL     1       1.179  -1.133  -2.006  0.00  0.00    +0.013 A 
ATOM      3  C   UNL     1       2.551  -1.006  -1.817  0.00  0.00    +0.022 A 
ATOM      4  C   UNL     1       3.427  -1.533  -2.762  0.00  0.00    +0.020 A 
ATOM      5  C   UNL     1       2.924  -2.186  -3.893  0.00  0.00    +0.013 A 
ATOM      6  C   UNL     1       1.567  -2.311  -4.081  0.00  0.00    +0.027 A 
ATOM      7  C   UNL     1       0.680  -1.789  -3.143  0.00  0.00    +0.050 A 
ATOM      8  N   UNL     1      -0.702  -1.767  -3.072  0.00  0.00    -0.325 N 
ATOM      9  H   UNL     1      -1.296  -2.153  -3.734  0.00  0.00    +0.169 HD
ATOM     10  C   UNL     1      -1.110  -1.133  -1.940  0.00  0.00    +0.200 A 
ENDROOT
BRANCH   4  11
ATOM     11  C   UNL     1       4.887  -1.404  -2.571  0.00  0.00    +0.155 A 
ATOM     12  C   UNL     1       5.856  -1.860  -3.405  0.00  0.00    +0.160 A 
ATOM     13  N   UNL     1       7.040  -1.536  -2.864  0.00  0.00    -0.224 NA
ATOM     14  C   UNL     1       6.834  -0.906  -1.742  0.00  0.00    +0.308 A 
ATOM     15  O   UNL     1       5.513  -0.803  -1.535  0.00  0.00    -0.442 OA
ENDBRANCH   4  11
BRANCH   1  17
ATOM     16  C   UNL     1      -0.018   1.503   0.010  0.00  0.00    +0.066 C 
ATOM     17  C   UNL     1       0.002  -0.004   0.002  0.00  0.00    +0.052 C 
ATOM     18  N   UNL     1       0.022  -0.665   1.132  0.00  0.00    -0.252 NA
BRANCH  18  19
ATOM     19  C   UNL     1       0.024   0.013   2.321  0.00  0.00    +0.064 A 
ATOM     20  C   UNL     1       0.861   1.117   2.498  0.00  0.00    +0.029 A 
ATOM     21  C   UNL     1       0.857   1.796   3.698  0.00  0.00    +0.030 A 
ATOM     22  C   UNL     1       0.028   1.385   4.727  0.00  0.00    +0.105 A 
ATOM     23  C   UNL     1      -0.804   0.291   4.559  0.00  0.00    +0.030 A 
ATOM     24  C   UNL     1      -0.815  -0.393   3.362  0.00  0.00    +0.029 A 
BRANCH  22  25
ATOM     25  S   UNL     1       0.031   2.257   6.258  0.00  0.00    +0.056 S 
ATOM     26  O   UNL     1      -0.433   1.346   7.245  0.00  0.00    -0.153 OA
ATOM     27  O   UNL     1       1.291   2.907   6.352  0.00  0.00    -0.153 OA
BRANCH  25  28
ATOM     28  N   UNL     1      -1.111   3.452   6.143  0.00  0.00    -0.204 NA
ATOM     29  H   UNL     1      -1.625   3.554   5.327  0.00  0.00    +0.144 HD
ATOM     30  H   UNL     1      -1.264   4.049   6.891  0.00  0.00    +0.144 HD
ENDBRANCH  25  28
ENDBRANCH  22  25
ENDBRANCH  18  19
ENDBRANCH   1  17
BRANCH  10  31
ATOM     31  O   UNL     1      -2.397  -0.947  -1.569  0.00  0.00    -0.493 OA
ATOM     32  H   UNL     1      -2.786  -0.125  -1.898  0.00  0.00    +0.294 HD
ENDBRANCH  10  31
TORSDOF 6
