REMARK  Name = CHEMBL439514
REMARK  4 active torsions:
REMARK  status: ('A' for Active; 'I' for Inactive)
REMARK    1  A    between atoms: C_1  and  C_2
REMARK    2  A    between atoms: C_2  and  C_3
REMARK    3  A    between atoms: C_2  and  N_4
REMARK    4  A    between atoms: C_16  and  C_18
REMARK                            x       y       z     vdW  Elec       q    Type
REMARK                         _______ _______ _______ _____ _____    ______ ____
ROOT
ATOM      1  N   UNL     1      -1.372  -0.511   0.012  0.00  0.00    -0.297 N 
ATOM      2  C   UNL     1      -1.643  -1.734  -0.485  0.00  0.00    +0.303 C 
ATOM      3  O   UNL     1      -0.747  -2.417  -0.942  0.00  0.00    -0.253 OA
ATOM      4  N   UNL     1      -2.908  -2.201  -0.475  0.00  0.00    -0.275 N 
ATOM      5  C   UNL     1      -3.369  -3.503  -0.969  0.00  0.00    +0.150 C 
ATOM      6  C   UNL     1      -4.858  -3.571  -0.746  0.00  0.00    +0.034 A 
ATOM      7  C   UNL     1      -5.277  -2.424  -0.172  0.00  0.00    +0.060 A 
ATOM      8  N   UNL     1      -6.613  -2.517   0.014  0.00  0.00    -0.278 N 
ATOM      9  N   UNL     1      -7.032  -3.765  -0.463  0.00  0.00    -0.158 NA
ATOM     10  H   UNL     1      -7.182  -1.837   0.408  0.00  0.00    +0.189 HD
ATOM     11  C   UNL     1      -5.981  -4.402  -0.920  0.00  0.00    +0.152 A 
ATOM     12  N   UNL     1      -5.976  -5.684  -1.484  0.00  0.00    -0.265 N 
ATOM     13  C   UNL     1      -7.127  -6.377  -1.593  0.00  0.00    +0.249 C 
ATOM     14  O   UNL     1      -8.170  -5.888  -1.202  0.00  0.00    -0.270 OA
ATOM     15  C   UNL     1      -4.097  -1.510   0.036  0.00  0.00    +0.164 C 
ATOM     16  H   UNL     1      -2.087   0.033   0.377  0.00  0.00    +0.150 HD
ATOM     17  H   UNL     1      -5.144  -6.074  -1.796  0.00  0.00    +0.157 HD
ENDROOT
BRANCH  13  18
ATOM     18  C   UNL     1      -7.122  -7.728  -2.187  0.00  0.00    +0.041 A 
ATOM     19  C   UNL     1      -5.924  -8.293  -2.631  0.00  0.00    +0.017 A 
ATOM     20  C   UNL     1      -5.921  -9.554  -3.185  0.00  0.00    +0.050 A 
ATOM     21  C   UNL     1      -7.106 -10.268  -3.304  0.00  0.00    +0.166 A 
ATOM     22  C   UNL     1      -8.306  -9.709  -2.861  0.00  0.00    +0.167 A 
ATOM     23  C   UNL     1      -8.314  -8.447  -2.300  0.00  0.00    +0.062 A 
ATOM     24  O   UNL     1      -9.313 -10.603  -3.089  0.00  0.00    -0.453 OA
ATOM     25  C   UNL     1      -8.784 -11.542  -4.044  0.00  0.00    +0.466 C 
ATOM     26  O   UNL     1      -7.364 -11.509  -3.806  0.00  0.00    -0.453 OA
ENDBRANCH  13  18
BRANCH   1  28
ATOM     27  C   UNL     1      -0.019   1.526   0.010  0.00  0.00    +0.027 C 
ATOM     28  C   UNL     1       0.002  -0.004   0.002  0.00  0.00    +0.068 C 
ATOM     29  C   UNL     1       0.742  -0.511   1.242  0.00  0.00    +0.027 C 
ENDBRANCH   1  28
TORSDOF 2
