REMARK  Name = CHEMBL58466
REMARK  2 active torsions:
REMARK  status: ('A' for Active; 'I' for Inactive)
REMARK    1  A    between atoms: C_3  and  C_23
REMARK    2  A    between atoms: C_11  and  C_12
REMARK                            x       y       z     vdW  Elec       q    Type
REMARK                         _______ _______ _______ _____ _____    ______ ____
ROOT
ATOM      1  C   UNL     1      -0.123   1.783  -0.162  0.00  0.00    +0.002 A 
ATOM      2  C   UNL     1       1.118   2.398  -0.177  0.00  0.00    +0.004 A 
ATOM      3  C   UNL     1       2.268   1.636  -0.161  0.00  0.00    -0.035 A 
ATOM      4  C   UNL     1       2.176   0.248  -0.129  0.00  0.00    +0.012 A 
ATOM      5  C   UNL     1       0.922  -0.378  -0.113  0.00  0.00    +0.042 A 
ATOM      6  C   UNL     1      -0.225   0.407  -0.130  0.00  0.00    +0.024 A 
ATOM      7  N   UNL     1       1.101  -1.756  -0.082  0.00  0.00    -0.281 N 
ATOM      8  C   UNL     1       2.405  -2.081  -0.076  0.00  0.00    +0.249 C 
ATOM      9  O   UNL     1       2.861  -3.210  -0.051  0.00  0.00    -0.270 OA
ATOM     10  C   UNL     1       3.184  -0.836  -0.106  0.00  0.00    +0.048 C 
ATOM     11  C   UNL     1       4.558  -0.705  -0.111  0.00  0.00    +0.039 C 
ATOM     12  H   UNL     1       0.376  -2.401  -0.066  0.00  0.00    +0.155 HD
ENDROOT
BRANCH  11  13
ATOM     13  C   UNL     1       5.375  -1.846  -0.260  0.00  0.00    +0.044 A 
ATOM     14  C   UNL     1       6.593  -2.045   0.323  0.00  0.00    -0.009 A 
ATOM     15  C   UNL     1       7.053  -3.323  -0.105  0.00  0.00    +0.058 A 
ATOM     16  C   UNL     1       6.098  -3.850  -0.926  0.00  0.00    +0.096 A 
ATOM     17  N   UNL     1       5.082  -2.966  -1.020  0.00  0.00    -0.360 N 
ATOM     18  H   UNL     1       4.273  -3.095  -1.541  0.00  0.00    +0.165 HD
ATOM     19  C   UNL     1       8.360  -3.830   0.354  0.00  0.00    +0.246 C 
ATOM     20  O   UNL     1       8.883  -4.803  -0.155  0.00  0.00    -0.270 OA
ATOM     21  N   UNL     1       8.946  -3.156   1.371  0.00  0.00    -0.311 N 
ATOM     22  C   UNL     1       8.274  -2.108   2.125  0.00  0.00    +0.109 C 
ATOM     23  C   UNL     1       7.415  -1.193   1.251  0.00  0.00    +0.056 C 
ATOM     24  H   UNL     1       9.859  -3.383   1.609  0.00  0.00    +0.149 HD
ENDBRANCH  11  13
BRANCH   3  25
ATOM     25  C   UNL     1       3.619   2.304  -0.179  0.00  0.00    +0.016 C 
ATOM     26  C   UNL     1       3.696   3.334   0.951  0.00  0.00    -0.011 C 
ATOM     27  C   UNL     1       5.039   4.064   0.878  0.00  0.00    -0.082 C 
ATOM     28  N   UNL     1       5.159   4.746  -0.416  0.00  0.00    +0.379 N 
ATOM     29  C   UNL     1       5.159   3.758  -1.502  0.00  0.00    -0.082 C 
ATOM     30  C   UNL     1       3.820   3.016  -1.520  0.00  0.00    -0.011 C 
ATOM     31  H   UNL     1       4.381   5.377  -0.536  0.00  0.00    -0.086 HD
ATOM     32  H   UNL     1       6.021   5.270  -0.440  0.00  0.00    -0.086 HD
ENDBRANCH   3  25
TORSDOF 2
