REMARK  Name = CHEMBL279590
REMARK  4 active torsions:
REMARK  status: ('A' for Active; 'I' for Inactive)
REMARK    1  A    between atoms: C_4  and  C_7
REMARK    2  A    between atoms: C_7  and  C_9
REMARK    3  A    between atoms: C_17  and  O_18
REMARK    4  A    between atoms: O_18  and  C_19
REMARK                            x       y       z     vdW  Elec       q    Type
REMARK                         _______ _______ _______ _____ _____    ______ ____
ROOT
ATOM      1  C   UNL     1       3.611  -2.153  -0.072  0.00  0.00    +0.083 A 
ATOM      2  C   UNL     1       2.365  -2.793  -0.133  0.00  0.00    +0.128 A 
ATOM      3  N   UNL     1       2.269  -4.100  -0.164  0.00  0.00    -0.235 NA
ATOM      4  C   UNL     1       3.343  -4.888  -0.139  0.00  0.00    +0.159 A 
ATOM      5  N   UNL     1       3.506  -6.245  -0.161  0.00  0.00    -0.260 N 
ATOM      6  N   UNL     1       4.877  -6.523  -0.114  0.00  0.00    -0.180 NA
ATOM      7  C   UNL     1       5.550  -5.410  -0.065  0.00  0.00    +0.148 A 
ATOM      8  C   UNL     1       4.634  -4.332  -0.078  0.00  0.00    +0.081 A 
ATOM      9  C   UNL     1       4.779  -2.934  -0.049  0.00  0.00    +0.145 A 
ATOM     10  H   UNL     1       2.794  -6.902  -0.201  0.00  0.00    +0.191 HD
ENDROOT
BRANCH   1  11
ATOM     11  C   UNL     1       3.696  -0.684  -0.038  0.00  0.00    +0.198 C 
ATOM     12  O   UNL     1       3.361  -0.079   0.962  0.00  0.00    -0.286 OA
BRANCH  11  16
ATOM     13  C   UNL     1       5.109   1.441  -3.434  0.00  0.00    +0.000 A 
ATOM     14  C   UNL     1       4.837   2.121  -2.260  0.00  0.00    +0.001 A 
ATOM     15  C   UNL     1       4.377   1.437  -1.153  0.00  0.00    +0.012 A 
ATOM     16  C   UNL     1       4.187   0.055  -1.220  0.00  0.00    +0.022 A 
ATOM     17  C   UNL     1       4.464  -0.625  -2.408  0.00  0.00    +0.012 A 
ATOM     18  C   UNL     1       4.923   0.071  -3.506  0.00  0.00    +0.001 A 
ENDBRANCH  11  16
ENDBRANCH   1  11
BRANCH   9  19
ATOM     19  O   UNL     1       6.003  -2.360   0.004  0.00  0.00    -0.487 OA
BRANCH  19  20
ATOM     20  C   UNL     1       6.546  -2.111   1.302  0.00  0.00    +0.174 C 
ATOM     21  C   UNL     1       6.127  -0.717   1.772  0.00  0.00    +0.044 C 
ATOM     22  C   UNL     1       6.710  -0.450   3.161  0.00  0.00    +0.004 C 
ATOM     23  C   UNL     1       8.236  -0.530   3.098  0.00  0.00    +0.000 C 
ATOM     24  C   UNL     1       8.656  -1.924   2.628  0.00  0.00    +0.004 C 
ATOM     25  C   UNL     1       8.073  -2.190   1.239  0.00  0.00    +0.044 C 
ENDBRANCH  19  20
ENDBRANCH   9  19
TORSDOF 4
