REMARK  Name = CHEMBL52387
REMARK  10 active torsions:
REMARK  status: ('A' for Active; 'I' for Inactive)
REMARK    1  A    between atoms: C_1  and  C_2
REMARK    2  A    between atoms: C_2  and  CA_3
REMARK    3  A    between atoms: CA_3  and  C_4
REMARK    4  A    between atoms: CA_3  and  N_6
REMARK    5  A    between atoms: C_4  and  O_5
REMARK    6  A    between atoms: N_13  and  C_16
REMARK    7  A    between atoms: C_16  and  C_17
REMARK    8  A    between atoms: C_16  and  C_18
REMARK    9  A    between atoms: N_19  and  C_20
REMARK   10  A    between atoms: C_20  and  C_21
REMARK                            x       y       z     vdW  Elec       q    Type
REMARK                         _______ _______ _______ _____ _____    ______ ____
ROOT
ATOM      1  N   UNL     1      -2.105  -0.148  -1.230  0.00  0.00    -0.308 N 
ATOM      2  C   UNL     1      -3.486  -0.036  -1.266  0.00  0.00    +0.219 A 
ATOM      3  N   UNL     1      -4.177  -0.278  -0.159  0.00  0.00    -0.197 NA
ATOM      4  C   UNL     1      -5.501  -0.184  -0.142  0.00  0.00    +0.152 A 
ATOM      5  C   UNL     1      -6.165   0.179  -1.327  0.00  0.00    +0.148 A 
ATOM      6  C   UNL     1      -5.392   0.425  -2.474  0.00  0.00    +0.167 A 
ATOM      7  N   UNL     1      -4.069   0.313  -2.400  0.00  0.00    -0.195 NA
ATOM      8  N   UNL     1      -6.281   0.754  -3.466  0.00  0.00    -0.312 N 
ATOM      9  C   UNL     1      -7.533   0.704  -2.926  0.00  0.00    +0.201 A 
ATOM     10  N   UNL     1      -7.462   0.366  -1.672  0.00  0.00    -0.231 NA
ATOM     11  N   UNL     1      -6.213  -0.439   1.016  0.00  0.00    -0.323 N 
ATOM     12  H   UNL     1      -1.584   0.029  -2.029  0.00  0.00    +0.149 HD
ATOM     13  H   UNL     1      -7.181  -0.367   1.017  0.00  0.00    +0.148 HD
ENDROOT
BRANCH   8  14
ATOM     14  C   UNL     1      -5.947   1.096  -4.851  0.00  0.00    +0.084 C 
ATOM     15  C   UNL     1      -6.620   0.102  -5.799  0.00  0.00    +0.030 C 
ATOM     16  C   UNL     1      -6.442   2.511  -5.160  0.00  0.00    +0.030 C 
ENDBRANCH   8  14
BRANCH   1  17
ATOM     17  CA  UNL     1      -1.433  -0.534   0.013  0.00  0.00    +0.098 C 
BRANCH  17  19
ATOM     18  C   UNL     1      -0.019   1.526   0.010  0.00  0.00    +0.006 C 
ATOM     19  C   UNL     1       0.002  -0.004   0.002  0.00  0.00    +0.021 C 
ENDBRANCH  17  19
BRANCH  17  20
ATOM     20  C   UNL     1      -1.413  -2.059   0.130  0.00  0.00    +0.178 C 
BRANCH  20  21
ATOM     21  O   UNL     1      -0.612  -2.607  -0.918  0.00  0.00    -0.393 OA
ATOM     22  H   UNL     1      -0.554  -3.572  -0.906  0.00  0.00    +0.209 HD
ENDBRANCH  20  21
ENDBRANCH  17  20
ENDBRANCH   1  17
BRANCH  11  23
ATOM     23  C   UNL     1      -5.506  -0.817   2.243  0.00  0.00    +0.138 C 
BRANCH  23  24
ATOM     24  C   UNL     1      -6.504  -1.036   3.350  0.00  0.00    -0.030 A 
ATOM     25  C   UNL     1      -6.880   0.018   4.161  0.00  0.00    +0.005 A 
ATOM     26  C   UNL     1      -7.795  -0.183   5.177  0.00  0.00    +0.000 A 
ATOM     27  C   UNL     1      -8.335  -1.439   5.383  0.00  0.00    +0.000 A 
ATOM     28  C   UNL     1      -7.959  -2.494   4.571  0.00  0.00    +0.000 A 
ATOM     29  C   UNL     1      -7.047  -2.291   3.552  0.00  0.00    +0.005 A 
ENDBRANCH  23  24
ENDBRANCH  11  23
TORSDOF 7
