REMARK  Name = CHEMBL363607
REMARK  6 active torsions:
REMARK  status: ('A' for Active; 'I' for Inactive)
REMARK    1  A    between atoms: C_1  and  C_2
REMARK    2  A    between atoms: C_6  and  C_9
REMARK    3  A    between atoms: C_12  and  C_27
REMARK    4  A    between atoms: N_16  and  C_17
REMARK    5  A    between atoms: C_20  and  S_23
REMARK    6  A    between atoms: S_23  and  N_26
REMARK                            x       y       z     vdW  Elec       q    Type
REMARK                         _______ _______ _______ _____ _____    ______ ____
ROOT
ATOM      1  C   UNL     1       0.059  -2.851   2.457  0.00  0.00    +0.286 C 
ATOM      2  O   UNL     1       0.162  -2.258   3.512  0.00  0.00    -0.265 OA
ATOM      3  N   UNL     1      -0.021  -4.196   2.444  0.00  0.00    -0.179 N 
ATOM      4  C   UNL     1      -0.101  -5.013   3.518  0.00  0.00    +0.135 A 
ATOM      5  N   UNL     1      -0.162  -6.245   3.088  0.00  0.00    -0.198 NA
ATOM      6  C   UNL     1      -0.125  -6.261   1.750  0.00  0.00    +0.239 A 
ATOM      7  N   UNL     1      -0.045  -5.027   1.312  0.00  0.00    -0.126 NA
ATOM      8  N   UNL     1      -0.170  -7.403   0.952  0.00  0.00    -0.282 N 
ATOM      9  C   UNL     1      -0.115  -4.577   4.961  0.00  0.00    +0.088 C 
ATOM     10  H   UNL     1      -0.056  -7.328  -0.008  0.00  0.00    +0.155 HD
ENDROOT
BRANCH   1  16
ATOM     11  C   UNL     1      -2.549  -0.688  -1.209  0.00  0.00    +0.047 C 
ATOM     12  C   UNL     1      -1.230  -1.054  -0.580  0.00  0.00    -0.014 A 
ATOM     13  C   UNL     1      -0.047  -0.684  -1.194  0.00  0.00    +0.009 A 
ATOM     14  C   UNL     1       1.170  -1.015  -0.627  0.00  0.00    +0.039 A 
ATOM     15  C   UNL     1       1.214  -1.721   0.561  0.00  0.00    +0.139 A 
ATOM     16  C   UNL     1       0.022  -2.099   1.190  0.00  0.00    +0.112 A 
ATOM     17  C   UNL     1      -1.205  -1.754   0.611  0.00  0.00    +0.141 A 
ATOM     18  F   UNL     1      -2.362  -2.110   1.212  0.00  0.00    -0.204 F 
ATOM     19  F   UNL     1       2.404  -2.044   1.113  0.00  0.00    -0.205 F 
ENDBRANCH   1  16
BRANCH   8  20
ATOM     20  C   UNL     1      -0.380  -8.655   1.535  0.00  0.00    +0.034 A 
ATOM     21  C   UNL     1      -1.052  -8.755   2.747  0.00  0.00    +0.025 A 
ATOM     22  C   UNL     1      -1.258  -9.995   3.321  0.00  0.00    +0.030 A 
ATOM     23  C   UNL     1      -0.795 -11.135   2.690  0.00  0.00    +0.105 A 
ATOM     24  C   UNL     1      -0.125 -11.040   1.484  0.00  0.00    +0.030 A 
ATOM     25  C   UNL     1       0.078  -9.804   0.902  0.00  0.00    +0.025 A 
BRANCH  23  26
ATOM     26  S   UNL     1      -1.060 -12.714   3.426  0.00  0.00    +0.056 S 
ATOM     27  O   UNL     1      -0.054 -13.576   2.910  0.00  0.00    -0.153 OA
ATOM     28  O   UNL     1      -1.230 -12.490   4.819  0.00  0.00    -0.153 OA
BRANCH  26  29
ATOM     29  N   UNL     1      -2.507 -13.283   2.857  0.00  0.00    -0.204 NA
ATOM     30  H   UNL     1      -3.027 -12.751   2.234  0.00  0.00    +0.144 HD
ATOM     31  H   UNL     1      -2.836 -14.149   3.147  0.00  0.00    +0.144 HD
ENDBRANCH  26  29
ENDBRANCH  23  26
ENDBRANCH   8  20
TORSDOF 4
