REMARK  Name = CHEMBL178452
REMARK  4 active torsions:
REMARK  status: ('A' for Active; 'I' for Inactive)
REMARK    1  A    between atoms: C_1  and  C_2
REMARK    2  A    between atoms: C_2  and  C_3
REMARK    3  A    between atoms: C_2  and  C_4
REMARK    4  A    between atoms: C_4  and  C_5
REMARK                            x       y       z     vdW  Elec       q    Type
REMARK                         _______ _______ _______ _____ _____    ______ ____
ROOT
ATOM      1  C   UNL     1      -1.411  -2.069   0.003  0.00  0.00    +0.045 C 
ATOM      2  C   UNL     1      -2.819  -2.593  -0.283  0.00  0.00    +0.048 C 
ATOM      3  C   UNL     1      -3.704  -2.512   0.931  0.00  0.00    -0.002 A 
ATOM      4  C   UNL     1      -5.071  -2.299   1.016  0.00  0.00    +0.138 A 
ATOM      5  N   UNL     1      -5.422  -2.328   2.281  0.00  0.00    -0.181 NA
ATOM      6  H   UNL     1      -4.245  -2.645   4.026  0.00  0.00    +0.189 HD
ATOM      7  N   UNL     1      -4.276  -2.563   3.060  0.00  0.00    -0.277 N 
ATOM      8  C   UNL     1      -3.232  -2.653   2.223  0.00  0.00    +0.072 A 
ATOM      9  C   UNL     1      -1.781  -2.828   2.430  0.00  0.00    +0.041 A 
ATOM     10  C   UNL     1      -0.905  -2.560   1.333  0.00  0.00    +0.075 A 
ATOM     11  N   UNL     1       0.301  -2.811   1.730  0.00  0.00    -0.178 NA
ATOM     12  N   UNL     1       0.259  -3.207   3.077  0.00  0.00    -0.284 N 
ATOM     13  H   UNL     1       1.024  -3.450   3.622  0.00  0.00    +0.188 HD
ATOM     14  C   UNL     1      -1.032  -3.192   3.485  0.00  0.00    +0.115 A 
ENDROOT
BRANCH   1  15
ATOM     15  C   UNL     1      -1.438  -0.539   0.011  0.00  0.00    +0.013 C 
BRANCH  15  17
ATOM     16  C   UNL     1       0.764  -0.371  -1.157  0.00  0.00    +0.007 C 
ATOM     17  C   UNL     1      -0.008  -0.005   0.112  0.00  0.00    -0.017 C 
ATOM     18  C   UNL     1      -0.042   1.517   0.267  0.00  0.00    +0.007 C 
ENDBRANCH  15  17
ENDBRANCH   1  15
TORSDOF 2
