REMARK  Name = CHEMBL203707
REMARK  4 active torsions:
REMARK  status: ('A' for Active; 'I' for Inactive)
REMARK    1  A    between atoms: C_4  and  C_7
REMARK    2  A    between atoms: C_7  and  C_8
REMARK    3  A    between atoms: N_10  and  C_11
REMARK    4  A    between atoms: N_22  and  C_23
REMARK                            x       y       z     vdW  Elec       q    Type
REMARK                         _______ _______ _______ _____ _____    ______ ____
ROOT
ATOM      1  C   UNL     1       5.753  -1.823   2.918  0.00  0.00    +0.125 A 
ATOM      2  C   UNL     1       6.895  -2.461   3.296  0.00  0.00    +0.034 A 
ATOM      3  C   UNL     1       6.937  -2.477   4.691  0.00  0.00    +0.087 A 
ATOM      4  N   UNL     1       5.864  -1.874   5.141  0.00  0.00    -0.175 NA
ATOM      5  N   UNL     1       5.104  -1.447   4.044  0.00  0.00    -0.263 N 
ATOM      6  H   UNL     1       4.261  -0.969   4.085  0.00  0.00    +0.190 HD
ATOM      7  C   UNL     1       8.197  -3.182   5.127  0.00  0.00    +0.167 C 
ATOM      8  N   UNL     1       8.920  -3.593   3.920  0.00  0.00    -0.275 N 
ATOM      9  C   UNL     1       8.126  -3.154   2.768  0.00  0.00    +0.150 C 
ATOM     10  C   UNL     1      10.095  -4.252   3.876  0.00  0.00    +0.307 C 
ATOM     11  O   UNL     1      10.593  -4.536   2.804  0.00  0.00    -0.252 OA
ATOM     12  N   UNL     1      10.717  -4.596   5.021  0.00  0.00    -0.269 N 
ATOM     13  H   UNL     1      10.355  -4.311   5.875  0.00  0.00    +0.156 HD
ENDROOT
BRANCH  12  14
ATOM     14  C   UNL     1      11.886  -5.363   4.979  0.00  0.00    +0.035 A 
ATOM     15  C   UNL     1      12.137  -6.304   5.969  0.00  0.00    +0.023 A 
ATOM     16  C   UNL     1      13.292  -7.061   5.924  0.00  0.00    +0.002 A 
ATOM     17  C   UNL     1      14.198  -6.882   4.894  0.00  0.00    +0.000 A 
ATOM     18  C   UNL     1      13.951  -5.945   3.908  0.00  0.00    +0.002 A 
ATOM     19  C   UNL     1      12.796  -5.189   3.944  0.00  0.00    +0.023 A 
ENDBRANCH  12  14
BRANCH   1  22
ATOM     20  C   UNL     1       4.175  -0.939   1.378  0.00  0.00    +0.223 C 
ATOM     21  O   UNL     1       3.502  -0.551   2.309  0.00  0.00    -0.275 OA
ATOM     22  N   UNL     1       5.331  -1.593   1.609  0.00  0.00    -0.270 N 
ATOM     23  H   UNL     1       5.870  -1.903   0.864  0.00  0.00    +0.156 HD
BRANCH  20  24
ATOM     24  C   UNL     1       3.720  -0.690  -0.037  0.00  0.00    +0.131 C 
BRANCH  24  28
ATOM     25  C   UNL     1       0.004   1.416   0.011  0.00  0.00    +0.000 A 
ATOM     26  C   UNL     1       1.195   2.116  -0.003  0.00  0.00    +0.000 A 
ATOM     27  C   UNL     1       2.398   1.435  -0.018  0.00  0.00    +0.004 A 
ATOM     28  C   UNL     1       2.409   0.053  -0.019  0.00  0.00    -0.039 A 
ATOM     29  C   UNL     1       1.217  -0.648  -0.005  0.00  0.00    +0.004 A 
ATOM     30  C   UNL     1       0.015   0.033   0.009  0.00  0.00    +0.000 A 
ENDBRANCH  24  28
ENDBRANCH  20  24
ENDBRANCH   1  22
TORSDOF 4
