REMARK  Name = CHEMBL319103
REMARK  8 active torsions:
REMARK  status: ('A' for Active; 'I' for Inactive)
REMARK    1  A    between atoms: C_4  and  S_7
REMARK    2  A    between atoms: S_7  and  N_10
REMARK    3  A    between atoms: N_10  and  C_11
REMARK    4  A    between atoms: C_15  and  C_17
REMARK    5  A    between atoms: C_19  and  N_23
REMARK    6  A    between atoms: N_23  and  C_24
REMARK    7  A    between atoms: C_27  and  S_30
REMARK    8  A    between atoms: S_30  and  N_33
REMARK                            x       y       z     vdW  Elec       q    Type
REMARK                         _______ _______ _______ _____ _____    ______ ____
ROOT
ATOM      1  C   UNL     1       3.797  -4.566   5.015  0.00  0.00    +0.094 A 
ATOM      2  C   UNL     1       3.105  -5.495   5.815  0.00  0.00    +0.073 A 
ATOM      3  C   UNL     1       4.029  -6.259   6.457  0.00  0.00    +0.119 A 
ATOM      4  N   UNL     1       5.260  -5.827   6.075  0.00  0.00    -0.263 N 
ATOM      5  N   UNL     1       5.087  -4.772   5.170  0.00  0.00    -0.172 NA
ATOM      6  H   UNL     1       6.109  -6.188   6.375  0.00  0.00    +0.190 HD
ENDROOT
BRANCH   1  11
ATOM      7  C   UNL     1       3.392  -1.785   2.511  0.00  0.00    +0.049 A 
ATOM      8  C   UNL     1       2.012  -1.615   2.518  0.00  0.00    +0.024 A 
ATOM      9  C   UNL     1       1.220  -2.401   3.333  0.00  0.00    +0.002 A 
ATOM     10  C   UNL     1       1.795  -3.360   4.145  0.00  0.00    +0.010 A 
ATOM     11  C   UNL     1       3.177  -3.537   4.143  0.00  0.00    +0.004 A 
ATOM     12  C   UNL     1       3.976  -2.749   3.318  0.00  0.00    +0.034 A 
BRANCH   7  13
ATOM     13  N   UNL     1       4.189  -0.988   1.686  0.00  0.00    -0.216 N 
ATOM     14  H   UNL     1       5.001  -0.588   2.035  0.00  0.00    +0.174 HD
BRANCH  13  15
ATOM     15  S   UNL     1       3.748  -0.725   0.111  0.00  0.00    +0.072 S 
ATOM     16  O   UNL     1       4.768   0.078  -0.467  0.00  0.00    -0.150 OA
ATOM     17  O   UNL     1       2.384  -0.328   0.132  0.00  0.00    -0.150 OA
BRANCH  15  21
ATOM     18  C   UNL     1       3.897  -4.723  -2.006  0.00  0.00    +0.000 A 
ATOM     19  C   UNL     1       2.751  -4.338  -1.337  0.00  0.00    +0.002 A 
ATOM     20  C   UNL     1       2.705  -3.117  -0.690  0.00  0.00    +0.029 A 
ATOM     21  C   UNL     1       3.806  -2.282  -0.712  0.00  0.00    +0.108 A 
ATOM     22  C   UNL     1       4.953  -2.668  -1.381  0.00  0.00    +0.029 A 
ATOM     23  C   UNL     1       4.998  -3.888  -2.030  0.00  0.00    +0.002 A 
ENDBRANCH  15  21
ENDBRANCH  13  15
ENDBRANCH   7  13
ENDBRANCH   1  11
BRANCH   3  24
ATOM     24  N   UNL     1       3.762  -7.297   7.346  0.00  0.00    -0.300 N 
ATOM     25  H   UNL     1       2.849  -7.592   7.487  0.00  0.00    +0.154 HD
BRANCH  24  26
ATOM     26  C   UNL     1       4.809  -7.913   8.036  0.00  0.00    +0.032 A 
ATOM     27  C   UNL     1       5.899  -7.163   8.461  0.00  0.00    +0.025 A 
ATOM     28  C   UNL     1       6.933  -7.776   9.142  0.00  0.00    +0.030 A 
ATOM     29  C   UNL     1       6.884  -9.133   9.401  0.00  0.00    +0.105 A 
ATOM     30  C   UNL     1       5.800  -9.882   8.979  0.00  0.00    +0.030 A 
ATOM     31  C   UNL     1       4.761  -9.275   8.302  0.00  0.00    +0.025 A 
BRANCH  29  32
ATOM     32  S   UNL     1       8.205  -9.910  10.270  0.00  0.00    +0.056 S 
ATOM     33  O   UNL     1       8.176 -11.284   9.908  0.00  0.00    -0.153 OA
ATOM     34  O   UNL     1       9.353  -9.095  10.076  0.00  0.00    -0.153 OA
BRANCH  32  35
ATOM     35  N   UNL     1       7.839  -9.838  11.883  0.00  0.00    -0.204 NA
ATOM     36  H   UNL     1       7.015  -9.418  12.175  0.00  0.00    +0.144 HD
ATOM     37  H   UNL     1       8.449 -10.216  12.536  0.00  0.00    +0.144 HD
ENDBRANCH  32  35
ENDBRANCH  29  32
ENDBRANCH  24  26
ENDBRANCH   3  24
TORSDOF 8
