REMARK  Name = CHEMBL48796
REMARK  8 active torsions:
REMARK  status: ('A' for Active; 'I' for Inactive)
REMARK    1  A    between atoms: C_1  and  C_2
REMARK    2  A    between atoms: C_2  and  C_3
REMARK    3  A    between atoms: C_2  and  C_4
REMARK    4  A    between atoms: C_2  and  C_5
REMARK    5  A    between atoms: C_8  and  C_10
REMARK    6  A    between atoms: C_10  and  S_11
REMARK    7  A    between atoms: S_11  and  C_12
REMARK    8  A    between atoms: C_18  and  C_20
REMARK                            x       y       z     vdW  Elec       q    Type
REMARK                         _______ _______ _______ _____ _____    ______ ____
ROOT
ATOM      1  C   UNL     1       1.190  -4.819  -5.598  0.00  0.00    +0.067 A 
ATOM      2  C   UNL     1       1.371  -6.127  -5.932  0.00  0.00    +0.135 A 
ATOM      3  N   UNL     1       1.133  -6.524  -7.168  0.00  0.00    -0.232 NA
ATOM      4  C   UNL     1       0.720  -5.678  -8.093  0.00  0.00    +0.166 A 
ATOM      5  S   UNL     1       0.640  -4.152  -7.164  0.00  0.00    -0.046 S 
ATOM      6  N   UNL     1       0.422  -5.911  -9.432  0.00  0.00    -0.261 N 
ATOM      7  C   UNL     1       0.544  -7.152  -9.943  0.00  0.00    +0.250 C 
ATOM      8  O   UNL     1       0.914  -8.068  -9.233  0.00  0.00    -0.270 OA
ATOM      9  H   UNL     1       0.126  -5.181  -9.997  0.00  0.00    +0.157 HD
ENDROOT
BRANCH   7  10
ATOM     10  C   UNL     1       0.227  -7.401 -11.365  0.00  0.00    +0.037 A 
ATOM     11  C   UNL     1      -0.193  -6.350 -12.183  0.00  0.00    +0.013 A 
ATOM     12  C   UNL     1      -0.487  -6.589 -13.509  0.00  0.00    +0.001 A 
ATOM     13  C   UNL     1      -0.367  -7.865 -14.029  0.00  0.00    +0.000 A 
ATOM     14  C   UNL     1       0.049  -8.911 -13.224  0.00  0.00    +0.001 A 
ATOM     15  C   UNL     1       0.352  -8.685 -11.897  0.00  0.00    +0.013 A 
ENDBRANCH   7  10
BRANCH   1  16
ATOM     16  S   UNL     1       1.424  -4.009  -4.051  0.00  0.00    -0.107 S 
BRANCH  16  17
ATOM     17  C   UNL     1       0.974  -2.284  -4.386  0.00  0.00    +0.170 C 
BRANCH  17  21
ATOM     18  C   UNL     1       0.707  -0.490  -1.238  0.00  0.00    +0.131 A 
ATOM     19  C   UNL     1       1.979  -0.232  -1.585  0.00  0.00    +0.156 A 
ATOM     20  N   UNL     1       2.215  -0.849  -2.757  0.00  0.00    -0.221 NA
ATOM     21  C   UNL     1       1.132  -1.470  -3.128  0.00  0.00    +0.206 A 
ATOM     22  O   UNL     1       0.183  -1.270  -2.203  0.00  0.00    -0.443 OA
BRANCH  18  24
ATOM     23  C   UNL     1      -0.019   1.526   0.010  0.00  0.00    +0.019 C 
ATOM     24  C   UNL     1       0.002  -0.004   0.002  0.00  0.00    +0.022 C 
ATOM     25  C   UNL     1       0.742  -0.511   1.242  0.00  0.00    +0.019 C 
ATOM     26  C   UNL     1      -1.433  -0.534   0.013  0.00  0.00    +0.019 C 
ENDBRANCH  18  24
ENDBRANCH  17  21
ENDBRANCH  16  17
ENDBRANCH   1  16
TORSDOF 5
