REMARK  Name = CHEMBL148580
REMARK  6 active torsions:
REMARK  status: ('A' for Active; 'I' for Inactive)
REMARK    1  A    between atoms: C_1  and  O_2
REMARK    2  A    between atoms: O_2  and  C_3
REMARK    3  A    between atoms: C_6  and  C_9
REMARK    4  A    between atoms: C_19  and  N_23
REMARK    5  A    between atoms: C_24  and  C_26
REMARK    6  A    between atoms: C_26  and  N_27
REMARK                            x       y       z     vdW  Elec       q    Type
REMARK                         _______ _______ _______ _____ _____    ______ ____
ROOT
ATOM      1  C   UNL     1       2.761  -2.563   4.718  0.00  0.00    +0.077 A 
ATOM      2  C   UNL     1       3.637  -3.628   4.559  0.00  0.00    +0.075 A 
ATOM      3  C   UNL     1       4.061  -4.025   5.905  0.00  0.00    +0.105 A 
ATOM      4  N   UNL     1       3.458  -3.229   6.754  0.00  0.00    -0.173 NA
ATOM      5  N   UNL     1       2.659  -2.319   6.055  0.00  0.00    -0.276 N 
ATOM      6  H   UNL     1       2.115  -1.625   6.459  0.00  0.00    +0.189 HD
ATOM      7  C   UNL     1       4.999  -5.165   5.760  0.00  0.00    +0.015 A 
ATOM      8  C   UNL     1       5.690  -5.917   6.702  0.00  0.00    +0.011 A 
ATOM      9  C   UNL     1       6.521  -6.949   6.298  0.00  0.00    +0.002 A 
ATOM     10  C   UNL     1       6.673  -7.243   4.958  0.00  0.00    +0.024 A 
ATOM     11  C   UNL     1       5.990  -6.504   3.997  0.00  0.00    +0.045 A 
ATOM     12  C   UNL     1       5.147  -5.458   4.393  0.00  0.00    +0.053 A 
ATOM     13  C   UNL     1       4.314  -4.522   3.611  0.00  0.00    +0.200 C 
ATOM     14  O   UNL     1       4.208  -4.496   2.399  0.00  0.00    -0.286 OA
ENDROOT
BRANCH   1  18
ATOM     15  C   UNL     1       0.784  -0.445   1.614  0.00  0.00    +0.120 A 
ATOM     16  C   UNL     1       1.390   0.253   2.651  0.00  0.00    +0.046 A 
ATOM     17  C   UNL     1       2.032  -0.430   3.660  0.00  0.00    +0.013 A 
ATOM     18  C   UNL     1       2.074  -1.827   3.640  0.00  0.00    +0.001 A 
ATOM     19  C   UNL     1       1.463  -2.525   2.594  0.00  0.00    +0.013 A 
ATOM     20  C   UNL     1       0.818  -1.833   1.592  0.00  0.00    +0.046 A 
BRANCH  15  22
ATOM     21  C   UNL     1       0.154   1.659   0.705  0.00  0.00    +0.277 C 
ATOM     22  O   UNL     1       0.151   0.233   0.621  0.00  0.00    -0.495 OA
ENDBRANCH  15  22
ENDBRANCH   1  18
BRANCH  11  23
ATOM     23  N   UNL     1       6.146  -6.803   2.647  0.00  0.00    -0.284 N 
ATOM     24  C   UNL     1       7.330  -7.254   2.188  0.00  0.00    +0.231 C 
ATOM     25  O   UNL     1       8.233  -7.485   2.964  0.00  0.00    -0.274 OA
ATOM     26  H   UNL     1       5.401  -6.688   2.035  0.00  0.00    +0.155 HD
BRANCH  24  27
ATOM     27  C   UNL     1       7.533  -7.470   0.710  0.00  0.00    +0.180 C 
BRANCH  27  28
ATOM     28  N   UNL     1       8.897  -7.960   0.470  0.00  0.00    -0.291 NA
ATOM     29  C   UNL     1       9.893  -6.939   0.821  0.00  0.00    +0.104 C 
ATOM     30  C   UNL     1      11.297  -7.547   0.730  0.00  0.00    +0.123 C 
ATOM     31  N   UNL     1      11.462  -8.144  -0.604  0.00  0.00    -0.303 N 
ATOM     32  C   UNL     1      10.428  -9.075  -1.083  0.00  0.00    +0.123 C 
ATOM     33  C   UNL     1       9.059  -8.407  -0.920  0.00  0.00    +0.104 C 
ATOM     34  C   UNL     1      12.548  -7.841  -1.379  0.00  0.00    +0.151 C 
ATOM     35  N   UNL     1      12.416  -7.744  -2.701  0.00  0.00    -0.375 N 
ATOM     36  N   UNL     1      13.737  -7.645  -0.812  0.00  0.00    -0.333 N 
ATOM     37  H   UNL     1      11.568  -7.955  -3.121  0.00  0.00    +0.158 HD
ATOM     38  H   UNL     1      13.849  -7.789   0.141  0.00  0.00    +0.145 HD
ATOM     39  H   UNL     1      14.490  -7.357  -1.351  0.00  0.00    +0.145 HD
ATOM     40  H   UNL     1      13.169  -7.463  -3.244  0.00  0.00    +0.158 HD
ENDBRANCH  27  28
ENDBRANCH  24  27
ENDBRANCH  11  23
TORSDOF 5
