REMARK  Name = CHEMBL73764
REMARK  6 active torsions:
REMARK  status: ('A' for Active; 'I' for Inactive)
REMARK    1  A    between atoms: C_1  and  N_2
REMARK    2  A    between atoms: C_17  and  C_21
REMARK    3  A    between atoms: C_21  and  C_22
REMARK    4  A    between atoms: C_22  and  N_23
REMARK    5  A    between atoms: N_23  and  C_24
REMARK    6  A    between atoms: C_27  and  O_30
REMARK                            x       y       z     vdW  Elec       q    Type
REMARK                         _______ _______ _______ _____ _____    ______ ____
ROOT
ATOM      1  C   UNL     1      -0.018   1.462   0.010  0.00  0.00    +0.149 C 
ATOM      2  N   UNL     1       0.002  -0.004   0.002  0.00  0.00    -0.349 N 
ATOM      3  C   UNL     1       0.025  -0.744  -1.151  0.00  0.00    +0.086 A 
ATOM      4  C   UNL     1       0.184  -2.041  -0.848  0.00  0.00    +0.027 A 
ATOM      5  C   UNL     1       0.247  -2.128   0.610  0.00  0.00    +0.000 A 
ATOM      6  C   UNL     1       0.024  -0.827   1.095  0.00  0.00    +0.057 A 
ATOM      7  C   UNL     1      -0.157  -0.667   2.482  0.00  0.00    +0.021 A 
ATOM      8  C   UNL     1       0.326  -1.690   3.345  0.00  0.00    +0.009 A 
ATOM      9  C   UNL     1       0.595  -2.971   2.827  0.00  0.00    +0.011 A 
ATOM     10  C   UNL     1       0.513  -3.191   1.493  0.00  0.00    +0.011 A 
ATOM     11  C   UNL     1       0.539  -1.413   4.712  0.00  0.00    +0.056 A 
ATOM     12  C   UNL     1       0.058  -0.210   5.247  0.00  0.00    +0.021 A 
ATOM     13  C   UNL     1       0.436  -0.208   6.670  0.00  0.00    +0.008 A 
ATOM     14  C   UNL     1       0.252   0.704   7.709  0.00  0.00    +0.010 A 
ATOM     15  C   UNL     1       0.727   0.411   8.968  0.00  0.00    +0.001 A 
ATOM     16  C   UNL     1       1.386  -0.786   9.203  0.00  0.00    +0.005 A 
ATOM     17  C   UNL     1       1.576  -1.696   8.186  0.00  0.00    -0.025 A 
ATOM     18  C   UNL     1       1.104  -1.420   6.906  0.00  0.00    +0.051 A 
ATOM     19  N   UNL     1       1.147  -2.126   5.718  0.00  0.00    -0.353 N 
ATOM     20  H   UNL     1       1.549  -3.003   5.606  0.00  0.00    +0.166 HD
ATOM     21  C   UNL     1      -0.653   0.686   4.436  0.00  0.00    +0.060 A 
ATOM     22  C   UNL     1      -0.825   0.424   3.067  0.00  0.00    +0.060 A 
ATOM     23  C   UNL     1      -1.817   1.413   2.613  0.00  0.00    +0.252 C 
ATOM     24  O   UNL     1      -2.432   1.393   1.566  0.00  0.00    -0.270 OA
ATOM     25  N   UNL     1      -1.972   2.344   3.574  0.00  0.00    -0.248 N 
ATOM     26  C   UNL     1      -1.308   1.987   4.687  0.00  0.00    +0.252 C 
ATOM     27  O   UNL     1      -1.256   2.624   5.719  0.00  0.00    -0.270 OA
ATOM     28  H   UNL     1      -2.489   3.157   3.478  0.00  0.00    +0.158 HD
ENDROOT
BRANCH  17  29
ATOM     29  C   UNL     1       2.296  -2.990   8.464  0.00  0.00    +0.018 C 
BRANCH  29  30
ATOM     30  C   UNL     1       3.777  -2.836   8.112  0.00  0.00    -0.077 C 
BRANCH  30  31
ATOM     31  N   UNL     1       4.479  -4.098   8.383  0.00  0.00    +0.381 N 
ATOM     32  H   UNL     1       4.388  -4.330   9.361  0.00  0.00    -0.086 HD
ATOM     33  H   UNL     1       4.075  -4.834   7.824  0.00  0.00    -0.086 HD
BRANCH  31  34
ATOM     34  C   UNL     1       5.901  -3.950   8.045  0.00  0.00    -0.072 C 
ATOM     35  C   UNL     1       6.046  -3.721   6.540  0.00  0.00    -0.013 C 
ATOM     36  C   UNL     1       7.527  -3.567   6.188  0.00  0.00    +0.030 C 
ATOM     37  C   UNL     1       8.281  -4.838   6.586  0.00  0.00    +0.114 C 
ATOM     38  C   UNL     1       8.135  -5.066   8.092  0.00  0.00    +0.030 C 
ATOM     39  C   UNL     1       6.654  -5.220   8.444  0.00  0.00    -0.013 C 
BRANCH  37  40
ATOM     40  O   UNL     1       9.664  -4.694   6.257  0.00  0.00    -0.392 OA
ATOM     41  H   UNL     1      10.204  -5.463   6.483  0.00  0.00    +0.210 HD
ENDBRANCH  37  40
ENDBRANCH  31  34
ENDBRANCH  30  31
ENDBRANCH  29  30
ENDBRANCH  17  29
TORSDOF 5
