REMARK  Name = CHEMBL147184
REMARK  6 active torsions:
REMARK  status: ('A' for Active; 'I' for Inactive)
REMARK    1  A    between atoms: C_1  and  N_2
REMARK    2  A    between atoms: N_5  and  C_8
REMARK    3  A    between atoms: C_8  and  C_9
REMARK    4  A    between atoms: N_11  and  C_12
REMARK    5  A    between atoms: C_25  and  C_26
REMARK    6  A    between atoms: C_29  and  N_32
REMARK                            x       y       z     vdW  Elec       q    Type
REMARK                         _______ _______ _______ _____ _____    ______ ____
ROOT
ATOM      1  C   UNL     1       0.567  -6.183   3.996  0.00  0.00    +0.045 A 
ATOM      2  C   UNL     1       0.950  -5.221   4.925  0.00  0.00    +0.024 A 
ATOM      3  C   UNL     1       1.535  -5.599   6.116  0.00  0.00    +0.002 A 
ATOM      4  C   UNL     1       1.749  -6.938   6.401  0.00  0.00    +0.011 A 
ATOM      5  C   UNL     1       1.375  -7.915   5.488  0.00  0.00    +0.015 A 
ATOM      6  C   UNL     1       0.773  -7.540   4.274  0.00  0.00    +0.053 A 
ATOM      7  C   UNL     1       0.469  -8.757   3.495  0.00  0.00    +0.200 C 
ATOM      8  O   UNL     1      -0.050  -8.795   2.396  0.00  0.00    -0.286 OA
ATOM      9  C   UNL     1       0.908  -9.915   4.287  0.00  0.00    +0.075 A 
ATOM     10  C   UNL     1       1.484  -9.395   5.530  0.00  0.00    +0.105 A 
ATOM     11  N   UNL     1       1.880 -10.424   6.237  0.00  0.00    -0.173 NA
ATOM     12  H   UNL     1       1.819 -12.499   5.845  0.00  0.00    +0.189 HD
ATOM     13  N   UNL     1       1.617 -11.603   5.533  0.00  0.00    -0.276 N 
ATOM     14  C   UNL     1       1.013 -11.298   4.350  0.00  0.00    +0.077 A 
ENDROOT
BRANCH  14  15
ATOM     15  C   UNL     1       0.575 -12.256   3.318  0.00  0.00    +0.001 A 
ATOM     16  C   UNL     1      -0.670 -12.102   2.702  0.00  0.00    +0.012 A 
ATOM     17  C   UNL     1      -1.076 -12.998   1.739  0.00  0.00    +0.024 A 
ATOM     18  C   UNL     1      -0.248 -14.057   1.379  0.00  0.00    +0.030 A 
ATOM     19  C   UNL     1       0.992 -14.214   1.991  0.00  0.00    +0.024 A 
ATOM     20  C   UNL     1       1.406 -13.319   2.950  0.00  0.00    +0.012 A 
BRANCH  18  21
ATOM     21  N   UNL     1      -0.662 -14.963   0.405  0.00  0.00    -0.326 N 
ATOM     22  C   UNL     1       0.138 -16.157   0.092  0.00  0.00    +0.133 C 
ATOM     23  C   UNL     1      -0.783 -17.382   0.133  0.00  0.00    +0.178 C 
ATOM     24  O   UNL     1      -1.920 -17.143  -0.700  0.00  0.00    -0.377 OA
ATOM     25  C   UNL     1      -2.735 -16.047  -0.278  0.00  0.00    +0.178 C 
ATOM     26  C   UNL     1      -1.917 -14.757  -0.336  0.00  0.00    +0.133 C 
ENDBRANCH  18  21
ENDBRANCH  14  15
BRANCH   1  29
ATOM     27  C   UNL     1      -0.677  -4.622   2.712  0.00  0.00    +0.231 C 
ATOM     28  O   UNL     1      -0.837  -3.946   3.706  0.00  0.00    -0.274 OA
ATOM     29  N   UNL     1      -0.024  -5.798   2.796  0.00  0.00    -0.284 N 
ATOM     30  H   UNL     1       0.035  -6.376   2.019  0.00  0.00    +0.155 HD
BRANCH  27  31
ATOM     31  C   UNL     1      -1.208  -4.147   1.384  0.00  0.00    +0.180 C 
BRANCH  31  36
ATOM     32  C   UNL     1      -3.049   1.173   1.152  0.00  0.00    -0.096 C 
ATOM     33  N   UNL     1      -2.354  -0.103   0.937  0.00  0.00    +0.379 N 
ATOM     34  C   UNL     1      -3.333  -1.141   0.587  0.00  0.00    -0.064 C 
ATOM     35  C   UNL     1      -2.607  -2.466   0.344  0.00  0.00    +0.066 C 
ATOM     36  N   UNL     1      -1.873  -2.849   1.559  0.00  0.00    -0.298 NA
ATOM     37  C   UNL     1      -0.907  -1.808   1.936  0.00  0.00    +0.066 C 
ATOM     38  C   UNL     1      -1.647  -0.488   2.165  0.00  0.00    -0.064 C 
ATOM     39  H   UNL     1      -1.689  -0.001   0.185  0.00  0.00    -0.082 HD
ENDBRANCH  31  36
ENDBRANCH  27  31
ENDBRANCH   1  29
TORSDOF 5
