REMARK  Name = CHEMBL424469
REMARK  5 active torsions:
REMARK  status: ('A' for Active; 'I' for Inactive)
REMARK    1  A    between atoms: C_3  and  S_24
REMARK    2  A    between atoms: C_6  and  N_7
REMARK    3  A    between atoms: N_8  and  C_9
REMARK    4  A    between atoms: C_22  and  O_23
REMARK    5  A    between atoms: S_24  and  N_27
REMARK                            x       y       z     vdW  Elec       q    Type
REMARK                         _______ _______ _______ _____ _____    ______ ____
ROOT
ATOM      1  C   UNL     1       0.114  -2.535  -0.240  0.00  0.00    +0.157 A 
ATOM      2  C   UNL     1       0.305  -3.986  -0.365  0.00  0.00    +0.060 A 
ATOM      3  C   UNL     1       1.632  -4.241  -0.021  0.00  0.00    +0.054 A 
ATOM      4  C   UNL     1       2.120  -5.558  -0.045  0.00  0.00    +0.028 A 
ATOM      5  C   UNL     1       1.337  -6.604  -0.398  0.00  0.00    +0.034 A 
ATOM      6  C   UNL     1      -0.013  -6.413  -0.757  0.00  0.00    +0.113 A 
ATOM      7  C   UNL     1      -0.559  -5.096  -0.748  0.00  0.00    +0.124 A 
ATOM      8  N   UNL     1      -1.818  -5.232  -1.121  0.00  0.00    -0.154 NA
ATOM      9  N   UNL     1      -2.053  -6.479  -1.342  0.00  0.00    -0.196 N 
ATOM     10  N   UNL     1      -1.006  -7.202  -1.137  0.00  0.00    -0.155 NA
ATOM     11  H   UNL     1      -2.910  -6.830  -1.628  0.00  0.00    +0.213 HD
ATOM     12  N   UNL     1       2.227  -3.034   0.298  0.00  0.00    -0.324 N 
ATOM     13  H   UNL     1       3.151  -2.928   0.572  0.00  0.00    +0.169 HD
ATOM     14  C   UNL     1       1.337  -2.016   0.165  0.00  0.00    +0.219 A 
ENDROOT
BRANCH   1  16
ATOM     15  N   UNL     1      -1.517  -1.083   0.442  0.00  0.00    -0.149 NA
ATOM     16  N   UNL     1      -1.022  -1.843  -0.476  0.00  0.00    -0.143 NA
BRANCH  15  22
ATOM     17  C   UNL     1      -0.620  -2.034   2.450  0.00  0.00    +0.031 A 
ATOM     18  C   UNL     1       0.046  -1.869   3.647  0.00  0.00    +0.030 A 
ATOM     19  C   UNL     1       0.476  -0.613   4.037  0.00  0.00    +0.105 A 
ATOM     20  C   UNL     1       0.243   0.486   3.229  0.00  0.00    +0.030 A 
ATOM     21  C   UNL     1      -0.420   0.337   2.030  0.00  0.00    +0.031 A 
ATOM     22  C   UNL     1      -0.858  -0.928   1.630  0.00  0.00    +0.086 A 
BRANCH  19  23
ATOM     23  S   UNL     1       1.324  -0.413   5.568  0.00  0.00    +0.056 S 
ATOM     24  O   UNL     1       1.142   0.941   5.959  0.00  0.00    -0.153 OA
ATOM     25  O   UNL     1       0.936  -1.503   6.393  0.00  0.00    -0.153 OA
BRANCH  23  26
ATOM     26  N   UNL     1       2.940  -0.603   5.261  0.00  0.00    -0.204 NA
ATOM     27  H   UNL     1       3.244  -0.789   4.359  0.00  0.00    +0.144 HD
ATOM     28  H   UNL     1       3.583  -0.529   5.984  0.00  0.00    +0.144 HD
ENDBRANCH  23  26
ENDBRANCH  19  23
ENDBRANCH  15  22
ENDBRANCH   1  16
BRANCH  14  29
ATOM     29  O   UNL     1       1.599  -0.709   0.394  0.00  0.00    -0.492 OA
ATOM     30  H   UNL     1       1.536  -0.452   1.324  0.00  0.00    +0.294 HD
ENDBRANCH  14  29
TORSDOF 5
