REMARK  Name = CHEMBL149168
REMARK  4 active torsions:
REMARK  status: ('A' for Active; 'I' for Inactive)
REMARK    1  A    between atoms: C_1  and  C_2
REMARK    2  A    between atoms: N_4  and  C_5
REMARK    3  A    between atoms: C_18  and  C_19
REMARK    4  A    between atoms: C_22  and  N_25
REMARK                            x       y       z     vdW  Elec       q    Type
REMARK                         _______ _______ _______ _____ _____    ______ ____
ROOT
ATOM      1  C   UNL     1      -1.087  -2.082  -0.071  0.00  0.00    +0.045 A 
ATOM      2  C   UNL     1       0.148  -2.721  -0.072  0.00  0.00    +0.024 A 
ATOM      3  C   UNL     1       0.220  -4.095  -0.176  0.00  0.00    +0.002 A 
ATOM      4  C   UNL     1      -0.934  -4.854  -0.281  0.00  0.00    +0.011 A 
ATOM      5  C   UNL     1      -2.179  -4.238  -0.281  0.00  0.00    +0.015 A 
ATOM      6  C   UNL     1      -2.262  -2.838  -0.170  0.00  0.00    +0.053 A 
ATOM      7  C   UNL     1      -3.685  -2.442  -0.188  0.00  0.00    +0.200 C 
ATOM      8  O   UNL     1      -4.114  -1.306  -0.115  0.00  0.00    -0.286 OA
ATOM      9  C   UNL     1      -4.488  -3.666  -0.311  0.00  0.00    +0.075 A 
ATOM     10  C   UNL     1      -3.552  -4.792  -0.379  0.00  0.00    +0.105 A 
ATOM     11  N   UNL     1      -4.264  -5.885  -0.493  0.00  0.00    -0.173 NA
ATOM     12  H   UNL     1      -6.352  -6.192  -0.599  0.00  0.00    +0.189 HD
ATOM     13  N   UNL     1      -5.623  -5.557  -0.521  0.00  0.00    -0.276 N 
ATOM     14  C   UNL     1      -5.764  -4.207  -0.397  0.00  0.00    +0.077 A 
ENDROOT
BRANCH  14  15
ATOM     15  C   UNL     1      -7.034  -3.457  -0.382  0.00  0.00    +0.001 A 
ATOM     16  C   UNL     1      -7.231  -2.430   0.546  0.00  0.00    +0.012 A 
ATOM     17  C   UNL     1      -8.417  -1.732   0.557  0.00  0.00    +0.024 A 
ATOM     18  C   UNL     1      -9.421  -2.049  -0.354  0.00  0.00    +0.030 A 
ATOM     19  C   UNL     1      -9.228  -3.070  -1.279  0.00  0.00    +0.024 A 
ATOM     20  C   UNL     1      -8.042  -3.768  -1.299  0.00  0.00    +0.012 A 
BRANCH  18  21
ATOM     21  N   UNL     1     -10.620  -1.341  -0.339  0.00  0.00    -0.330 N 
ATOM     22  C   UNL     1     -10.796  -0.183   0.547  0.00  0.00    +0.105 C 
ATOM     23  C   UNL     1     -11.251   1.016  -0.291  0.00  0.00    +0.019 C 
ATOM     24  C   UNL     1     -12.504   0.634  -1.082  0.00  0.00    +0.003 C 
ATOM     25  C   UNL     1     -12.179  -0.523  -2.029  0.00  0.00    +0.019 C 
ATOM     26  C   UNL     1     -11.733  -1.736  -1.214  0.00  0.00    +0.105 C 
ENDBRANCH  18  21
ENDBRANCH  14  15
BRANCH   1  30
ATOM     27  C   UNL     1      -0.166   1.493   0.623  0.00  0.00    +0.109 C 
ATOM     28  C   UNL     1      -0.152  -0.013   0.620  0.00  0.00    +0.214 C 
ATOM     29  O   UNL     1       0.762  -0.612   1.145  0.00  0.00    -0.276 OA
ATOM     30  N   UNL     1      -1.157  -0.696   0.035  0.00  0.00    -0.285 N 
ATOM     31  H   UNL     1      -1.928  -0.221  -0.313  0.00  0.00    +0.155 HD
ENDBRANCH   1  30
TORSDOF 3
