REMARK  Name = CHEMBL1164262
REMARK  6 active torsions:
REMARK  status: ('A' for Active; 'I' for Inactive)
REMARK    1  A    between atoms: C_1  and  N_2
REMARK    2  A    between atoms: C_3  and  C_7
REMARK    3  A    between atoms: C_7  and  N_8
REMARK    4  A    between atoms: C_9  and  C_11
REMARK    5  A    between atoms: C_16  and  C_21
REMARK    6  A    between atoms: C_22  and  C_27
REMARK                            x       y       z     vdW  Elec       q    Type
REMARK                         _______ _______ _______ _____ _____    ______ ____
ROOT
ATOM      1  C   UNL     1      -2.605  -0.078  -5.561  0.00  0.00    +0.039 A 
ATOM      2  C   UNL     1      -3.553  -0.395  -4.578  0.00  0.00    +0.014 A 
ATOM      3  C   UNL     1      -4.869  -0.104  -4.769  0.00  0.00    +0.011 A 
ATOM      4  C   UNL     1      -5.285   0.518  -5.955  0.00  0.00    +0.000 A 
ATOM      5  C   UNL     1      -6.546   0.938  -6.437  0.00  0.00    +0.037 A 
ATOM      6  C   UNL     1      -6.360   1.489  -7.668  0.00  0.00    +0.066 A 
ATOM      7  N   UNL     1      -5.022   1.436  -7.990  0.00  0.00    -0.353 N 
ATOM      8  H   UNL     1      -4.626   1.763  -8.813  0.00  0.00    +0.166 HD
ATOM      9  C   UNL     1      -4.338   0.842  -6.949  0.00  0.00    +0.048 A 
ATOM     10  C   UNL     1      -3.000   0.546  -6.744  0.00  0.00    +0.039 A 
ENDROOT
BRANCH   6  11
ATOM     11  C   UNL     1      -7.420   2.050  -8.519  0.00  0.00    +0.090 A 
ATOM     12  C   UNL     1      -7.340   3.209  -9.285  0.00  0.00    +0.029 A 
ATOM     13  C   UNL     1      -8.576   3.366  -9.934  0.00  0.00    +0.143 A 
ATOM     14  N   UNL     1      -9.356   2.376  -9.591  0.00  0.00    -0.181 NA
ATOM     15  H   UNL     1      -9.015   0.720  -8.311  0.00  0.00    +0.189 HD
ATOM     16  N   UNL     1      -8.667   1.531  -8.713  0.00  0.00    -0.275 N 
BRANCH  12  17
ATOM     17  C   UNL     1      -6.169   4.111  -9.395  0.00  0.00    -0.014 A 
ATOM     18  C   UNL     1      -5.601   4.665  -8.248  0.00  0.00    +0.008 A 
ATOM     19  C   UNL     1      -4.511   5.503  -8.357  0.00  0.00    +0.001 A 
ATOM     20  C   UNL     1      -3.981   5.795  -9.601  0.00  0.00    +0.000 A 
ATOM     21  C   UNL     1      -4.540   5.250 -10.742  0.00  0.00    +0.001 A 
ATOM     22  C   UNL     1      -5.627   4.405 -10.646  0.00  0.00    +0.008 A 
ENDBRANCH  12  17
ENDBRANCH   6  11
BRANCH   1  24
ATOM     23  N   UNL     1      -0.797  -1.003  -4.199  0.00  0.00    -0.306 N 
ATOM     24  C   UNL     1      -1.182  -0.400  -5.341  0.00  0.00    +0.244 C 
ATOM     25  O   UNL     1      -0.357  -0.121  -6.190  0.00  0.00    -0.270 OA
ATOM     26  H   UNL     1      -1.455  -1.225  -3.522  0.00  0.00    +0.149 HD
BRANCH  23  27
ATOM     27  C   UNL     1       0.616  -1.322  -3.980  0.00  0.00    +0.159 C 
BRANCH  27  30
ATOM     28  C   UNL     1       0.941   0.090  -1.240  0.00  0.00    +0.172 C 
ATOM     29  N   UNL     1       0.919  -1.359  -1.451  0.00  0.00    -0.270 N 
ATOM     30  C   UNL     1       0.779  -1.987  -2.637  0.00  0.00    +0.056 A 
ATOM     31  C   UNL     1       0.810  -3.320  -2.405  0.00  0.00    +0.046 A 
ATOM     32  C   UNL     1       0.974  -3.513  -1.030  0.00  0.00    +0.134 A 
ATOM     33  N   UNL     1       1.046  -2.339  -0.457  0.00  0.00    -0.180 NA
ENDBRANCH  27  30
ENDBRANCH  23  27
ENDBRANCH   1  24
TORSDOF 5
