REMARK  Name = CHEMBL426972
REMARK  5 active torsions:
REMARK  status: ('A' for Active; 'I' for Inactive)
REMARK    1  A    between atoms: C_1  and  C_2
REMARK    2  A    between atoms: C_2  and  C_3
REMARK    3  A    between atoms: C_2  and  C_4
REMARK    4  A    between atoms: C_10  and  C_12
REMARK    5  A    between atoms: C_12  and  C_13
REMARK                            x       y       z     vdW  Elec       q    Type
REMARK                         _______ _______ _______ _____ _____    ______ ____
ROOT
ATOM      1  C   UNL     1       0.707  -0.490  -1.238  0.00  0.00    +0.014 A 
ATOM      2  C   UNL     1       1.817  -1.259  -1.356  0.00  0.00    +0.124 A 
ATOM      3  N   UNL     1       2.226  -1.540  -2.579  0.00  0.00    -0.233 NA
ATOM      4  C   UNL     1       1.579  -1.089  -3.632  0.00  0.00    +0.165 A 
ATOM      5  S   UNL     1       0.307  -0.218  -2.956  0.00  0.00    -0.057 S 
ATOM      6  N   UNL     1       1.872  -1.287  -4.976  0.00  0.00    -0.264 N 
ATOM      7  C   UNL     1       2.941  -2.027  -5.331  0.00  0.00    +0.223 C 
ATOM      8  O   UNL     1       3.648  -2.520  -4.477  0.00  0.00    -0.275 OA
ATOM      9  H   UNL     1       1.306  -0.893  -5.659  0.00  0.00    +0.157 HD
ENDROOT
BRANCH   1  11
ATOM     10  C   UNL     1      -0.019   1.526   0.010  0.00  0.00    +0.013 C 
ATOM     11  C   UNL     1       0.002  -0.004   0.002  0.00  0.00    +0.021 C 
ATOM     12  C   UNL     1      -1.433  -0.534   0.013  0.00  0.00    +0.013 C 
ENDBRANCH   1  11
BRANCH   7  13
ATOM     13  C   UNL     1       3.258  -2.243  -6.788  0.00  0.00    +0.131 C 
BRANCH  13  14
ATOM     14  C   UNL     1       4.493  -3.098  -6.913  0.00  0.00    -0.039 A 
ATOM     15  C   UNL     1       5.741  -2.507  -6.961  0.00  0.00    +0.004 A 
ATOM     16  C   UNL     1       6.874  -3.292  -7.075  0.00  0.00    +0.000 A 
ATOM     17  C   UNL     1       6.757  -4.668  -7.140  0.00  0.00    +0.000 A 
ATOM     18  C   UNL     1       5.509  -5.259  -7.091  0.00  0.00    +0.000 A 
ATOM     19  C   UNL     1       4.377  -4.474  -6.973  0.00  0.00    +0.004 A 
ENDBRANCH  13  14
ENDBRANCH   7  13
TORSDOF 3
