REMARK  Name = CHEMBL1169805
REMARK  8 active torsions:
REMARK  status: ('A' for Active; 'I' for Inactive)
REMARK    1  A    between atoms: C_1  and  C_2
REMARK    2  A    between atoms: C_4  and  C_8
REMARK    3  A    between atoms: C_8  and  N_9
REMARK    4  A    between atoms: C_10  and  C_12
REMARK    5  A    between atoms: N_15  and  C_17
REMARK    6  A    between atoms: N_24  and  C_25
REMARK    7  A    between atoms: C_28  and  N_31
REMARK    8  A    between atoms: N_34  and  C_37
REMARK                            x       y       z     vdW  Elec       q    Type
REMARK                         _______ _______ _______ _____ _____    ______ ____
ROOT
ATOM      1  C   UNL     1       3.137  -3.526  -4.702  0.00  0.00    +0.151 A 
ATOM      2  C   UNL     1       3.515  -4.417  -5.707  0.00  0.00    +0.012 A 
ATOM      3  C   UNL     1       4.889  -4.340  -5.774  0.00  0.00    +0.091 A 
ATOM      4  N   UNL     1       5.282  -3.455  -4.837  0.00  0.00    -0.264 N 
ATOM      5  N   UNL     1       4.247  -2.981  -4.227  0.00  0.00    -0.166 NA
ATOM      6  C   UNL     1       6.671  -3.083  -4.556  0.00  0.00    +0.173 C 
ATOM      7  C   UNL     1       5.631  -5.139  -6.765  0.00  0.00    +0.097 A 
ATOM      8  C   UNL     1       4.887  -5.734  -7.795  0.00  0.00    -0.001 A 
ATOM      9  C   UNL     1       5.563  -6.522  -8.708  0.00  0.00    +0.120 A 
ATOM     10  N   UNL     1       6.876  -6.656  -8.596  0.00  0.00    -0.222 NA
ATOM     11  C   UNL     1       7.553  -6.048  -7.633  0.00  0.00    +0.220 A 
ATOM     12  N   UNL     1       6.945  -5.294  -6.726  0.00  0.00    -0.212 NA
ATOM     13  N   UNL     1       8.928  -6.202  -7.571  0.00  0.00    -0.284 N 
ATOM     14  C   UNL     1       3.413  -5.489  -7.938  0.00  0.00    +0.043 C 
ATOM     15  C   UNL     1       2.713  -5.329  -6.588  0.00  0.00    +0.044 C 
ATOM     16  H   UNL     1       9.425  -5.830  -6.826  0.00  0.00    +0.155 HD
ENDROOT
BRANCH  13  17
ATOM     17  C   UNL     1       9.601  -6.896  -8.585  0.00  0.00    +0.034 A 
ATOM     18  C   UNL     1       9.197  -6.758  -9.907  0.00  0.00    +0.025 A 
ATOM     19  C   UNL     1       9.861  -7.441 -10.906  0.00  0.00    +0.025 A 
ATOM     20  C   UNL     1      10.932  -8.267 -10.590  0.00  0.00    +0.030 A 
ATOM     21  C   UNL     1      11.336  -8.404  -9.269  0.00  0.00    +0.025 A 
ATOM     22  C   UNL     1      10.676  -7.716  -8.270  0.00  0.00    +0.025 A 
BRANCH  20  23
ATOM     23  N   UNL     1      11.604  -8.960 -11.604  0.00  0.00    -0.333 N 
ATOM     24  C   UNL     1      12.657  -9.935 -11.282  0.00  0.00    +0.086 C 
ATOM     25  C   UNL     1      12.358 -11.238 -12.031  0.00  0.00    -0.060 C 
ATOM     26  N   UNL     1      12.211 -10.955 -13.464  0.00  0.00    +0.380 N 
ATOM     27  C   UNL     1      11.042 -10.094 -13.687  0.00  0.00    -0.060 C 
ATOM     28  C   UNL     1      11.273  -8.739 -13.020  0.00  0.00    +0.086 C 
ATOM     29  C   UNL     1      12.033 -12.217 -14.195  0.00  0.00    -0.096 C 
ATOM     30  H   UNL     1      13.040 -10.489 -13.800  0.00  0.00    -0.082 HD
ENDBRANCH  20  23
ENDBRANCH  13  17
BRANCH   1  32
ATOM     31  N   UNL     1       1.540  -2.345  -3.271  0.00  0.00    -0.306 N 
ATOM     32  C   UNL     1       1.758  -3.240  -4.256  0.00  0.00    +0.265 C 
ATOM     33  O   UNL     1       0.820  -3.811  -4.777  0.00  0.00    -0.268 OA
ATOM     34  H   UNL     1       2.289  -1.889  -2.856  0.00  0.00    +0.149 HD
BRANCH  31  35
ATOM     35  C   UNL     1       0.173  -2.061  -2.829  0.00  0.00    +0.140 C 
BRANCH  35  39
ATOM     36  C   UNL     1       0.099   2.708  -1.283  0.00  0.00    +0.065 C 
ATOM     37  C   UNL     1       0.170   1.233  -0.980  0.00  0.00    +0.039 A 
ATOM     38  C   UNL     1       0.139   0.320  -2.017  0.00  0.00    +0.028 A 
ATOM     39  C   UNL     1       0.204  -1.034  -1.727  0.00  0.00    -0.027 A 
ATOM     40  C   UNL     1       0.300  -1.421  -0.399  0.00  0.00    +0.025 A 
ATOM     41  C   UNL     1       0.326  -0.450   0.585  0.00  0.00    +0.111 A 
ATOM     42  N   UNL     1       0.266   0.830   0.272  0.00  0.00    -0.260 NA
ENDBRANCH  35  39
ENDBRANCH  31  35
ENDBRANCH   1  32
TORSDOF 5
