REMARK  Name = CHEMBL359738
REMARK  3 active torsions:
REMARK  status: ('A' for Active; 'I' for Inactive)
REMARK    1  A    between atoms: C_3  and  N_23
REMARK    2  A    between atoms: C_6  and  N_7
REMARK    3  A    between atoms: C_10  and  C_12
REMARK                            x       y       z     vdW  Elec       q    Type
REMARK                         _______ _______ _______ _____ _____    ______ ____
ROOT
ATOM      1  N   UNL     1      -1.202  -0.721   0.010  0.00  0.00    -0.231 N 
ATOM      2  C   UNL     1      -1.457  -1.796   0.773  0.00  0.00    +0.082 A 
ATOM      3  C   UNL     1      -2.758  -2.185   0.518  0.00  0.00    +0.011 A 
ATOM      4  C   UNL     1      -3.218  -1.299  -0.463  0.00  0.00    +0.151 A 
ATOM      5  N   UNL     1      -2.236  -0.445  -0.713  0.00  0.00    -0.161 NA
ATOM      6  C   UNL     1      -3.447  -3.312   1.228  0.00  0.00    +0.046 C 
ATOM      7  C   UNL     1      -2.466  -4.414   1.633  0.00  0.00    +0.063 C 
ATOM      8  C   UNL     1      -1.190  -3.834   2.184  0.00  0.00    +0.072 A 
ATOM      9  C   UNL     1      -0.676  -2.573   1.754  0.00  0.00    +0.041 A 
ATOM     10  C   UNL     1       0.488  -2.355   2.391  0.00  0.00    +0.115 A 
ATOM     11  N   UNL     1       0.701  -3.409   3.214  0.00  0.00    -0.284 N 
ATOM     12  H   UNL     1       1.460  -3.522   3.807  0.00  0.00    +0.188 HD
ATOM     13  N   UNL     1      -0.367  -4.308   3.064  0.00  0.00    -0.178 NA
ENDROOT
BRANCH   1  19
ATOM     14  C   UNL     1      -0.017   1.385  -0.009  0.00  0.00    +0.029 A 
ATOM     15  C   UNL     1       1.169   2.091  -0.017  0.00  0.00    +0.025 A 
ATOM     16  C   UNL     1       2.381   1.413  -0.013  0.00  0.00    +0.030 A 
ATOM     17  C   UNL     1       2.400   0.024  -0.002  0.00  0.00    +0.025 A 
ATOM     18  C   UNL     1       1.214  -0.682   0.006  0.00  0.00    +0.029 A 
ATOM     19  C   UNL     1       0.002  -0.004   0.002  0.00  0.00    +0.066 A 
BRANCH  16  20
ATOM     20  N   UNL     1       3.582   2.128  -0.021  0.00  0.00    -0.326 N 
ATOM     21  C   UNL     1       4.876   1.437   0.101  0.00  0.00    +0.133 C 
ATOM     22  C   UNL     1       5.791   1.922  -1.028  0.00  0.00    +0.178 C 
ATOM     23  O   UNL     1       5.831   3.351  -1.022  0.00  0.00    -0.377 OA
ATOM     24  C   UNL     1       4.568   3.973  -1.271  0.00  0.00    +0.178 C 
ATOM     25  C   UNL     1       3.590   3.593  -0.159  0.00  0.00    +0.133 C 
ENDBRANCH  16  20
ENDBRANCH   1  19
BRANCH   4  26
ATOM     26  C   UNL     1      -4.551  -1.310  -1.097  0.00  0.00    +0.262 C 
ATOM     27  O   UNL     1      -5.371  -2.149  -0.775  0.00  0.00    -0.269 OA
ATOM     28  N   UNL     1      -4.860  -0.391  -2.033  0.00  0.00    -0.324 N 
ATOM     29  H   UNL     1      -4.206   0.278  -2.290  0.00  0.00    +0.145 HD
ATOM     30  H   UNL     1      -5.736  -0.398  -2.450  0.00  0.00    +0.145 HD
ENDBRANCH   4  26
TORSDOF 3
