REMARK  Name = CHEMBL181036
REMARK  7 active torsions:
REMARK  status: ('A' for Active; 'I' for Inactive)
REMARK    1  A    between atoms: C_1  and  C_2
REMARK    2  A    between atoms: C_2  and  C_3
REMARK    3  A    between atoms: C_3  and  C_4
REMARK    4  A    between atoms: C_4  and  N_5
REMARK    5  A    between atoms: N_5  and  S_6
REMARK    6  A    between atoms: S_6  and  N_9
REMARK    7  A    between atoms: C_20  and  C_22
REMARK                            x       y       z     vdW  Elec       q    Type
REMARK                         _______ _______ _______ _____ _____    ______ ____
ROOT
ATOM      1  N   UNL     1       2.407  -4.298  -4.176  0.00  0.00    -0.150 N 
ATOM      2  C   UNL     1       1.803  -4.481  -5.384  0.00  0.00    +0.103 A 
ATOM      3  C   UNL     1       2.827  -4.581  -6.330  0.00  0.00    +0.035 A 
ATOM      4  C   UNL     1       2.555  -4.776  -7.696  0.00  0.00    +0.014 A 
ATOM      5  C   UNL     1       1.296  -4.877  -8.172  0.00  0.00    +0.031 A 
ATOM      6  C   UNL     1       0.158  -4.785  -7.262  0.00  0.00    +0.095 A 
ATOM      7  C   UNL     1       0.416  -4.582  -5.828  0.00  0.00    +0.047 A 
ATOM      8  C   UNL     1      -0.814  -4.533  -5.212  0.00  0.00    +0.115 A 
ATOM      9  N   UNL     1      -1.756  -4.690  -6.155  0.00  0.00    -0.284 N 
ATOM     10  N   UNL     1      -1.151  -4.842  -7.409  0.00  0.00    -0.174 NA
ATOM     11  H   UNL     1      -2.712  -4.696  -5.993  0.00  0.00    +0.188 HD
ATOM     12  C   UNL     1       4.061  -4.438  -5.544  0.00  0.00    +0.156 A 
ATOM     13  N   UNL     1       3.685  -4.272  -4.293  0.00  0.00    -0.146 NA
ENDROOT
BRANCH  12  14
ATOM     14  C   UNL     1       5.443  -4.469  -6.055  0.00  0.00    +0.262 C 
ATOM     15  O   UNL     1       5.649  -4.626  -7.243  0.00  0.00    -0.269 OA
ATOM     16  N   UNL     1       6.479  -4.323  -5.205  0.00  0.00    -0.324 N 
ATOM     17  H   UNL     1       6.315  -4.197  -4.258  0.00  0.00    +0.145 HD
ATOM     18  H   UNL     1       7.389  -4.343  -5.542  0.00  0.00    +0.145 HD
ENDBRANCH  12  14
BRANCH   1  19
ATOM     19  S   UNL     1       1.595  -4.124  -2.743  0.00  0.00    +0.014 S 
ATOM     20  O   UNL     1       2.546  -4.343  -1.709  0.00  0.00    -0.174 OA
ATOM     21  O   UNL     1       0.403  -4.889  -2.856  0.00  0.00    -0.174 OA
BRANCH  19  22
ATOM     22  N   UNL     1       1.131  -2.538  -2.632  0.00  0.00    +0.481 NA
BRANCH  22  23
ATOM     23  C   UNL     1       0.386  -2.074  -1.460  0.00  0.00    -0.113 C 
BRANCH  23  24
ATOM     24  C   UNL     1       0.083  -0.581  -1.606  0.00  0.00    -0.025 C 
BRANCH  24  26
ATOM     25  C   UNL     1      -0.998   1.396  -0.528  0.00  0.00    +0.004 C 
ATOM     26  C   UNL     1      -0.696  -0.096  -0.382  0.00  0.00    -0.005 C 
ENDBRANCH  24  26
ENDBRANCH  23  24
ENDBRANCH  22  23
ENDBRANCH  19  22
ENDBRANCH   1  19
TORSDOF 6
