REMARK  Name = CHEMBL315411
REMARK  6 active torsions:
REMARK  status: ('A' for Active; 'I' for Inactive)
REMARK    1  A    between atoms: C_3  and  S_25
REMARK    2  A    between atoms: C_6  and  N_7
REMARK    3  A    between atoms: N_8  and  C_9
REMARK    4  A    between atoms: C_12  and  C_20
REMARK    5  A    between atoms: C_18  and  O_19
REMARK    6  A    between atoms: S_25  and  N_28
REMARK                            x       y       z     vdW  Elec       q    Type
REMARK                         _______ _______ _______ _____ _____    ______ ____
ROOT
ATOM      1  C   UNL     1      -0.021  -2.733  -0.025  0.00  0.00    +0.154 A 
ATOM      2  C   UNL     1       0.187  -4.179  -0.236  0.00  0.00    +0.031 A 
ATOM      3  C   UNL     1      -0.671  -5.245  -0.487  0.00  0.00    +0.024 A 
ATOM      4  C   UNL     1      -0.148  -6.525  -0.641  0.00  0.00    +0.020 A 
ATOM      5  C   UNL     1       1.233  -6.733  -0.544  0.00  0.00    +0.013 A 
ATOM      6  C   UNL     1       2.081  -5.679  -0.296  0.00  0.00    +0.027 A 
ATOM      7  C   UNL     1       1.572  -4.393  -0.139  0.00  0.00    +0.051 A 
ATOM      8  N   UNL     1       2.172  -3.172   0.113  0.00  0.00    -0.324 N 
ATOM      9  H   UNL     1       3.126  -3.037   0.225  0.00  0.00    +0.169 HD
ATOM     10  C   UNL     1       1.237  -2.186   0.176  0.00  0.00    +0.219 A 
ENDROOT
BRANCH   4  11
ATOM     11  C   UNL     1      -1.050  -7.665  -0.908  0.00  0.00    +0.155 A 
ATOM     12  C   UNL     1      -0.688  -8.963  -1.074  0.00  0.00    +0.160 A 
ATOM     13  N   UNL     1      -1.806  -9.670  -1.294  0.00  0.00    -0.224 NA
ATOM     14  C   UNL     1      -2.829  -8.862  -1.269  0.00  0.00    +0.308 A 
ATOM     15  O   UNL     1      -2.396  -7.617  -1.026  0.00  0.00    -0.442 OA
ENDBRANCH   4  11
BRANCH   1  17
ATOM     16  N   UNL     1      -2.002  -2.203  -1.031  0.00  0.00    -0.149 NA
ATOM     17  N   UNL     1      -1.198  -2.075  -0.031  0.00  0.00    -0.143 NA
BRANCH  16  23
ATOM     18  C   UNL     1      -2.359  -4.078  -2.480  0.00  0.00    +0.031 A 
ATOM     19  C   UNL     1      -1.977  -4.819  -3.579  0.00  0.00    +0.030 A 
ATOM     20  C   UNL     1      -0.873  -4.441  -4.323  0.00  0.00    +0.105 A 
ATOM     21  C   UNL     1      -0.145  -3.318  -3.971  0.00  0.00    +0.030 A 
ATOM     22  C   UNL     1      -0.516  -2.567  -2.875  0.00  0.00    +0.031 A 
ATOM     23  C   UNL     1      -1.629  -2.943  -2.119  0.00  0.00    +0.086 A 
BRANCH  20  24
ATOM     24  S   UNL     1      -0.392  -5.394  -5.724  0.00  0.00    +0.056 S 
ATOM     25  O   UNL     1       0.992  -5.145  -5.930  0.00  0.00    -0.153 OA
ATOM     26  O   UNL     1      -0.908  -6.703  -5.522  0.00  0.00    -0.153 OA
BRANCH  24  27
ATOM     27  N   UNL     1      -1.186  -4.770  -7.037  0.00  0.00    -0.204 NA
ATOM     28  H   UNL     1      -1.783  -4.013  -6.928  0.00  0.00    +0.144 HD
ATOM     29  H   UNL     1      -1.053  -5.161  -7.915  0.00  0.00    +0.144 HD
ENDBRANCH  24  27
ENDBRANCH  20  24
ENDBRANCH  16  23
ENDBRANCH   1  17
BRANCH  10  30
ATOM     30  O   UNL     1       1.494  -0.877   0.402  0.00  0.00    -0.492 OA
ATOM     31  H   UNL     1       1.425  -0.618   1.331  0.00  0.00    +0.294 HD
ENDBRANCH  10  30
TORSDOF 6
