REMARK  Name = CHEMBL481562
REMARK  4 active torsions:
REMARK  status: ('A' for Active; 'I' for Inactive)
REMARK    1  A    between atoms: C_3  and  O_24
REMARK    2  A    between atoms: C_6  and  C_7
REMARK    3  A    between atoms: C_14  and  C_18
REMARK    4  A    between atoms: N_20  and  C_21
REMARK                            x       y       z     vdW  Elec       q    Type
REMARK                         _______ _______ _______ _____ _____    ______ ____
ROOT
ATOM      1  C   UNL     1      -1.271  -0.764   0.011  0.00  0.00    -0.002 A 
ATOM      2  C   UNL     1      -1.473  -1.782  -0.913  0.00  0.00    +0.037 A 
ATOM      3  C   UNL     1      -2.666  -2.492  -0.901  0.00  0.00    +0.067 A 
ATOM      4  C   UNL     1      -3.655  -2.167   0.050  0.00  0.00    +0.033 A 
ATOM      5  C   UNL     1      -3.438  -1.144   0.970  0.00  0.00    +0.028 A 
ATOM      6  C   UNL     1      -2.260  -0.455   0.953  0.00  0.00    +0.026 A 
ATOM      7 BR   UNL     1      -1.962   0.929   2.207  0.00  0.00    -0.050 Br
ATOM      8  C   UNL     1      -4.752  -3.103  -0.232  0.00  0.00    +0.155 A 
ATOM      9  N   UNL     1      -4.356  -3.845  -1.243  0.00  0.00    -0.168 NA
ATOM     10  N   UNL     1      -3.180  -3.524  -1.644  0.00  0.00    -0.276 N 
ATOM     11  H   UNL     1      -2.715  -3.954  -2.379  0.00  0.00    +0.189 HD
ENDROOT
BRANCH   1  17
ATOM     12  C   UNL     1      -0.017   1.390   0.010  0.00  0.00    +0.012 A 
ATOM     13  C   UNL     1       1.169   2.094   0.002  0.00  0.00    +0.046 A 
ATOM     14  C   UNL     1       2.380   1.416  -0.013  0.00  0.00    +0.117 A 
ATOM     15  C   UNL     1       2.402   0.028  -0.021  0.00  0.00    +0.046 A 
ATOM     16  C   UNL     1       1.220  -0.682  -0.013  0.00  0.00    +0.012 A 
ATOM     17  C   UNL     1       0.002  -0.004   0.002  0.00  0.00    -0.017 A 
BRANCH  14  18
ATOM     18  O   UNL     1       3.547   2.113  -0.022  0.00  0.00    -0.507 OA
ATOM     19  H   UNL     1       3.893   2.310   0.859  0.00  0.00    +0.292 HD
ENDBRANCH  14  18
ENDBRANCH   1  17
BRANCH   8  20
ATOM     20  C   UNL     1      -6.040  -3.193   0.479  0.00  0.00    +0.265 C 
ATOM     21  O   UNL     1      -6.278  -2.441   1.404  0.00  0.00    -0.268 OA
ATOM     22  N   UNL     1      -6.954  -4.110   0.103  0.00  0.00    -0.307 N 
ATOM     23  H   UNL     1      -6.764  -4.710  -0.634  0.00  0.00    +0.149 HD
BRANCH  22  24
ATOM     24  C   UNL     1      -8.234  -4.199   0.810  0.00  0.00    +0.073 C 
ATOM     25  C   UNL     1      -8.752  -5.596   1.159  0.00  0.00    +0.024 C 
ATOM     26  C   UNL     1      -9.423  -4.787   0.046  0.00  0.00    +0.024 C 
ENDBRANCH  22  24
ENDBRANCH   8  20
TORSDOF 4
