REMARK  Name = CHEMBL103039
REMARK  5 active torsions:
REMARK  status: ('A' for Active; 'I' for Inactive)
REMARK    1  A    between atoms: C_3  and  C_13
REMARK    2  A    between atoms: C_5  and  N_7
REMARK    3  A    between atoms: N_19  and  C_20
REMARK    4  A    between atoms: C_23  and  S_26
REMARK    5  A    between atoms: S_26  and  N_29
REMARK                            x       y       z     vdW  Elec       q    Type
REMARK                         _______ _______ _______ _____ _____    ______ ____
ROOT
ATOM      1  C   UNL     1       3.767   2.264  -0.282  0.00  0.00    +0.068 A 
ATOM      2  C   UNL     1       3.874   3.619  -0.149  0.00  0.00    +0.073 A 
ATOM      3  C   UNL     1       5.237   3.941  -0.126  0.00  0.00    +0.145 A 
ATOM      4  N   UNL     1       5.928   2.830  -0.240  0.00  0.00    -0.158 NA
ATOM      5  N   UNL     1       5.032   1.758  -0.335  0.00  0.00    -0.275 N 
ATOM      6  H   UNL     1       5.269   0.822  -0.424  0.00  0.00    +0.189 HD
ATOM      7  N   UNL     1       5.772   5.229  -0.002  0.00  0.00    -0.298 N 
ATOM      8  H   UNL     1       5.186   5.984   0.162  0.00  0.00    +0.154 HD
ENDROOT
BRANCH   1  11
ATOM      9  C   UNL     1       0.107   1.415  -0.350  0.00  0.00    +0.002 A 
ATOM     10  C   UNL     1       1.279   2.141  -0.284  0.00  0.00    +0.010 A 
ATOM     11  C   UNL     1       2.510   1.487  -0.351  0.00  0.00    +0.002 A 
ATOM     12  C   UNL     1       2.551   0.100  -0.483  0.00  0.00    +0.033 A 
ATOM     13  C   UNL     1       1.368  -0.621  -0.547  0.00  0.00    +0.030 A 
ATOM     14  C   UNL     1       0.147   0.040  -0.481  0.00  0.00    +0.023 A 
BRANCH  13  15
ATOM     15  N   UNL     1       1.404  -2.011  -0.680  0.00  0.00    -0.325 N 
ATOM     16  C   UNL     1       2.679  -2.722  -0.867  0.00  0.00    +0.133 C 
ATOM     17  C   UNL     1       2.750  -3.864   0.153  0.00  0.00    +0.178 C 
ATOM     18  O   UNL     1       1.563  -4.654   0.058  0.00  0.00    -0.377 OA
ATOM     19  C   UNL     1       0.361  -3.946   0.371  0.00  0.00    +0.178 C 
ATOM     20  C   UNL     1       0.169  -2.809  -0.632  0.00  0.00    +0.133 C 
ENDBRANCH  13  15
ENDBRANCH   1  11
BRANCH   7  21
ATOM     21  C   UNL     1       7.151   5.426  -0.116  0.00  0.00    +0.033 A 
ATOM     22  C   UNL     1       7.910   4.589  -0.923  0.00  0.00    +0.025 A 
ATOM     23  C   UNL     1       9.272   4.787  -1.033  0.00  0.00    +0.030 A 
ATOM     24  C   UNL     1       9.881   5.818  -0.341  0.00  0.00    +0.105 A 
ATOM     25  C   UNL     1       9.128   6.653   0.464  0.00  0.00    +0.030 A 
ATOM     26  C   UNL     1       7.764   6.464   0.575  0.00  0.00    +0.025 A 
BRANCH  24  27
ATOM     27  S   UNL     1      11.619   6.066  -0.483  0.00  0.00    +0.056 S 
ATOM     28  O   UNL     1      12.028   6.757   0.690  0.00  0.00    -0.153 OA
ATOM     29  O   UNL     1      12.178   4.817  -0.866  0.00  0.00    -0.153 OA
BRANCH  27  30
ATOM     30  N   UNL     1      11.863   7.103  -1.752  0.00  0.00    -0.204 NA
ATOM     31  H   UNL     1      12.628   7.700  -1.750  0.00  0.00    +0.144 HD
ATOM     32  H   UNL     1      11.242   7.113  -2.496  0.00  0.00    +0.144 HD
ENDBRANCH  27  30
ENDBRANCH  24  27
ENDBRANCH   7  21
TORSDOF 5
