REMARK  Name = CHEMBL258805
REMARK  3 active torsions:
REMARK  status: ('A' for Active; 'I' for Inactive)
REMARK    1  A    between atoms: C_1  and  O_2
REMARK    2  A    between atoms: O_2  and  C_3
REMARK    3  A    between atoms: C_10  and  C_11
REMARK                            x       y       z     vdW  Elec       q    Type
REMARK                         _______ _______ _______ _____ _____    ______ ____
ROOT
ATOM      1  C   UNL     1      -0.580  -0.825  -2.062  0.00  0.00    +0.121 A 
ATOM      2  C   UNL     1       0.157  -0.023  -2.925  0.00  0.00    +0.047 A 
ATOM      3  C   UNL     1       1.242  -0.537  -3.605  0.00  0.00    +0.027 A 
ATOM      4  C   UNL     1       1.610  -1.867  -3.433  0.00  0.00    +0.042 A 
ATOM      5  C   UNL     1       0.866  -2.674  -2.562  0.00  0.00    +0.012 A 
ATOM      6  C   UNL     1      -0.224  -2.150  -1.875  0.00  0.00    +0.056 A 
ATOM      7  C   UNL     1       1.496  -4.013  -2.594  0.00  0.00    +0.048 C 
ATOM      8  C   UNL     1       1.109  -5.139  -1.896  0.00  0.00    +0.041 C 
ATOM      9  C   UNL     1       2.621  -3.885  -3.530  0.00  0.00    +0.249 C 
ATOM     10  O   UNL     1       3.400  -4.769  -3.838  0.00  0.00    -0.270 OA
ATOM     11  N   UNL     1       2.640  -2.621  -3.986  0.00  0.00    -0.281 N 
ATOM     12  H   UNL     1       3.290  -2.278  -4.620  0.00  0.00    +0.155 HD
ENDROOT
BRANCH   8  13
ATOM     13  C   UNL     1       1.311  -6.420  -2.454  0.00  0.00    +0.059 A 
ATOM     14  C   UNL     1       0.888  -7.631  -1.934  0.00  0.00    +0.138 A 
ATOM     15  N   UNL     1       1.285  -8.588  -2.771  0.00  0.00    -0.244 NA
ATOM     16  C   UNL     1       1.927  -8.057  -3.780  0.00  0.00    +0.196 A 
ATOM     17  N   UNL     1       1.967  -6.719  -3.634  0.00  0.00    -0.345 N 
ATOM     18  H   UNL     1       2.379  -6.085  -4.242  0.00  0.00    +0.167 HD
ENDBRANCH   8  13
BRANCH   1  20
ATOM     19  C   UNL     1      -1.957   1.067  -1.638  0.00  0.00    +0.277 C 
ATOM     20  O   UNL     1      -1.647  -0.307  -1.397  0.00  0.00    -0.495 OA
ENDBRANCH   1  20
TORSDOF 2
