REMARK  Name = CHEMBL370817
REMARK  6 active torsions:
REMARK  status: ('A' for Active; 'I' for Inactive)
REMARK    1  A    between atoms: C_1  and  C_2
REMARK    2  A    between atoms: C_2  and  C_3
REMARK    3  A    between atoms: C_2  and  C_15
REMARK    4  A    between atoms: C_6  and  N_9
REMARK    5  A    between atoms: N_17  and  C_18
REMARK    6  A    between atoms: C_20  and  C_24
REMARK                            x       y       z     vdW  Elec       q    Type
REMARK                         _______ _______ _______ _____ _____    ______ ____
ROOT
ATOM      1  C   UNL     1      -0.019   1.526   0.010  0.00  0.00    +0.022 C 
ATOM      2  C   UNL     1       0.002  -0.004   0.002  0.00  0.00    +0.102 C 
ENDROOT
BRANCH   2   3
ATOM      3  C   UNL     1       0.707  -0.490  -1.238  0.00  0.00    -0.036 A 
ATOM      4  C   UNL     1       2.026  -0.141  -1.463  0.00  0.00    +0.006 A 
ATOM      5  C   UNL     1       2.675  -0.585  -2.599  0.00  0.00    +0.026 A 
ATOM      6  C   UNL     1       2.002  -1.382  -3.514  0.00  0.00    +0.052 A 
ATOM      7  C   UNL     1       0.678  -1.732  -3.285  0.00  0.00    +0.026 A 
ATOM      8  C   UNL     1       0.036  -1.289  -2.145  0.00  0.00    +0.006 A 
BRANCH   6   9
ATOM      9  N   UNL     1       2.659  -1.834  -4.668  0.00  0.00    -0.250 N 
ATOM     10  C   UNL     1       3.963  -1.566  -5.009  0.00  0.00    +0.230 A 
ATOM     11  N   UNL     1       4.227  -2.144  -6.137  0.00  0.00    -0.160 NA
ATOM     12  N   UNL     1       3.072  -2.816  -6.563  0.00  0.00    -0.227 N 
ATOM     13  C   UNL     1       2.120  -2.610  -5.630  0.00  0.00    +0.348 A 
ATOM     14  O   UNL     1       0.982  -3.044  -5.653  0.00  0.00    -0.245 OA
ATOM     15  H   UNL     1       2.977  -3.336  -7.376  0.00  0.00    +0.194 HD
ENDBRANCH   6   9
ENDBRANCH   2   3
BRANCH   2  16
ATOM     16  C   UNL     1       0.731  -0.503   1.223  0.00  0.00    +0.225 C 
ATOM     17  O   UNL     1       1.725  -1.187   1.099  0.00  0.00    -0.275 OA
ATOM     18  N   UNL     1       0.278  -0.191   2.453  0.00  0.00    -0.270 N 
ATOM     19  H   UNL     1      -0.517   0.356   2.553  0.00  0.00    +0.156 HD
BRANCH  18  20
ATOM     20  C   UNL     1       0.952  -0.653   3.583  0.00  0.00    +0.121 A 
ATOM     21  C   UNL     1       2.074  -1.423   3.591  0.00  0.00    +0.068 A 
ATOM     22  C   UNL     1       2.422  -1.659   4.924  0.00  0.00    +0.068 A 
ATOM     23  N   UNL     1       1.548  -1.058   5.689  0.00  0.00    -0.177 NA
ATOM     24  H   UNL     1      -0.143   0.115   5.172  0.00  0.00    +0.190 HD
ATOM     25  N   UNL     1       0.614  -0.411   4.870  0.00  0.00    -0.264 N 
BRANCH  22  26
ATOM     26  C   UNL     1       3.601  -2.469   5.398  0.00  0.00    +0.040 C 
ATOM     27  C   UNL     1       4.274  -3.398   4.385  0.00  0.00    +0.010 C 
ATOM     28  C   UNL     1       3.419  -3.984   5.510  0.00  0.00    +0.010 C 
ENDBRANCH  22  26
ENDBRANCH  18  20
ENDBRANCH   2  16
TORSDOF 5
