REMARK  Name = CHEMBL93892
REMARK  12 active torsions:
REMARK  status: ('A' for Active; 'I' for Inactive)
REMARK    1  A    between atoms: C_1  and  C_2
REMARK    2  A    between atoms: C_2  and  C_3
REMARK    3  A    between atoms: C_2  and  N_4
REMARK    4  A    between atoms: C_12  and  N_13
REMARK    5  A    between atoms: N_13  and  C_14
REMARK    6  A    between atoms: C_17  and  C_20
REMARK    7  A    between atoms: N_26  and  C_27
REMARK    8  A    between atoms: N_26  and  C_30
REMARK    9  A    between atoms: C_27  and  C_28
REMARK   10  A    between atoms: C_28  and  O_29
REMARK   11  A    between atoms: C_30  and  C_31
REMARK   12  A    between atoms: C_31  and  O_32
REMARK                            x       y       z     vdW  Elec       q    Type
REMARK                         _______ _______ _______ _____ _____    ______ ____
ROOT
ATOM      1  N   UNL     1      -1.256  -0.843   0.168  0.00  0.00    -0.312 N 
ATOM      2  C   UNL     1      -2.137  -0.774   1.207  0.00  0.00    +0.201 A 
ATOM      3  N   UNL     1      -3.283  -1.276   0.852  0.00  0.00    -0.231 NA
ATOM      4  C   UNL     1      -3.211  -1.698  -0.435  0.00  0.00    +0.148 A 
ATOM      5  C   UNL     1      -1.912  -1.419  -0.890  0.00  0.00    +0.167 A 
ATOM      6  N   UNL     1      -1.581  -1.735  -2.138  0.00  0.00    -0.195 NA
ATOM      7  C   UNL     1      -2.463  -2.301  -2.946  0.00  0.00    +0.222 A 
ATOM      8  N   UNL     1      -3.701  -2.579  -2.559  0.00  0.00    -0.197 NA
ATOM      9  C   UNL     1      -4.113  -2.305  -1.326  0.00  0.00    +0.156 A 
ATOM     10  N   UNL     1      -2.080  -2.614  -4.240  0.00  0.00    -0.295 N 
ENDROOT
BRANCH   1  12
ATOM     11  C   UNL     1       0.170   1.119   0.484  0.00  0.00    +0.030 C 
ATOM     12  C   UNL     1       0.134  -0.380   0.178  0.00  0.00    +0.084 C 
ATOM     13  C   UNL     1       0.917  -1.138   1.252  0.00  0.00    +0.030 C 
ENDBRANCH   1  12
BRANCH   9  14
ATOM     14  N   UNL     1      -5.408  -2.597  -0.932  0.00  0.00    -0.298 N 
ATOM     15  H   UNL     1      -5.727  -2.308  -0.062  0.00  0.00    +0.154 HD
BRANCH  14  16
ATOM     16  C   UNL     1      -6.255  -3.306  -1.786  0.00  0.00    +0.032 A 
ATOM     17  C   UNL     1      -5.745  -4.333  -2.573  0.00  0.00    +0.024 A 
ATOM     18  C   UNL     1      -6.580  -5.035  -3.416  0.00  0.00    +0.010 A 
ATOM     19  C   UNL     1      -7.935  -4.715  -3.480  0.00  0.00    -0.018 A 
ATOM     20  C   UNL     1      -8.444  -3.685  -2.691  0.00  0.00    +0.010 A 
ATOM     21  C   UNL     1      -7.607  -2.989  -1.844  0.00  0.00    +0.024 A 
BRANCH  19  22
ATOM     22  C   UNL     1      -8.834  -5.468  -4.388  0.00  0.00    -0.018 A 
ATOM     23  C   UNL     1      -8.329  -6.502  -5.174  0.00  0.00    +0.008 A 
ATOM     24  C   UNL     1      -9.170  -7.200  -6.017  0.00  0.00    +0.001 A 
ATOM     25  C   UNL     1     -10.513  -6.875  -6.082  0.00  0.00    +0.000 A 
ATOM     26  C   UNL     1     -11.020  -5.850  -5.304  0.00  0.00    +0.001 A 
ATOM     27  C   UNL     1     -10.190  -5.149  -4.453  0.00  0.00    +0.008 A 
ENDBRANCH  19  22
ENDBRANCH  14  16
ENDBRANCH   9  14
BRANCH  10  28
ATOM     28  C   UNL     1      -3.037  -3.242  -5.155  0.00  0.00    +0.136 C 
BRANCH  28  29
ATOM     29  C   UNL     1      -3.801  -2.157  -5.916  0.00  0.00    +0.174 C 
BRANCH  29  30
ATOM     30  O   UNL     1      -2.896  -1.434  -6.753  0.00  0.00    -0.393 OA
ATOM     31  H   UNL     1      -3.312  -0.729  -7.267  0.00  0.00    +0.209 HD
ENDBRANCH  29  30
ENDBRANCH  28  29
ENDBRANCH  10  28
BRANCH  10  32
ATOM     32  C   UNL     1      -0.719  -2.318  -4.693  0.00  0.00    +0.136 C 
BRANCH  32  33
ATOM     33  C   UNL     1       0.186  -3.518  -4.408  0.00  0.00    +0.174 C 
BRANCH  33  34
ATOM     34  O   UNL     1      -0.240  -4.633  -5.194  0.00  0.00    -0.393 OA
ATOM     35  H   UNL     1       0.290  -5.431  -5.064  0.00  0.00    +0.209 HD
ENDBRANCH  33  34
ENDBRANCH  32  33
ENDBRANCH  10  32
TORSDOF 10
