REMARK  Name = CHEMBL344579
REMARK  5 active torsions:
REMARK  status: ('A' for Active; 'I' for Inactive)
REMARK    1  A    between atoms: C_9  and  C_14
REMARK    2  A    between atoms: C_10  and  O_13
REMARK    3  A    between atoms: N_15  and  C_16
REMARK    4  A    between atoms: C_19  and  S_22
REMARK    5  A    between atoms: S_22  and  N_25
REMARK                            x       y       z     vdW  Elec       q    Type
REMARK                         _______ _______ _______ _____ _____    ______ ____
ROOT
ATOM      1  C   UNL     1      -0.017   1.387   0.028  0.00  0.00    +0.020 A 
ATOM      2  C   UNL     1       1.161   2.084   0.015  0.00  0.00    +0.012 A 
ATOM      3  C   UNL     1       2.360   1.358  -0.002  0.00  0.00    +0.010 A 
ATOM      4  C   UNL     1       2.310  -0.058  -0.006  0.00  0.00    +0.072 A 
ATOM      5  C   UNL     1       3.515  -0.787  -0.024  0.00  0.00    +0.030 A 
ATOM      6  C   UNL     1       4.716  -0.158  -0.038  0.00  0.00    +0.028 A 
ATOM      7  C   UNL     1       4.818   1.239  -0.035  0.00  0.00    +0.051 A 
ATOM      8  C   UNL     1       3.658   2.017  -0.018  0.00  0.00    +0.021 A 
ATOM      9  C   UNL     1       4.098   3.419  -0.019  0.00  0.00    +0.062 A 
ATOM     10  C   UNL     1       5.486   3.389  -0.037  0.00  0.00    +0.200 A 
ATOM     11  N   UNL     1       5.902   2.097  -0.047  0.00  0.00    -0.325 N 
ATOM     12  H   UNL     1       6.830   1.815  -0.060  0.00  0.00    +0.169 HD
ATOM     13  N   UNL     1       1.128  -0.679   0.008  0.00  0.00    -0.255 NA
ATOM     14  C   UNL     1       0.002  -0.004   0.024  0.00  0.00    +0.111 A 
ENDROOT
BRANCH  10  15
ATOM     15  O   UNL     1       6.295   4.473  -0.044  0.00  0.00    -0.493 OA
ATOM     16  H   UNL     1       6.541   4.786   0.837  0.00  0.00    +0.294 HD
ENDBRANCH  10  15
BRANCH   9  17
ATOM     17  C   UNL     1       3.271   4.571  -0.004  0.00  0.00    +0.125 C 
ATOM     18  N   UNL     1       3.808   5.761   0.096  0.00  0.00    -0.255 NA
BRANCH  18  19
ATOM     19  C   UNL     1       3.010   6.872   0.110  0.00  0.00    +0.064 A 
ATOM     20  C   UNL     1       1.958   6.992  -0.800  0.00  0.00    +0.029 A 
ATOM     21  C   UNL     1       1.157   8.115  -0.780  0.00  0.00    +0.030 A 
ATOM     22  C   UNL     1       1.395   9.122   0.139  0.00  0.00    +0.105 A 
ATOM     23  C   UNL     1       2.436   9.010   1.044  0.00  0.00    +0.030 A 
ATOM     24  C   UNL     1       3.241   7.890   1.039  0.00  0.00    +0.029 A 
BRANCH  22  25
ATOM     25  S   UNL     1       0.368  10.554   0.157  0.00  0.00    +0.056 S 
ATOM     26  O   UNL     1       1.133  11.595   0.750  0.00  0.00    -0.153 OA
ATOM     27  O   UNL     1      -0.194  10.667  -1.143  0.00  0.00    -0.153 OA
BRANCH  25  28
ATOM     28  N   UNL     1      -0.888  10.242   1.190  0.00  0.00    -0.204 NA
ATOM     29  H   UNL     1      -0.941   9.387   1.646  0.00  0.00    +0.144 HD
ATOM     30  H   UNL     1      -1.572  10.914   1.339  0.00  0.00    +0.144 HD
ENDBRANCH  25  28
ENDBRANCH  22  25
ENDBRANCH  18  19
ENDBRANCH   9  17
TORSDOF 5
