REMARK  Name = CHEMBL1081438
REMARK  8 active torsions:
REMARK  status: ('A' for Active; 'I' for Inactive)
REMARK    1  A    between atoms: C_4  and  C_7
REMARK    2  A    between atoms: C_10  and  C_17
REMARK    3  A    between atoms: N_22  and  C_23
REMARK    4  A    between atoms: C_23  and  C_24
REMARK    5  A    between atoms: C_24  and  C_26
REMARK    6  A    between atoms: C_24  and  N_37
REMARK    7  A    between atoms: C_26  and  C_27
REMARK    8  A    between atoms: C_31  and  C_33
REMARK                            x       y       z     vdW  Elec       q    Type
REMARK                         _______ _______ _______ _____ _____    ______ ____
ROOT
ATOM      1  C   UNL     1       3.043  -4.928   2.736  0.00  0.00    +0.134 A 
ATOM      2  N   UNL     1       1.778  -4.861   3.129  0.00  0.00    -0.140 NA
ATOM      3  N   UNL     1       1.255  -5.755   3.848  0.00  0.00    -0.126 NA
ATOM      4  C   UNL     1       1.940  -6.817   4.255  0.00  0.00    +0.182 A 
ATOM      5  S   UNL     1       3.525  -6.475   3.497  0.00  0.00    -0.031 S 
ATOM      6  N   UNL     1       1.540  -7.888   5.039  0.00  0.00    -0.324 N 
ATOM      7  H   UNL     1       2.169  -8.595   5.251  0.00  0.00    +0.148 HD
ENDROOT
BRANCH   1  11
ATOM      8  C   UNL     1       3.698  -0.688  -0.038  0.00  0.00    +0.100 A 
ATOM      9  C   UNL     1       3.990  -1.963   0.626  0.00  0.00    +0.028 A 
ATOM     10  C   UNL     1       3.238  -2.837   1.412  0.00  0.00    +0.022 A 
ATOM     11  C   UNL     1       3.829  -3.994   1.902  0.00  0.00    +0.010 A 
ATOM     12  C   UNL     1       5.170  -4.279   1.606  0.00  0.00    +0.013 A 
ATOM     13  C   UNL     1       5.908  -3.428   0.839  0.00  0.00    +0.028 A 
ATOM     14  C   UNL     1       5.335  -2.260   0.337  0.00  0.00    +0.066 A 
ATOM     15  N   UNL     1       5.810  -1.237  -0.443  0.00  0.00    -0.276 N 
ATOM     16  H   UNL     1       6.711  -1.172  -0.796  0.00  0.00    +0.189 HD
ATOM     17  N   UNL     1       4.790  -0.304  -0.654  0.00  0.00    -0.173 NA
BRANCH   8  21
ATOM     18  C   UNL     1      -0.017   1.379   0.010  0.00  0.00    +0.000 A 
ATOM     19  C   UNL     1       1.169   2.092   0.002  0.00  0.00    +0.001 A 
ATOM     20  C   UNL     1       2.377   1.427  -0.013  0.00  0.00    +0.010 A 
ATOM     21  C   UNL     1       2.403   0.033  -0.021  0.00  0.00    +0.003 A 
ATOM     22  C   UNL     1       1.205  -0.680  -0.013  0.00  0.00    +0.010 A 
ATOM     23  C   UNL     1       0.002  -0.004   0.002  0.00  0.00    +0.001 A 
ENDBRANCH   8  21
ENDBRANCH   1  11
BRANCH   6  24
ATOM     24  C   UNL     1       0.167  -7.952   5.547  0.00  0.00    +0.087 C 
BRANCH  24  25
ATOM     25  C   UNL     1      -0.011  -9.225   6.377  0.00  0.00    -0.053 C 
BRANCH  25  26
ATOM     26  N   UNL     1       1.008  -9.266   7.435  0.00  0.00    +0.381 N 
ATOM     27  H   UNL     1       0.906  -8.458   8.031  0.00  0.00    -0.090 HD
ATOM     28  H   UNL     1       0.891 -10.105   7.982  0.00  0.00    -0.090 HD
ATOM     29  H   UNL     1       1.927  -9.262   7.017  0.00  0.00    -0.090 HD
ENDBRANCH  25  26
BRANCH  25  30
ATOM     30  C   UNL     1      -1.404  -9.230   7.010  0.00  0.00    +0.020 C 
BRANCH  30  31
ATOM     31  C   UNL     1      -1.625 -10.538   7.726  0.00  0.00    -0.048 A 
ATOM     32  C   UNL     1      -2.175 -11.611   7.050  0.00  0.00    +0.003 A 
ATOM     33  C   UNL     1      -2.378 -12.810   7.707  0.00  0.00    +0.001 A 
ATOM     34  C   UNL     1      -2.031 -12.937   9.039  0.00  0.00    +0.012 A 
ATOM     35  C   UNL     1      -1.480 -11.864   9.714  0.00  0.00    +0.055 A 
ATOM     36  C   UNL     1      -1.273 -10.665   9.056  0.00  0.00    +0.016 A 
BRANCH  35  37
ATOM     37  C   UNL     1      -1.102 -12.001  11.166  0.00  0.00    +0.417 C 
ATOM     38  F   UNL     1      -1.401 -13.295  11.606  0.00  0.00    -0.166 F 
ATOM     39  F   UNL     1       0.268 -11.762  11.316  0.00  0.00    -0.166 F 
ATOM     40  F   UNL     1      -1.823 -11.073  11.926  0.00  0.00    -0.166 F 
ENDBRANCH  35  37
ENDBRANCH  30  31
ENDBRANCH  25  30
ENDBRANCH  24  25
ENDBRANCH   6  24
TORSDOF 8
