REMARK  Name = CHEMBL358390
REMARK  8 active torsions:
REMARK  status: ('A' for Active; 'I' for Inactive)
REMARK    1  A    between atoms: C_1  and  O_2
REMARK    2  A    between atoms: O_2  and  C_3
REMARK    3  A    between atoms: C_6  and  C_9
REMARK    4  A    between atoms: C_9  and  N_10
REMARK    5  A    between atoms: N_13  and  C_14
REMARK    6  A    between atoms: C_27  and  C_28
REMARK    7  A    between atoms: C_31  and  O_34
REMARK    8  A    between atoms: O_34  and  C_35
REMARK                            x       y       z     vdW  Elec       q    Type
REMARK                         _______ _______ _______ _____ _____    ______ ____
ROOT
ATOM      1  C   UNL     1       6.798  -4.185  -5.645  0.00  0.00    +0.046 A 
ATOM      2  C   UNL     1       6.242  -4.563  -6.863  0.00  0.00    +0.024 A 
ATOM      3  C   UNL     1       6.999  -5.248  -7.790  0.00  0.00    +0.002 A 
ATOM      4  C   UNL     1       8.320  -5.568  -7.521  0.00  0.00    +0.011 A 
ATOM      5  C   UNL     1       8.897  -5.200  -6.312  0.00  0.00    +0.015 A 
ATOM      6  C   UNL     1       8.134  -4.496  -5.363  0.00  0.00    +0.053 A 
ATOM      7  C   UNL     1       8.976  -4.222  -4.182  0.00  0.00    +0.200 C 
ATOM      8  O   UNL     1       8.630  -3.635  -3.174  0.00  0.00    -0.286 OA
ATOM      9  C   UNL     1      10.308  -4.785  -4.442  0.00  0.00    +0.075 A 
ATOM     10  C   UNL     1      10.262  -5.408  -5.768  0.00  0.00    +0.105 A 
ATOM     11  N   UNL     1      11.446  -5.916  -6.002  0.00  0.00    -0.173 NA
ATOM     12  H   UNL     1      13.205  -5.965  -4.831  0.00  0.00    +0.189 HD
ATOM     13  N   UNL     1      12.279  -5.686  -4.902  0.00  0.00    -0.276 N 
ATOM     14  C   UNL     1      11.593  -4.983  -3.956  0.00  0.00    +0.077 A 
ENDROOT
BRANCH   1  18
ATOM     15  N   UNL     1       4.164  -2.185  -4.207  0.00  0.00    -0.295 N 
ATOM     16  C   UNL     1       4.974  -2.762  -5.118  0.00  0.00    +0.304 C 
ATOM     17  O   UNL     1       4.751  -2.621  -6.305  0.00  0.00    -0.252 OA
ATOM     18  N   UNL     1       6.030  -3.494  -4.712  0.00  0.00    -0.269 N 
ATOM     19  H   UNL     1       4.341  -2.297  -3.260  0.00  0.00    +0.151 HD
ATOM     20  H   UNL     1       6.256  -3.539  -3.769  0.00  0.00    +0.156 HD
BRANCH  15  21
ATOM     21  C   UNL     1       3.015  -1.390  -4.649  0.00  0.00    +0.141 C 
BRANCH  21  25
ATOM     22  C   UNL     1       0.926   0.110  -1.236  0.00  0.00    +0.120 A 
ATOM     23  C   UNL     1       1.953   0.851  -1.803  0.00  0.00    +0.046 A 
ATOM     24  C   UNL     1       2.627   0.364  -2.906  0.00  0.00    +0.009 A 
ATOM     25  C   UNL     1       2.279  -0.861  -3.445  0.00  0.00    -0.030 A 
ATOM     26  C   UNL     1       1.256  -1.601  -2.882  0.00  0.00    +0.009 A 
ATOM     27  C   UNL     1       0.583  -1.121  -1.775  0.00  0.00    +0.046 A 
BRANCH  22  29
ATOM     28  C   UNL     1       0.669   1.862   0.351  0.00  0.00    +0.277 C 
ATOM     29  O   UNL     1       0.262   0.587  -0.150  0.00  0.00    -0.495 OA
ENDBRANCH  22  29
ENDBRANCH  21  25
ENDBRANCH  15  21
ENDBRANCH   1  18
BRANCH  14  30
ATOM     30  C   UNL     1      12.111  -4.542  -2.647  0.00  0.00    +0.001 A 
ATOM     31  C   UNL     1      11.837  -3.252  -2.183  0.00  0.00    +0.013 A 
ATOM     32  C   UNL     1      12.323  -2.844  -0.961  0.00  0.00    +0.046 A 
ATOM     33  C   UNL     1      13.085  -3.712  -0.189  0.00  0.00    +0.120 A 
ATOM     34  C   UNL     1      13.361  -4.995  -0.647  0.00  0.00    +0.046 A 
ATOM     35  C   UNL     1      12.873  -5.414  -1.865  0.00  0.00    +0.013 A 
BRANCH  33  36
ATOM     36  O   UNL     1      13.563  -3.306   1.015  0.00  0.00    -0.495 OA
ATOM     37  C   UNL     1      14.339  -4.249   1.757  0.00  0.00    +0.277 C 
ENDBRANCH  33  36
ENDBRANCH  14  30
TORSDOF 6
