REMARK  Name = CHEMBL251796
REMARK  7 active torsions:
REMARK  status: ('A' for Active; 'I' for Inactive)
REMARK    1  A    between atoms: C_1  and  C_2
REMARK    2  A    between atoms: C_5  and  S_22
REMARK    3  A    between atoms: C_7  and  C_8
REMARK    4  A    between atoms: C_16  and  C_18
REMARK    5  A    between atoms: C_18  and  C_20
REMARK    6  A    between atoms: C_18  and  N_21
REMARK    7  A    between atoms: S_22  and  C_23
REMARK                            x       y       z     vdW  Elec       q    Type
REMARK                         _______ _______ _______ _____ _____    ______ ____
ROOT
ATOM      1  C   UNL     1      -0.942   0.392   0.671  0.00  0.00    +0.044 C 
ATOM      2  C   UNL     1      -0.626  -1.071   0.846  0.00  0.00    -0.038 A 
ATOM      3  C   UNL     1      -0.817  -1.948  -0.203  0.00  0.00    +0.005 A 
ATOM      4  C   UNL     1      -0.529  -3.291  -0.048  0.00  0.00    +0.015 A 
ATOM      5  C   UNL     1      -0.046  -3.767   1.167  0.00  0.00    +0.014 A 
ATOM      6  C   UNL     1       0.148  -2.893   2.227  0.00  0.00    +0.028 A 
ATOM      7  C   UNL     1      -0.136  -1.537   2.067  0.00  0.00    +0.041 A 
ENDROOT
BRANCH   7   8
ATOM      8  C   UNL     1       0.074  -0.598   3.189  0.00  0.00    +0.247 C 
ATOM      9  O   UNL     1      -0.841   0.102   3.576  0.00  0.00    -0.270 OA
ATOM     10  N   UNL     1       1.281  -0.518   3.784  0.00  0.00    -0.295 N 
ATOM     11  C   UNL     1       2.372  -1.419   3.386  0.00  0.00    +0.127 C 
ATOM     12  C   UNL     1       3.587  -0.572   2.989  0.00  0.00    +0.126 C 
ATOM     13  N   UNL     1       3.835   0.418   4.046  0.00  0.00    -0.300 N 
ATOM     14  C   UNL     1       2.744   1.319   4.444  0.00  0.00    +0.126 C 
ATOM     15  C   UNL     1       1.531   0.475   4.838  0.00  0.00    +0.127 C 
ATOM     16  C   UNL     1       5.042   0.498   4.641  0.00  0.00    +0.201 C 
ATOM     17  O   UNL     1       5.210   1.256   5.572  0.00  0.00    -0.277 OA
BRANCH  16  18
ATOM     18  C   UNL     1       6.183  -0.356   4.149  0.00  0.00    +0.010 C 
ATOM     19  C   UNL     1       6.744   0.240   2.856  0.00  0.00    -0.005 C 
BRANCH  18  20
ATOM     20  N   UNL     1       7.239  -0.397   5.169  0.00  0.00    +0.385 N 
ATOM     21  H   UNL     1       6.869  -0.789   6.021  0.00  0.00    -0.089 HD
ATOM     22  H   UNL     1       8.003  -0.968   4.839  0.00  0.00    -0.089 HD
ATOM     23  H   UNL     1       7.572   0.539   5.346  0.00  0.00    -0.089 HD
ENDBRANCH  18  20
ENDBRANCH  16  18
ENDBRANCH   7   8
BRANCH   5  24
ATOM     24  S   UNL     1       0.317  -5.481   1.359  0.00  0.00    -0.081 S 
BRANCH  24  25
ATOM     25  C   UNL     1      -1.232  -6.199   1.795  0.00  0.00    +0.071 A 
ATOM     26  C   UNL     1      -1.526  -7.479   2.155  0.00  0.00    +0.135 A 
ATOM     27  N   UNL     1      -2.772  -7.805   2.445  0.00  0.00    -0.232 NA
ATOM     28  C   UNL     1      -3.744  -6.912   2.394  0.00  0.00    +0.164 A 
ATOM     29  S   UNL     1      -2.851  -5.447   1.896  0.00  0.00    -0.045 S 
ATOM     30  N   UNL     1      -5.099  -7.070   2.662  0.00  0.00    -0.279 N 
ATOM     31  C   UNL     1      -5.576  -8.281   3.151  0.00  0.00    +0.126 A 
ATOM     32  C   UNL     1      -6.945  -8.470   3.311  0.00  0.00    +0.044 A 
ATOM     33  C   UNL     1      -7.405  -9.680   3.798  0.00  0.00    +0.006 A 
ATOM     34  C   UNL     1      -6.478 -10.665   4.110  0.00  0.00    +0.035 A 
ATOM     35  C   UNL     1      -5.133 -10.410   3.926  0.00  0.00    +0.108 A 
ATOM     36  N   UNL     1      -4.722  -9.247   3.455  0.00  0.00    -0.225 NA
ATOM     37 BR   UNL     1      -3.863 -11.747   4.349  0.00  0.00    -0.029 Br
ATOM     38  H   UNL     1      -5.713  -6.334   2.507  0.00  0.00    +0.155 HD
ENDBRANCH  24  25
ENDBRANCH   5  24
TORSDOF 5
