REMARK  Name = CHEMBL325023
REMARK  6 active torsions:
REMARK  status: ('A' for Active; 'I' for Inactive)
REMARK    1  A    between atoms: C_1  and  C_2
REMARK    2  A    between atoms: C_3  and  C_8
REMARK    3  A    between atoms: C_5  and  C_7
REMARK    4  A    between atoms: C_18  and  N_22
REMARK    5  A    between atoms: N_25  and  N_26
REMARK    6  A    between atoms: N_29  and  C_32
REMARK                            x       y       z     vdW  Elec       q    Type
REMARK                         _______ _______ _______ _____ _____    ______ ____
ROOT
ATOM      1  C   UNL     1       0.015  -0.225  -2.586  0.00  0.00    +0.112 A 
ATOM      2  C   UNL     1       0.011  -1.043  -3.743  0.00  0.00    +0.076 A 
ATOM      3  C   UNL     1       0.002  -0.198  -4.846  0.00  0.00    +0.078 A 
ATOM      4  N   UNL     1       0.001   1.070  -4.380  0.00  0.00    -0.276 N 
ATOM      5  H   UNL     1      -0.005   1.872  -4.925  0.00  0.00    +0.189 HD
ATOM      6  N   UNL     1       0.003   1.033  -2.982  0.00  0.00    -0.172 NA
ATOM      7  C   UNL     1      -0.002  -1.019  -6.080  0.00  0.00    +0.013 A 
ATOM      8  C   UNL     1      -0.010  -0.677  -7.424  0.00  0.00    +0.011 A 
ATOM      9  C   UNL     1      -0.012  -1.668  -8.397  0.00  0.00    +0.002 A 
ATOM     10  C   UNL     1      -0.006  -2.998  -8.042  0.00  0.00    +0.024 A 
ATOM     11  C   UNL     1       0.002  -3.365  -6.694  0.00  0.00    +0.046 A 
ATOM     12  C   UNL     1       0.005  -2.377  -5.710  0.00  0.00    +0.053 A 
ATOM     13  C   UNL     1       0.013  -2.436  -4.231  0.00  0.00    +0.200 C 
ATOM     14  O   UNL     1       0.020  -3.441  -3.547  0.00  0.00    -0.286 OA
ENDROOT
BRANCH   1  17
ATOM     15  C   UNL     1       0.012   1.530  -0.017  0.00  0.00    +0.067 C 
ATOM     16  C   UNL     1       0.023   0.023  -0.018  0.00  0.00    +0.055 A 
ATOM     17  C   UNL     1       0.024  -0.697  -1.187  0.00  0.00    +0.063 A 
ATOM     18  S   UNL     1       0.039  -2.363  -0.545  0.00  0.00    -0.070 S 
ATOM     19  C   UNL     1       0.043  -1.979   1.094  0.00  0.00    +0.076 A 
ATOM     20  N   UNL     1       0.038  -0.668   1.099  0.00  0.00    -0.249 NA
ATOM     21  C   UNL     1       0.054  -2.918   2.273  0.00  0.00    +0.073 C 
ENDBRANCH   1  17
BRANCH  11  22
ATOM     22  N   UNL     1       0.007  -4.709  -6.336  0.00  0.00    -0.268 N 
ATOM     23  C   UNL     1      -0.660  -5.609  -7.085  0.00  0.00    +0.318 C 
ATOM     24  O   UNL     1      -1.197  -5.261  -8.119  0.00  0.00    -0.251 OA
ATOM     25  N   UNL     1      -0.731  -6.895  -6.689  0.00  0.00    -0.232 N 
ATOM     26  H   UNL     1       0.490  -4.999  -5.546  0.00  0.00    +0.156 HD
ATOM     27  H   UNL     1      -1.211  -7.543  -7.229  0.00  0.00    +0.171 HD
BRANCH  25  28
ATOM     28  N   UNL     1      -0.128  -7.287  -5.528  0.00  0.00    -0.229 NA
ATOM     29  C   UNL     1       0.945  -8.256  -5.793  0.00  0.00    +0.087 C 
ATOM     30  C   UNL     1       1.634  -8.623  -4.476  0.00  0.00    -0.062 C 
ATOM     31  N   UNL     1       0.648  -9.199  -3.553  0.00  0.00    +0.380 N 
ATOM     32  C   UNL     1      -0.404  -8.211  -3.278  0.00  0.00    -0.062 C 
ATOM     33  C   UNL     1      -1.109  -7.841  -4.585  0.00  0.00    +0.087 C 
ATOM     34  C   UNL     1       1.312  -9.568  -2.295  0.00  0.00    -0.096 C 
ATOM     35  H   UNL     1       0.237 -10.021  -3.969  0.00  0.00    -0.082 HD
ENDBRANCH  25  28
ENDBRANCH  11  22
TORSDOF 3
