REMARK  Name = CHEMBL446409
REMARK  6 active torsions:
REMARK  status: ('A' for Active; 'I' for Inactive)
REMARK    1  A    between atoms: C_3  and  C_24
REMARK    2  A    between atoms: C_9  and  O_23
REMARK    3  A    between atoms: C_10  and  N_11
REMARK    4  A    between atoms: N_12  and  C_13
REMARK    5  A    between atoms: C_16  and  S_19
REMARK    6  A    between atoms: S_19  and  N_22
REMARK                            x       y       z     vdW  Elec       q    Type
REMARK                         _______ _______ _______ _____ _____    ______ ____
ROOT
ATOM      1  C   UNL     1       2.613   4.219  -1.400  0.00  0.00    +0.003 A 
ATOM      2  C   UNL     1       3.933   3.873  -1.627  0.00  0.00    +0.011 A 
ATOM      3  C   UNL     1       4.415   2.638  -1.199  0.00  0.00    +0.011 A 
ATOM      4  C   UNL     1       3.549   1.752  -0.538  0.00  0.00    +0.040 A 
ATOM      5  C   UNL     1       2.213   2.113  -0.313  0.00  0.00    +0.052 A 
ATOM      6  C   UNL     1       1.757   3.353  -0.750  0.00  0.00    +0.026 A 
ATOM      7  N   UNL     1       1.596   1.066   0.349  0.00  0.00    -0.324 N 
ATOM      8  H   UNL     1       0.666   1.057   0.626  0.00  0.00    +0.169 HD
ATOM      9  C   UNL     1       2.478   0.052   0.558  0.00  0.00    +0.219 A 
ATOM     10  C   UNL     1       3.713   0.405   0.034  0.00  0.00    +0.155 A 
ENDROOT
BRANCH   3  11
ATOM     11  C   UNL     1       5.824   2.264  -1.440  0.00  0.00    +0.066 A 
ATOM     12  C   UNL     1       6.553   2.515  -2.581  0.00  0.00    +0.049 A 
ATOM     13  C   UNL     1       7.833   1.995  -2.387  0.00  0.00    +0.135 A 
ATOM     14  N   UNL     1       7.891   1.455  -1.197  0.00  0.00    -0.182 NA
ATOM     15  H   UNL     1       6.414   1.307   0.320  0.00  0.00    +0.189 HD
ATOM     16  N   UNL     1       6.648   1.611  -0.571  0.00  0.00    -0.277 N 
ENDBRANCH   3  11
BRANCH  10  17
ATOM     17  N   UNL     1       4.840  -0.338   0.046  0.00  0.00    -0.143 NA
ATOM     18  N   UNL     1       5.427  -0.636  -1.063  0.00  0.00    -0.149 NA
BRANCH  18  19
ATOM     19  C   UNL     1       4.747  -0.537  -2.245  0.00  0.00    +0.086 A 
ATOM     20  C   UNL     1       5.433  -0.247  -3.428  0.00  0.00    +0.031 A 
ATOM     21  C   UNL     1       4.741  -0.149  -4.616  0.00  0.00    +0.030 A 
ATOM     22  C   UNL     1       3.370  -0.337  -4.640  0.00  0.00    +0.105 A 
ATOM     23  C   UNL     1       2.684  -0.623  -3.473  0.00  0.00    +0.030 A 
ATOM     24  C   UNL     1       3.364  -0.731  -2.278  0.00  0.00    +0.031 A 
BRANCH  22  25
ATOM     25  S   UNL     1       2.494  -0.209  -6.163  0.00  0.00    +0.056 S 
ATOM     26  O   UNL     1       1.149   0.113  -5.833  0.00  0.00    -0.153 OA
ATOM     27  O   UNL     1       3.284   0.605  -7.019  0.00  0.00    -0.153 OA
BRANCH  25  28
ATOM     28  N   UNL     1       2.465  -1.720  -6.840  0.00  0.00    -0.204 NA
ATOM     29  H   UNL     1       2.890  -2.463  -6.384  0.00  0.00    +0.144 HD
ATOM     30  H   UNL     1       2.024  -1.861  -7.692  0.00  0.00    +0.144 HD
ENDBRANCH  25  28
ENDBRANCH  22  25
ENDBRANCH  18  19
ENDBRANCH  10  17
BRANCH   9  31
ATOM     31  O   UNL     1       2.195  -1.116   1.179  0.00  0.00    -0.492 OA
ATOM     32  H   UNL     1       1.809  -1.786   0.599  0.00  0.00    +0.294 HD
ENDBRANCH   9  31
TORSDOF 6
