REMARK  Name = CHEMBL430434
REMARK  8 active torsions:
REMARK  status: ('A' for Active; 'I' for Inactive)
REMARK    1  A    between atoms: C_3  and  C_7
REMARK    2  A    between atoms: C_7  and  N_8
REMARK    3  A    between atoms: C_9  and  C_11
REMARK    4  A    between atoms: C_17  and  N_22
REMARK    5  A    between atoms: C_18  and  O_21
REMARK    6  A    between atoms: N_23  and  C_24
REMARK    7  A    between atoms: C_27  and  S_30
REMARK    8  A    between atoms: S_30  and  N_33
REMARK                            x       y       z     vdW  Elec       q    Type
REMARK                         _______ _______ _______ _____ _____    ______ ____
ROOT
ATOM      1  C   UNL     1       5.763   3.114   2.982  0.00  0.00    +0.037 A 
ATOM      2  C   UNL     1       4.972   2.677   4.053  0.00  0.00    +0.015 A 
ATOM      3  C   UNL     1       5.375   2.878   5.341  0.00  0.00    +0.027 A 
ATOM      4  C   UNL     1       6.581   3.521   5.608  0.00  0.00    +0.051 A 
ATOM      5  C   UNL     1       7.382   3.964   4.541  0.00  0.00    +0.031 A 
ATOM      6  C   UNL     1       6.975   3.755   3.229  0.00  0.00    +0.025 A 
ATOM      7  C   UNL     1       8.569   4.593   5.152  0.00  0.00    +0.154 A 
ATOM      8  C   UNL     1       8.400   4.486   6.523  0.00  0.00    +0.219 A 
ATOM      9  N   UNL     1       7.224   3.852   6.784  0.00  0.00    -0.324 N 
ATOM     10  H   UNL     1       6.885   3.660   7.672  0.00  0.00    +0.169 HD
ENDROOT
BRANCH   1  12
ATOM     11  N   UNL     1       4.141   2.271   1.355  0.00  0.00    -0.307 N 
ATOM     12  C   UNL     1       5.314   2.890   1.593  0.00  0.00    +0.244 C 
ATOM     13  O   UNL     1       6.003   3.265   0.664  0.00  0.00    -0.270 OA
ATOM     14  H   UNL     1       3.592   1.972   2.096  0.00  0.00    +0.149 HD
BRANCH  11  15
ATOM     15  C   UNL     1       3.696   2.049  -0.023  0.00  0.00    +0.141 C 
BRANCH  15  18
ATOM     16  C   UNL     1      -0.017   1.378   0.010  0.00  0.00    +0.020 A 
ATOM     17  C   UNL     1       1.185   2.070   0.002  0.00  0.00    +0.008 A 
ATOM     18  C   UNL     1       2.365   1.343  -0.013  0.00  0.00    -0.012 A 
ATOM     19  C   UNL     1       2.305  -0.038  -0.020  0.00  0.00    +0.115 A 
ATOM     20  N   UNL     1       1.144  -0.663  -0.013  0.00  0.00    -0.263 NA
ATOM     21  C   UNL     1       0.002  -0.004   0.002  0.00  0.00    +0.111 A 
ENDBRANCH  15  18
ENDBRANCH  11  15
ENDBRANCH   1  12
BRANCH   8  22
ATOM     22  O   UNL     1       9.268   4.939   7.456  0.00  0.00    -0.492 OA
ATOM     23  H   UNL     1       9.103   5.849   7.737  0.00  0.00    +0.294 HD
ENDBRANCH   8  22
BRANCH   7  24
ATOM     24  N   UNL     1       9.609   5.158   4.506  0.00  0.00    -0.143 NA
ATOM     25  N   UNL     1      10.583   5.672   5.178  0.00  0.00    -0.149 NA
BRANCH  25  26
ATOM     26  C   UNL     1      11.638   6.246   4.522  0.00  0.00    +0.086 A 
ATOM     27  C   UNL     1      11.661   6.282   3.126  0.00  0.00    +0.031 A 
ATOM     28  C   UNL     1      12.728   6.862   2.472  0.00  0.00    +0.030 A 
ATOM     29  C   UNL     1      13.773   7.408   3.196  0.00  0.00    +0.105 A 
ATOM     30  C   UNL     1      13.757   7.376   4.579  0.00  0.00    +0.030 A 
ATOM     31  C   UNL     1      12.694   6.804   5.246  0.00  0.00    +0.031 A 
BRANCH  29  32
ATOM     32  S   UNL     1      15.132   8.147   2.352  0.00  0.00    +0.056 S 
ATOM     33  O   UNL     1      16.238   8.098   3.242  0.00  0.00    -0.153 OA
ATOM     34  O   UNL     1      15.170   7.565   1.056  0.00  0.00    -0.153 OA
BRANCH  32  35
ATOM     35  N   UNL     1      14.764   9.748   2.140  0.00  0.00    -0.204 NA
ATOM     36  H   UNL     1      15.474  10.409   2.111  0.00  0.00    +0.144 HD
ATOM     37  H   UNL     1      13.840  10.025   2.046  0.00  0.00    +0.144 HD
ENDBRANCH  32  35
ENDBRANCH  29  32
ENDBRANCH  25  26
ENDBRANCH   7  24
TORSDOF 8
