REMARK  Name = CHEMBL58224
REMARK  2 active torsions:
REMARK  status: ('A' for Active; 'I' for Inactive)
REMARK    1  A    between atoms: C_3  and  C_23
REMARK    2  A    between atoms: C_11  and  C_12
REMARK                            x       y       z     vdW  Elec       q    Type
REMARK                         _______ _______ _______ _____ _____    ______ ____
ROOT
ATOM      1  C   UNL     1      -0.124   1.787  -0.161  0.00  0.00    +0.002 A 
ATOM      2  C   UNL     1       1.118   2.401  -0.177  0.00  0.00    +0.004 A 
ATOM      3  C   UNL     1       2.267   1.637  -0.161  0.00  0.00    -0.035 A 
ATOM      4  C   UNL     1       2.173   0.250  -0.128  0.00  0.00    +0.012 A 
ATOM      5  C   UNL     1       0.919  -0.375  -0.112  0.00  0.00    +0.042 A 
ATOM      6  C   UNL     1      -0.228   0.412  -0.129  0.00  0.00    +0.024 A 
ATOM      7  N   UNL     1       1.096  -1.753  -0.080  0.00  0.00    -0.281 N 
ATOM      8  C   UNL     1       2.399  -2.079  -0.074  0.00  0.00    +0.249 C 
ATOM      9  O   UNL     1       2.854  -3.209  -0.048  0.00  0.00    -0.270 OA
ATOM     10  C   UNL     1       3.180  -0.835  -0.104  0.00  0.00    +0.048 C 
ATOM     11  C   UNL     1       4.554  -0.706  -0.109  0.00  0.00    +0.039 C 
ATOM     12  H   UNL     1       0.370  -2.397  -0.063  0.00  0.00    +0.155 HD
ENDROOT
BRANCH  11  13
ATOM     13  C   UNL     1       5.370  -1.848  -0.258  0.00  0.00    +0.044 A 
ATOM     14  C   UNL     1       6.588  -2.048   0.326  0.00  0.00    -0.006 A 
ATOM     15  C   UNL     1       7.045  -3.326  -0.102  0.00  0.00    +0.080 A 
ATOM     16  C   UNL     1       6.090  -3.853  -0.924  0.00  0.00    +0.098 A 
ATOM     17  N   UNL     1       5.075  -2.968  -1.018  0.00  0.00    -0.360 N 
ATOM     18  H   UNL     1       4.266  -3.096  -1.538  0.00  0.00    +0.165 HD
ATOM     19  C   UNL     1       8.353  -3.839   0.356  0.00  0.00    +0.341 C 
ATOM     20  O   UNL     1       8.716  -4.984   0.173  0.00  0.00    -0.245 OA
ATOM     21  O   UNL     1       9.119  -2.910   1.003  0.00  0.00    -0.461 OA
ATOM     22  C   UNL     1       8.439  -2.082   1.951  0.00  0.00    +0.237 C 
ATOM     23  C   UNL     1       7.404  -1.188   1.255  0.00  0.00    +0.079 C 
ENDBRANCH  11  13
BRANCH   3  24
ATOM     24  C   UNL     1       3.619   2.304  -0.179  0.00  0.00    +0.016 C 
ATOM     25  C   UNL     1       3.697   3.334   0.952  0.00  0.00    -0.011 C 
ATOM     26  C   UNL     1       5.040   4.063   0.879  0.00  0.00    -0.082 C 
ATOM     27  N   UNL     1       5.162   4.745  -0.416  0.00  0.00    +0.379 N 
ATOM     28  C   UNL     1       5.160   3.756  -1.501  0.00  0.00    -0.082 C 
ATOM     29  C   UNL     1       3.821   3.016  -1.520  0.00  0.00    -0.011 C 
ATOM     30  H   UNL     1       4.384   5.376  -0.536  0.00  0.00    -0.086 HD
ATOM     31  H   UNL     1       6.024   5.267  -0.440  0.00  0.00    -0.086 HD
ENDBRANCH   3  24
TORSDOF 2
