REMARK  Name = CHEMBL495557
REMARK  9 active torsions:
REMARK  status: ('A' for Active; 'I' for Inactive)
REMARK    1  A    between atoms: C_1  and  C_2
REMARK    2  A    between atoms: C_2  and  C_3
REMARK    3  A    between atoms: C_2  and  C_4
REMARK    4  A    between atoms: C_2  and  C_5
REMARK    5  A    between atoms: C_8  and  C_10
REMARK    6  A    between atoms: C_10  and  S_11
REMARK    7  A    between atoms: S_11  and  C_12
REMARK    8  A    between atoms: N_17  and  C_18
REMARK    9  A    between atoms: C_21  and  O_24
REMARK                            x       y       z     vdW  Elec       q    Type
REMARK                         _______ _______ _______ _____ _____    ______ ____
ROOT
ATOM      1  C   UNL     1       1.190  -4.819  -5.598  0.00  0.00    +0.067 A 
ATOM      2  C   UNL     1       1.371  -6.125  -5.931  0.00  0.00    +0.135 A 
ATOM      3  N   UNL     1       1.133  -6.524  -7.169  0.00  0.00    -0.232 NA
ATOM      4  C   UNL     1       0.720  -5.676  -8.094  0.00  0.00    +0.159 A 
ATOM      5  S   UNL     1       0.640  -4.152  -7.164  0.00  0.00    -0.046 S 
ATOM      6  N   UNL     1       0.422  -5.909  -9.431  0.00  0.00    -0.321 N 
ATOM      7  H   UNL     1       0.126  -5.178  -9.996  0.00  0.00    +0.148 HD
ENDROOT
BRANCH   6   8
ATOM      8  C   UNL     1       0.554  -7.258  -9.987  0.00  0.00    +0.072 C 
ATOM      9  C   UNL     1       2.002  -7.491 -10.421  0.00  0.00    +0.025 C 
ATOM     10  C   UNL     1       2.140  -8.900 -11.002  0.00  0.00    +0.033 C 
ATOM     11  C   UNL     1       1.215  -9.046 -12.212  0.00  0.00    +0.115 C 
ATOM     12  C   UNL     1      -0.233  -8.812 -11.778  0.00  0.00    +0.033 C 
ATOM     13  C   UNL     1      -0.371  -7.404 -11.197  0.00  0.00    +0.025 C 
BRANCH  11  14
ATOM     14  O   UNL     1       1.344 -10.361 -12.754  0.00  0.00    -0.392 OA
ATOM     15  H   UNL     1       0.785 -10.525 -13.526  0.00  0.00    +0.210 HD
ENDBRANCH  11  14
ENDBRANCH   6   8
BRANCH   1  16
ATOM     16  S   UNL     1       1.424  -4.009  -4.051  0.00  0.00    -0.107 S 
BRANCH  16  17
ATOM     17  C   UNL     1       0.974  -2.284  -4.386  0.00  0.00    +0.170 C 
BRANCH  17  21
ATOM     18  C   UNL     1       0.707  -0.490  -1.238  0.00  0.00    +0.131 A 
ATOM     19  C   UNL     1       1.979  -0.232  -1.585  0.00  0.00    +0.156 A 
ATOM     20  N   UNL     1       2.215  -0.849  -2.757  0.00  0.00    -0.221 NA
ATOM     21  C   UNL     1       1.132  -1.470  -3.128  0.00  0.00    +0.206 A 
ATOM     22  O   UNL     1       0.183  -1.270  -2.203  0.00  0.00    -0.443 OA
BRANCH  18  24
ATOM     23  C   UNL     1      -0.019   1.526   0.010  0.00  0.00    +0.019 C 
ATOM     24  C   UNL     1       0.002  -0.004   0.002  0.00  0.00    +0.022 C 
ATOM     25  C   UNL     1       0.742  -0.511   1.242  0.00  0.00    +0.019 C 
ATOM     26  C   UNL     1      -1.433  -0.534   0.013  0.00  0.00    +0.019 C 
ENDBRANCH  18  24
ENDBRANCH  17  21
ENDBRANCH  16  17
ENDBRANCH   1  16
TORSDOF 6
