REMARK  Name = CHEMBL179599
REMARK  3 active torsions:
REMARK  status: ('A' for Active; 'I' for Inactive)
REMARK    1  A    between atoms: C_3  and  N_12
REMARK    2  A    between atoms: C_6  and  C_7
REMARK    3  A    between atoms: C_23  and  C_25
REMARK                            x       y       z     vdW  Elec       q    Type
REMARK                         _______ _______ _______ _____ _____    ______ ____
ROOT
ATOM      1  N   UNL     1       3.582   2.134  -0.022  0.00  0.00    -0.231 N 
ATOM      2  C   UNL     1       4.698   1.780   0.687  0.00  0.00    +0.086 A 
ATOM      3  C   UNL     1       5.668   2.753   0.403  0.00  0.00    +0.033 A 
ATOM      4  C   UNL     1       6.939   2.679   0.980  0.00  0.00    +0.014 A 
ATOM      5  C   UNL     1       7.251   1.660   1.826  0.00  0.00    +0.028 A 
ATOM      6  C   UNL     1       6.306   0.674   2.130  0.00  0.00    +0.068 A 
ATOM      7  C   UNL     1       5.022   0.726   1.562  0.00  0.00    +0.045 A 
ATOM      8  C   UNL     1       4.308  -0.390   2.053  0.00  0.00    +0.144 A 
ATOM      9  N   UNL     1       5.086  -1.065   2.850  0.00  0.00    -0.181 NA
ATOM     10  N   UNL     1       6.336  -0.441   2.927  0.00  0.00    -0.277 N 
ATOM     11  H   UNL     1       7.093  -0.745   3.453  0.00  0.00    +0.189 HD
ATOM     12  C   UNL     1       4.998   3.677  -0.523  0.00  0.00    +0.155 A 
ATOM     13  N   UNL     1       3.781   3.206  -0.700  0.00  0.00    -0.161 NA
ENDROOT
BRANCH   1  16
ATOM     14  C   UNL     1       0.675   0.248   1.200  0.00  0.00    +0.013 A 
ATOM     15  C   UNL     1       1.858   0.954   1.189  0.00  0.00    +0.028 A 
ATOM     16  C   UNL     1       2.381   1.417  -0.013  0.00  0.00    +0.066 A 
ATOM     17  C   UNL     1       1.713   1.169  -1.207  0.00  0.00    +0.028 A 
ATOM     18  C   UNL     1       0.529   0.463  -1.202  0.00  0.00    +0.013 A 
ATOM     19  C   UNL     1       0.001  -0.003   0.004  0.00  0.00    +0.017 A 
BRANCH  19  20
ATOM     20  C   UNL     1      -1.268  -0.760   0.013  0.00  0.00    +0.138 A 
ATOM     21  N   UNL     1      -1.868  -1.245   1.078  0.00  0.00    -0.236 NA
ATOM     22  C   UNL     1      -2.991  -1.870   0.706  0.00  0.00    +0.130 A 
ATOM     23  C   UNL     1      -3.106  -1.777  -0.635  0.00  0.00    +0.104 A 
ATOM     24  N   UNL     1      -2.021  -1.071  -1.082  0.00  0.00    -0.344 N 
ATOM     25  H   UNL     1      -1.824  -0.838  -2.003  0.00  0.00    +0.167 HD
ENDBRANCH  19  20
ENDBRANCH   1  16
BRANCH  12  26
ATOM     26  C   UNL     1       5.575   4.887  -1.136  0.00  0.00    +0.262 C 
ATOM     27  O   UNL     1       6.721   5.207  -0.887  0.00  0.00    -0.269 OA
ATOM     28  N   UNL     1       4.831   5.639  -1.971  0.00  0.00    -0.324 N 
ATOM     29  H   UNL     1       3.917   5.384  -2.170  0.00  0.00    +0.145 HD
ATOM     30  H   UNL     1       5.211   6.435  -2.374  0.00  0.00    +0.145 HD
ENDBRANCH  12  26
TORSDOF 3
