REMARK  Name = CHEMBL340741
REMARK  4 active torsions:
REMARK  status: ('A' for Active; 'I' for Inactive)
REMARK    1  A    between atoms: C_1  and  C_2
REMARK    2  A    between atoms: C_8  and  S_10
REMARK    3  A    between atoms: S_10  and  C_11
REMARK    4  A    between atoms: C_11  and  C_12
REMARK                            x       y       z     vdW  Elec       q    Type
REMARK                         _______ _______ _______ _____ _____    ______ ____
ROOT
ATOM      1  C   UNL     1      -0.018   1.503   0.010  0.00  0.00    +0.109 C 
ATOM      2  C   UNL     1       0.002  -0.004   0.002  0.00  0.00    +0.216 C 
ATOM      3  O   UNL     1       0.020  -0.616   1.049  0.00  0.00    -0.276 OA
ATOM      4  N   UNL     1       0.000  -0.672  -1.169  0.00  0.00    -0.265 N 
ATOM      5  C   UNL     1       0.019  -2.064  -1.177  0.00  0.00    +0.165 A 
ATOM      6  N   UNL     1       0.034  -2.905  -0.160  0.00  0.00    -0.232 NA
ATOM      7  C   UNL     1       0.051  -4.212  -0.351  0.00  0.00    +0.135 A 
ATOM      8  C   UNL     1       0.053  -4.706  -1.620  0.00  0.00    +0.067 A 
ATOM      9  S   UNL     1       0.021  -3.189  -2.566  0.00  0.00    -0.046 S 
ATOM     10  H   UNL     1      -0.015  -0.182  -2.006  0.00  0.00    +0.157 HD
ENDROOT
BRANCH   8  11
ATOM     11  S   UNL     1       0.074  -6.378  -2.176  0.00  0.00    -0.112 S 
BRANCH  11  12
ATOM     12  C   UNL     1       0.065  -6.239  -3.985  0.00  0.00    +0.111 C 
BRANCH  12  13
ATOM     13  C   UNL     1       0.082  -7.617  -4.594  0.00  0.00    -0.019 A 
ATOM     14  C   UNL     1       1.286  -8.245  -4.878  0.00  0.00    +0.007 A 
ATOM     15  C   UNL     1       1.253  -9.513  -5.438  0.00  0.00    +0.020 A 
ATOM     16  C   UNL     1       0.030 -10.104  -5.694  0.00  0.00    +0.111 A 
ATOM     17  N   UNL     1      -1.095  -9.477  -5.412  0.00  0.00    -0.263 NA
ATOM     18  C   UNL     1      -1.101  -8.274  -4.873  0.00  0.00    +0.115 A 
ENDBRANCH  12  13
ENDBRANCH  11  12
ENDBRANCH   8  11
TORSDOF 3
