REMARK  Name = CHEMBL563150
REMARK  4 active torsions:
REMARK  status: ('A' for Active; 'I' for Inactive)
REMARK    1  A    between atoms: C_1  and  N_2
REMARK    2  A    between atoms: C_5  and  C_7
REMARK    3  A    between atoms: N_9  and  C_10
REMARK    4  A    between atoms: N_24  and  C_25
REMARK                            x       y       z     vdW  Elec       q    Type
REMARK                         _______ _______ _______ _____ _____    ______ ____
ROOT
ATOM      1  C   UNL     1       0.083   1.851  -0.018  0.00  0.00    +0.173 C 
ATOM      2  N   UNL     1       0.291   0.402  -0.070  0.00  0.00    -0.264 N 
ATOM      3  C   UNL     1       0.406  -0.325  -1.198  0.00  0.00    +0.091 A 
ATOM      4  C   UNL     1       0.614  -1.633  -0.816  0.00  0.00    +0.012 A 
ATOM      5  C   UNL     1       0.590  -1.626   0.579  0.00  0.00    +0.151 A 
ATOM      6  N   UNL     1       0.398  -0.371   0.959  0.00  0.00    -0.166 NA
ATOM      7  C   UNL     1       0.828  -2.739  -1.807  0.00  0.00    +0.044 C 
ATOM      8  C   UNL     1       0.053  -2.440  -3.090  0.00  0.00    +0.043 C 
ATOM      9  C   UNL     1       0.222  -1.020  -3.546  0.00  0.00    -0.001 A 
ATOM     10  C   UNL     1       0.371   0.029  -2.628  0.00  0.00    +0.097 A 
ATOM     11  N   UNL     1       0.479   1.275  -3.061  0.00  0.00    -0.212 NA
ATOM     12  C   UNL     1       0.469   1.530  -4.363  0.00  0.00    +0.220 A 
ATOM     13  N   UNL     1       0.353   0.560  -5.259  0.00  0.00    -0.222 NA
ATOM     14  C   UNL     1       0.229  -0.706  -4.893  0.00  0.00    +0.120 A 
ATOM     15  N   UNL     1       0.582   2.841  -4.796  0.00  0.00    -0.284 N 
ATOM     16  H   UNL     1       0.742   3.552  -4.155  0.00  0.00    +0.155 HD
ENDROOT
BRANCH  15  17
ATOM     17  C   UNL     1       0.464   3.140  -6.157  0.00  0.00    +0.034 A 
ATOM     18  C   UNL     1      -0.390   2.397  -6.962  0.00  0.00    +0.023 A 
ATOM     19  C   UNL     1      -0.504   2.695  -8.305  0.00  0.00    +0.002 A 
ATOM     20  C   UNL     1       0.231   3.733  -8.850  0.00  0.00    +0.000 A 
ATOM     21  C   UNL     1       1.082   4.474  -8.051  0.00  0.00    +0.002 A 
ATOM     22  C   UNL     1       1.197   4.185  -6.706  0.00  0.00    +0.023 A 
ENDBRANCH  15  17
BRANCH   5  23
ATOM     23  C   UNL     1       0.754  -2.796   1.466  0.00  0.00    +0.269 C 
ATOM     24  O   UNL     1       0.930  -3.900   0.989  0.00  0.00    -0.268 OA
ATOM     25  N   UNL     1       0.708  -2.639   2.804  0.00  0.00    -0.280 N 
ATOM     26  H   UNL     1       0.636  -1.750   3.186  0.00  0.00    +0.155 HD
BRANCH  25  27
ATOM     27  C   UNL     1       0.764  -3.758   3.641  0.00  0.00    +0.034 A 
ATOM     28  C   UNL     1       0.029  -3.782   4.820  0.00  0.00    +0.023 A 
ATOM     29  C   UNL     1       0.086  -4.889   5.644  0.00  0.00    +0.002 A 
ATOM     30  C   UNL     1       0.873  -5.971   5.298  0.00  0.00    +0.000 A 
ATOM     31  C   UNL     1       1.606  -5.950   4.125  0.00  0.00    +0.002 A 
ATOM     32  C   UNL     1       1.549  -4.849   3.293  0.00  0.00    +0.023 A 
ENDBRANCH  25  27
ENDBRANCH   5  23
TORSDOF 3
