REMARK  Name = CHEMBL489477
REMARK  5 active torsions:
REMARK  status: ('A' for Active; 'I' for Inactive)
REMARK    1  A    between atoms: C_4  and  C_7
REMARK    2  A    between atoms: C_10  and  C_14
REMARK    3  A    between atoms: C_14  and  C_15
REMARK    4  A    between atoms: N_17  and  C_18
REMARK    5  A    between atoms: C_20  and  C_24
REMARK                            x       y       z     vdW  Elec       q    Type
REMARK                         _______ _______ _______ _____ _____    ______ ____
ROOT
ATOM      1  C   UNL     1       7.437  -2.766  -0.087  0.00  0.00    +0.131 C 
ENDROOT
BRANCH   1   5
ATOM      2  C   UNL     1       3.699  -0.689  -0.037  0.00  0.00    +0.017 A 
ATOM      3  C   UNL     1       4.679  -0.343  -0.965  0.00  0.00    +0.011 A 
ATOM      4  C   UNL     1       5.884  -1.017  -0.976  0.00  0.00    +0.005 A 
ATOM      5  C   UNL     1       6.119  -2.035  -0.069  0.00  0.00    -0.036 A 
ATOM      6  C   UNL     1       5.151  -2.384   0.854  0.00  0.00    +0.043 A 
ATOM      7  C   UNL     1       3.942  -1.712   0.879  0.00  0.00    +0.131 A 
ATOM      8  F   UNL     1       2.999  -2.049   1.785  0.00  0.00    -0.205 F 
BRANCH   2  12
ATOM      9  C   UNL     1      -0.017   1.379   0.010  0.00  0.00    +0.000 A 
ATOM     10  C   UNL     1       1.169   2.092   0.002  0.00  0.00    +0.001 A 
ATOM     11  C   UNL     1       2.377   1.426  -0.013  0.00  0.00    +0.008 A 
ATOM     12  C   UNL     1       2.402   0.033  -0.021  0.00  0.00    -0.015 A 
ATOM     13  C   UNL     1       1.205  -0.680  -0.013  0.00  0.00    +0.008 A 
ATOM     14  C   UNL     1       0.002  -0.004   0.002  0.00  0.00    +0.001 A 
ENDBRANCH   2  12
ENDBRANCH   1   5
BRANCH   1  15
ATOM     15  C   UNL     1       8.412  -2.067   0.825  0.00  0.00    +0.223 C 
ATOM     16  O   UNL     1       8.071  -1.073   1.430  0.00  0.00    -0.275 OA
ATOM     17  N   UNL     1       9.663  -2.547   0.968  0.00  0.00    -0.270 N 
ATOM     18  H   UNL     1       9.936  -3.342   0.484  0.00  0.00    +0.156 HD
BRANCH  17  19
ATOM     19  C   UNL     1      10.566  -1.900   1.812  0.00  0.00    +0.120 A 
ATOM     20  C   UNL     1      10.319  -0.782   2.548  0.00  0.00    +0.068 A 
ATOM     21  C   UNL     1      11.485  -0.467   3.251  0.00  0.00    +0.068 A 
ATOM     22  N   UNL     1      12.398  -1.355   2.954  0.00  0.00    -0.177 NA
ATOM     23  H   UNL     1      12.296  -3.040   1.668  0.00  0.00    +0.190 HD
ATOM     24  N   UNL     1      11.844  -2.273   2.053  0.00  0.00    -0.264 N 
BRANCH  21  25
ATOM     25  C   UNL     1      11.661   0.698   4.191  0.00  0.00    +0.040 C 
ATOM     26  C   UNL     1      10.630   1.827   4.118  0.00  0.00    +0.010 C 
ATOM     27  C   UNL     1      12.046   2.047   3.580  0.00  0.00    +0.010 C 
ENDBRANCH  21  25
ENDBRANCH  17  19
ENDBRANCH   1  15
TORSDOF 5
