REMARK  Name = CHEMBL52387
REMARK  10 active torsions:
REMARK  status: ('A' for Active; 'I' for Inactive)
REMARK    1  A    between atoms: C_1  and  C_2
REMARK    2  A    between atoms: C_2  and  CA_3
REMARK    3  A    between atoms: CA_3  and  C_4
REMARK    4  A    between atoms: CA_3  and  N_6
REMARK    5  A    between atoms: C_4  and  O_5
REMARK    6  A    between atoms: N_13  and  C_16
REMARK    7  A    between atoms: C_16  and  C_17
REMARK    8  A    between atoms: C_16  and  C_18
REMARK    9  A    between atoms: N_19  and  C_20
REMARK   10  A    between atoms: C_20  and  C_21
REMARK                            x       y       z     vdW  Elec       q    Type
REMARK                         _______ _______ _______ _____ _____    ______ ____
ROOT
ATOM      1  N   UNL     1      -2.082  -0.162   1.273  0.00  0.00    -0.308 N 
ATOM      2  C   UNL     1      -3.461  -0.051   1.336  0.00  0.00    +0.219 A 
ATOM      3  N   UNL     1      -4.174  -0.291   0.242  0.00  0.00    -0.197 NA
ATOM      4  C   UNL     1      -5.498  -0.197   0.252  0.00  0.00    +0.152 A 
ATOM      5  C   UNL     1      -6.138   0.164   1.451  0.00  0.00    +0.148 A 
ATOM      6  C   UNL     1      -5.343   0.409   2.582  0.00  0.00    +0.167 A 
ATOM      7  N   UNL     1      -4.023   0.287   2.485  0.00  0.00    -0.195 NA
ATOM      8  N   UNL     1      -6.212   0.736   3.592  0.00  0.00    -0.312 N 
ATOM      9  C   UNL     1      -7.475   0.686   3.078  0.00  0.00    +0.201 A 
ATOM     10  N   UNL     1      -7.429   0.350   1.821  0.00  0.00    -0.231 NA
ATOM     11  N   UNL     1      -6.233  -0.450  -0.893  0.00  0.00    -0.323 N 
ATOM     12  H   UNL     1      -1.545   0.006   2.063  0.00  0.00    +0.149 HD
ATOM     13  H   UNL     1      -7.200  -0.378  -0.874  0.00  0.00    +0.148 HD
ENDROOT
BRANCH   8  14
ATOM     14  C   UNL     1      -5.851   1.075   4.971  0.00  0.00    +0.084 C 
ATOM     15  C   UNL     1      -6.339   2.489   5.293  0.00  0.00    +0.030 C 
ATOM     16  C   UNL     1      -6.505   0.079   5.930  0.00  0.00    +0.030 C 
ENDBRANCH   8  14
BRANCH   1  17
ATOM     17  CA  UNL     1      -1.433  -0.534   0.013  0.00  0.00    +0.098 C 
BRANCH  17  19
ATOM     18  C   UNL     1      -0.019   1.526   0.010  0.00  0.00    +0.006 C 
ATOM     19  C   UNL     1       0.002  -0.004   0.002  0.00  0.00    +0.021 C 
ENDBRANCH  17  19
BRANCH  17  20
ATOM     20  C   UNL     1      -1.416  -2.058  -0.121  0.00  0.00    +0.178 C 
BRANCH  20  21
ATOM     21  O   UNL     1      -0.594  -2.617   0.906  0.00  0.00    -0.393 OA
ATOM     22  H   UNL     1      -0.537  -3.582   0.882  0.00  0.00    +0.209 HD
ENDBRANCH  20  21
ENDBRANCH  17  20
ENDBRANCH   1  17
BRANCH  11  23
ATOM     23  C   UNL     1      -5.550  -0.824  -2.134  0.00  0.00    +0.138 C 
BRANCH  23  24
ATOM     24  C   UNL     1      -6.570  -1.042  -3.222  0.00  0.00    -0.030 A 
ATOM     25  C   UNL     1      -7.121  -2.295  -3.412  0.00  0.00    +0.005 A 
ATOM     26  C   UNL     1      -8.056  -2.495  -4.410  0.00  0.00    +0.000 A 
ATOM     27  C   UNL     1      -8.440  -1.441  -5.218  0.00  0.00    +0.000 A 
ATOM     28  C   UNL     1      -7.890  -0.188  -5.027  0.00  0.00    +0.000 A 
ATOM     29  C   UNL     1      -6.958   0.013  -4.026  0.00  0.00    +0.005 A 
ENDBRANCH  23  24
ENDBRANCH  11  23
TORSDOF 7
