REMARK  Name = CHEMBL603097
REMARK  5 active torsions:
REMARK  status: ('A' for Active; 'I' for Inactive)
REMARK    1  A    between atoms: C_1  and  C_2
REMARK    2  A    between atoms: C_4  and  O_18
REMARK    3  A    between atoms: C_7  and  O_16
REMARK    4  A    between atoms: O_16  and  C_17
REMARK    5  A    between atoms: O_18  and  C_19
REMARK                            x       y       z     vdW  Elec       q    Type
REMARK                         _______ _______ _______ _____ _____    ______ ____
ROOT
ATOM      1  C   UNL     1      -0.018   1.503   0.010  0.00  0.00    +0.068 C 
ATOM      2  C   UNL     1       0.002  -0.004   0.002  0.00  0.00    +0.073 A 
ATOM      3  C   UNL     1       0.008  -0.859  -1.182  0.00  0.00    +0.083 A 
ATOM      4  C   UNL     1      -0.001  -0.608  -2.556  0.00  0.00    +0.142 A 
ATOM      5  C   UNL     1       0.011  -1.717  -3.426  0.00  0.00    +0.046 A 
ATOM      6  C   UNL     1       0.002  -1.544  -4.820  0.00  0.00    +0.059 A 
ATOM      7  C   UNL     1       0.015  -2.638  -5.636  0.00  0.00    +0.121 A 
ATOM      8  C   UNL     1       0.035  -3.929  -5.099  0.00  0.00    +0.048 A 
ATOM      9  C   UNL     1       0.043  -4.129  -3.755  0.00  0.00    +0.032 A 
ATOM     10  C   UNL     1       0.031  -3.026  -2.880  0.00  0.00    +0.077 A 
ATOM     11  N   UNL     1       0.041  -3.209  -1.557  0.00  0.00    -0.228 NA
ATOM     12  C   UNL     1       0.029  -2.193  -0.712  0.00  0.00    +0.160 A 
ATOM     13  N   UNL     1       0.035  -2.119   0.658  0.00  0.00    -0.260 N 
ATOM     14  H   UNL     1       0.049  -2.879   1.261  0.00  0.00    +0.191 HD
ATOM     15  N   UNL     1       0.023  -0.777   1.048  0.00  0.00    -0.177 NA
ENDROOT
BRANCH   7  16
ATOM     16  O   UNL     1       0.007  -2.471  -6.985  0.00  0.00    -0.495 OA
ATOM     17  C   UNL     1       0.020  -3.655  -7.786  0.00  0.00    +0.277 C 
ENDBRANCH   7  16
BRANCH   4  18
ATOM     18  O   UNL     1      -0.022   0.658  -3.036  0.00  0.00    -0.494 OA
ATOM     19  C   UNL     1       1.241   1.283  -3.272  0.00  0.00    +0.277 C 
ENDBRANCH   4  18
TORSDOF 2
