REMARK  Name = CHEMBL149168
REMARK  4 active torsions:
REMARK  status: ('A' for Active; 'I' for Inactive)
REMARK    1  A    between atoms: C_1  and  C_2
REMARK    2  A    between atoms: N_4  and  C_5
REMARK    3  A    between atoms: C_18  and  C_19
REMARK    4  A    between atoms: C_22  and  N_25
REMARK                            x       y       z     vdW  Elec       q    Type
REMARK                         _______ _______ _______ _____ _____    ______ ____
ROOT
ATOM      1  C   UNL     1      -1.194  -2.085  -0.036  0.00  0.00    +0.045 A 
ATOM      2  C   UNL     1      -0.006  -2.820  -0.039  0.00  0.00    +0.024 A 
ATOM      3  C   UNL     1      -0.041  -4.191  -0.148  0.00  0.00    +0.002 A 
ATOM      4  C   UNL     1      -1.253  -4.861  -0.257  0.00  0.00    +0.011 A 
ATOM      5  C   UNL     1      -2.444  -4.151  -0.256  0.00  0.00    +0.013 A 
ATOM      6  C   UNL     1      -2.416  -2.748  -0.139  0.00  0.00    +0.053 A 
ATOM      7  C   UNL     1      -3.817  -2.271  -0.160  0.00  0.00    +0.200 C 
ATOM      8  O   UNL     1      -4.189  -1.117  -0.085  0.00  0.00    -0.286 OA
ATOM      9  C   UNL     1      -4.678  -3.464  -0.290  0.00  0.00    +0.075 A 
ATOM     10  C   UNL     1      -3.859  -4.584  -0.356  0.00  0.00    +0.078 A 
ATOM     11  N   UNL     1      -4.662  -5.662  -0.478  0.00  0.00    -0.276 N 
ATOM     12  H   UNL     1      -4.367  -6.584  -0.537  0.00  0.00    +0.189 HD
ATOM     13  N   UNL     1      -5.992  -5.227  -0.506  0.00  0.00    -0.173 NA
ATOM     14  C   UNL     1      -6.016  -3.916  -0.382  0.00  0.00    +0.104 A 
ENDROOT
BRANCH  14  15
ATOM     15  C   UNL     1      -7.228  -3.063  -0.365  0.00  0.00    +0.003 A 
ATOM     16  C   UNL     1      -7.258  -1.908   0.415  0.00  0.00    +0.012 A 
ATOM     17  C   UNL     1      -8.386  -1.116   0.429  0.00  0.00    +0.024 A 
ATOM     18  C   UNL     1      -9.494  -1.469  -0.334  0.00  0.00    +0.030 A 
ATOM     19  C   UNL     1      -9.466  -2.621  -1.112  0.00  0.00    +0.024 A 
ATOM     20  C   UNL     1      -8.338  -3.412  -1.134  0.00  0.00    +0.012 A 
BRANCH  18  21
ATOM     21  N   UNL     1     -10.635  -0.667  -0.318  0.00  0.00    -0.330 N 
ATOM     22  C   UNL     1     -10.636   0.619   0.394  0.00  0.00    +0.105 C 
ATOM     23  C   UNL     1     -11.089   1.717  -0.573  0.00  0.00    +0.019 C 
ATOM     24  C   UNL     1     -12.441   1.332  -1.178  0.00  0.00    +0.003 C 
ATOM     25  C   UNL     1     -12.298   0.027  -1.963  0.00  0.00    +0.019 C 
ATOM     26  C   UNL     1     -11.856  -1.088  -1.018  0.00  0.00    +0.105 C 
ENDBRANCH  18  21
ENDBRANCH  14  15
BRANCH   1  30
ATOM     27  C   UNL     1      -0.164   1.504  -0.454  0.00  0.00    +0.109 C 
ATOM     28  C   UNL     1      -0.151  -0.003  -0.490  0.00  0.00    +0.214 C 
ATOM     29  O   UNL     1       0.764  -0.589  -1.026  0.00  0.00    -0.276 OA
ATOM     30  N   UNL     1      -1.158  -0.699   0.075  0.00  0.00    -0.285 N 
ATOM     31  H   UNL     1      -1.858  -0.233   0.559  0.00  0.00    +0.155 HD
ENDBRANCH   1  30
TORSDOF 3
