REMARK  Name = CHEMBL489245
REMARK  6 active torsions:
REMARK  status: ('A' for Active; 'I' for Inactive)
REMARK    1  A    between atoms: C_1  and  O_2
REMARK    2  A    between atoms: O_2  and  C_3
REMARK    3  A    between atoms: C_6  and  C_10
REMARK    4  A    between atoms: C_8  and  O_9
REMARK    5  A    between atoms: C_10  and  N_11
REMARK    6  A    between atoms: N_11  and  C_12
REMARK                            x       y       z     vdW  Elec       q    Type
REMARK                         _______ _______ _______ _____ _____    ______ ____
ROOT
ATOM      1  C   UNL     1       4.736  -3.298  -5.004  0.00  0.00    +0.081 C 
ATOM      2  C   UNL     1       6.088  -3.402  -4.763  0.00  0.00    +0.058 C 
ATOM      3  C   UNL     1       6.603  -3.635  -3.398  0.00  0.00    +0.001 A 
ATOM      4  C   UNL     1       5.751  -3.760  -2.307  0.00  0.00    +0.023 A 
ATOM      5  C   UNL     1       6.281  -3.978  -1.050  0.00  0.00    +0.014 A 
ATOM      6  C   UNL     1       7.654  -4.074  -0.871  0.00  0.00    +0.015 A 
ATOM      7  C   UNL     1       8.513  -3.952  -1.941  0.00  0.00    +0.014 A 
ATOM      8  C   UNL     1       7.998  -3.732  -3.219  0.00  0.00    +0.045 A 
ATOM      9  C   UNL     1       8.880  -3.599  -4.386  0.00  0.00    +0.251 C 
ATOM     10  O   UNL     1      10.084  -3.681  -4.239  0.00  0.00    -0.270 OA
ATOM     11  N   UNL     1       8.378  -3.387  -5.614  0.00  0.00    -0.248 N 
ATOM     12  C   UNL     1       7.061  -3.290  -5.857  0.00  0.00    +0.252 C 
ATOM     13  O   UNL     1       6.670  -3.102  -6.994  0.00  0.00    -0.270 OA
ATOM     14  I   UNL     1       5.002  -4.167   0.598  0.00  0.00    -0.044 I 
ATOM     15  H   UNL     1       8.994  -3.304  -6.359  0.00  0.00    +0.158 HD
ENDROOT
BRANCH   1  16
ATOM     16  N   UNL     1       3.904  -2.859  -4.024  0.00  0.00    -0.345 N 
ATOM     17  H   UNL     1       4.270  -2.522  -3.191  0.00  0.00    +0.146 HD
BRANCH  16  18
ATOM     18  C   UNL     1       2.453  -2.894  -4.225  0.00  0.00    +0.136 C 
BRANCH  18  22
ATOM     19  C   UNL     1       0.494  -1.362  -0.746  0.00  0.00    +0.161 A 
ATOM     20  C   UNL     1       0.851  -0.507  -1.777  0.00  0.00    +0.050 A 
ATOM     21  C   UNL     1       1.484  -1.006  -2.900  0.00  0.00    +0.009 A 
ATOM     22  C   UNL     1       1.762  -2.356  -2.998  0.00  0.00    -0.027 A 
ATOM     23  C   UNL     1       1.409  -3.214  -1.973  0.00  0.00    +0.054 A 
ATOM     24  C   UNL     1       0.779  -2.720  -0.842  0.00  0.00    +0.159 A 
BRANCH  19  26
ATOM     25  C   UNL     1      -0.390   0.532   0.390  0.00  0.00    +0.277 C 
ATOM     26  O   UNL     1      -0.129  -0.873   0.360  0.00  0.00    -0.491 OA
ENDBRANCH  19  26
BRANCH  24  27
ATOM     27  O   UNL     1       0.436  -3.562   0.169  0.00  0.00    -0.503 OA
ATOM     28  H   UNL     1      -0.448  -3.943   0.081  0.00  0.00    +0.292 HD
ENDBRANCH  24  27
ENDBRANCH  18  22
ENDBRANCH  16  18
ENDBRANCH   1  16
TORSDOF 5
