REMARK  Name = CHEMBL455195
REMARK  10 active torsions:
REMARK  status: ('A' for Active; 'I' for Inactive)
REMARK    1  A    between atoms: C_1  and  C_2
REMARK    2  A    between atoms: C_2  and  C_3
REMARK    3  A    between atoms: C_5  and  C_9
REMARK    4  A    between atoms: C_15  and  S_17
REMARK    5  A    between atoms: S_17  and  C_18
REMARK    6  A    between atoms: C_18  and  C_19
REMARK    7  A    between atoms: C_22  and  C_24
REMARK    8  A    between atoms: C_24  and  C_25
REMARK    9  A    between atoms: C_24  and  C_26
REMARK   10  A    between atoms: C_24  and  C_27
REMARK                            x       y       z     vdW  Elec       q    Type
REMARK                         _______ _______ _______ _____ _____    ______ ____
ROOT
ATOM      1  C   UNL     1       2.966  -1.943  -2.502  0.00  0.00    +0.222 C 
ATOM      2  O   UNL     1       3.350  -1.218  -1.608  0.00  0.00    -0.275 OA
ATOM      3  N   UNL     1       3.786  -2.240  -3.529  0.00  0.00    -0.264 N 
ATOM      4  C   UNL     1       5.075  -1.716  -3.564  0.00  0.00    +0.165 A 
ATOM      5  N   UNL     1       5.680  -0.924  -2.698  0.00  0.00    -0.232 NA
ATOM      6  C   UNL     1       6.921  -0.518  -2.890  0.00  0.00    +0.135 A 
ATOM      7  C   UNL     1       7.597  -0.922  -4.003  0.00  0.00    +0.067 A 
ATOM      8  S   UNL     1       6.358  -1.944  -4.789  0.00  0.00    -0.046 S 
ATOM      9  H   UNL     1       3.478  -2.820  -4.243  0.00  0.00    +0.157 HD
ENDROOT
BRANCH   1  12
ATOM     10  C   UNL     1       0.718  -0.497  -1.257  0.00  0.00    -0.071 C 
ATOM     11  C   UNL     1       0.852  -2.021  -1.203  0.00  0.00    -0.003 C 
ATOM     12  C   UNL     1       1.570  -2.510  -2.464  0.00  0.00    +0.072 C 
ATOM     13  C   UNL     1       0.792  -2.039  -3.696  0.00  0.00    -0.007 C 
ATOM     14  C   UNL     1       0.660  -0.515  -3.658  0.00  0.00    -0.081 C 
ATOM     15  N   UNL     1      -0.057  -0.113  -2.442  0.00  0.00    +0.381 N 
ATOM     16  H   UNL     1      -0.957  -0.569  -2.417  0.00  0.00    -0.086 HD
ATOM     17  H   UNL     1      -0.189   0.887  -2.447  0.00  0.00    -0.086 HD
BRANCH  10  19
ATOM     18  C   UNL     1      -0.019   1.526   0.010  0.00  0.00    +0.002 C 
ATOM     19  C   UNL     1       0.002  -0.004   0.002  0.00  0.00    -0.019 C 
ENDBRANCH  10  19
ENDBRANCH   1  12
BRANCH   7  20
ATOM     20  S   UNL     1       9.239  -0.547  -4.520  0.00  0.00    -0.107 S 
BRANCH  20  21
ATOM     21  C   UNL     1       9.421  -1.442  -6.087  0.00  0.00    +0.170 C 
BRANCH  21  22
ATOM     22  C   UNL     1      10.801  -1.203  -6.644  0.00  0.00    +0.206 A 
ATOM     23  N   UNL     1      11.853  -1.933  -6.404  0.00  0.00    -0.221 NA
ATOM     24  C   UNL     1      12.898  -1.416  -7.073  0.00  0.00    +0.156 A 
ATOM     25  C   UNL     1      12.461  -0.335  -7.741  0.00  0.00    +0.131 A 
ATOM     26  O   UNL     1      11.146  -0.209  -7.473  0.00  0.00    -0.443 OA
BRANCH  25  27
ATOM     27  C   UNL     1      13.284   0.564  -8.627  0.00  0.00    +0.022 C 
ATOM     28  C   UNL     1      13.872  -0.254  -9.778  0.00  0.00    +0.019 C 
ATOM     29  C   UNL     1      12.397   1.675  -9.191  0.00  0.00    +0.019 C 
ATOM     30  C   UNL     1      14.419   1.184  -7.809  0.00  0.00    +0.019 C 
ENDBRANCH  25  27
ENDBRANCH  21  22
ENDBRANCH  20  21
ENDBRANCH   7  20
TORSDOF 6
