REMARK  Name = CHEMBL178408
REMARK  4 active torsions:
REMARK  status: ('A' for Active; 'I' for Inactive)
REMARK    1  A    between atoms: C_1  and  S_2
REMARK    2  A    between atoms: S_2  and  C_5
REMARK    3  A    between atoms: C_8  and  N_11
REMARK    4  A    between atoms: C_14  and  C_16
REMARK                            x       y       z     vdW  Elec       q    Type
REMARK                         _______ _______ _______ _____ _____    ______ ____
ROOT
ATOM      1  N   UNL     1       2.840  -1.462  -4.996  0.00  0.00    -0.231 N 
ATOM      2  C   UNL     1       4.029  -0.981  -5.402  0.00  0.00    +0.082 A 
ATOM      3  C   UNL     1       4.362  -1.597  -6.591  0.00  0.00    +0.011 A 
ATOM      4  C   UNL     1       3.304  -2.450  -6.923  0.00  0.00    +0.151 A 
ATOM      5  N   UNL     1       2.394  -2.378  -5.964  0.00  0.00    -0.161 NA
ATOM      6  C   UNL     1       5.663  -1.362  -7.308  0.00  0.00    +0.046 C 
ATOM      7  C   UNL     1       6.180   0.062  -7.100  0.00  0.00    +0.063 C 
ATOM      8  C   UNL     1       6.022   0.495  -5.667  0.00  0.00    +0.072 A 
ATOM      9  C   UNL     1       4.964   0.013  -4.839  0.00  0.00    +0.041 A 
ATOM     10  C   UNL     1       5.066   0.610  -3.638  0.00  0.00    +0.115 A 
ATOM     11  N   UNL     1       6.153   1.416  -3.680  0.00  0.00    -0.284 N 
ATOM     12  H   UNL     1       6.478   1.968  -2.952  0.00  0.00    +0.188 HD
ATOM     13  N   UNL     1       6.729   1.315  -4.956  0.00  0.00    -0.178 NA
ENDROOT
BRANCH   1  17
ATOM     14  C   UNL     1       0.845  -0.436  -1.484  0.00  0.00    +0.088 A 
ATOM     15  C   UNL     1       1.440   0.548  -2.252  0.00  0.00    +0.029 A 
ATOM     16  C   UNL     1       2.102   0.211  -3.416  0.00  0.00    +0.029 A 
ATOM     17  C   UNL     1       2.170  -1.118  -3.815  0.00  0.00    +0.066 A 
ATOM     18  C   UNL     1       1.571  -2.103  -3.042  0.00  0.00    +0.029 A 
ATOM     19  C   UNL     1       0.915  -1.761  -1.875  0.00  0.00    +0.029 A 
BRANCH  14  21
ATOM     20  C   UNL     1       1.269  -0.075   1.296  0.00  0.00    +0.200 C 
ATOM     21  S   UNL     1       0.001  -0.002   0.001  0.00  0.00    -0.006 S 
ATOM     22  O   UNL     1      -0.953  -1.038   0.192  0.00  0.00    -0.170 OA
ATOM     23  O   UNL     1      -0.418   1.341  -0.199  0.00  0.00    -0.170 OA
ENDBRANCH  14  21
ENDBRANCH   1  17
BRANCH   4  24
ATOM     24  C   UNL     1       3.219  -3.292  -8.134  0.00  0.00    +0.262 C 
ATOM     25  O   UNL     1       4.122  -3.279  -8.947  0.00  0.00    -0.269 OA
ATOM     26  N   UNL     1       2.140  -4.073  -8.337  0.00  0.00    -0.324 N 
ATOM     27  H   UNL     1       1.419  -4.083  -7.688  0.00  0.00    +0.145 HD
ATOM     28  H   UNL     1       2.084  -4.626  -9.132  0.00  0.00    +0.145 HD
ENDBRANCH   4  24
TORSDOF 3
