REMARK  Name = CHEMBL194721
REMARK  3 active torsions:
REMARK  status: ('A' for Active; 'I' for Inactive)
REMARK    1  A    between atoms: C_5  and  N_7
REMARK    2  A    between atoms: C_9  and  C_25
REMARK    3  A    between atoms: N_14  and  C_15
REMARK                            x       y       z     vdW  Elec       q    Type
REMARK                         _______ _______ _______ _____ _____    ______ ____
ROOT
ATOM      1  N   UNL     1       1.210  -2.136  -0.345  0.00  0.00    -0.298 N 
ATOM      2  C   UNL     1       0.017  -2.835  -0.242  0.00  0.00    +0.140 A 
ATOM      3  C   UNL     1       0.004  -4.230  -0.324  0.00  0.00    +0.113 A 
ATOM      4  C   UNL     1      -1.208  -4.884  -0.216  0.00  0.00    +0.130 A 
ATOM      5  N   UNL     1      -2.314  -4.176  -0.040  0.00  0.00    -0.222 NA
ATOM      6  C   UNL     1      -2.272  -2.854   0.034  0.00  0.00    +0.221 A 
ATOM      7  N   UNL     1      -1.130  -2.189  -0.060  0.00  0.00    -0.199 NA
ATOM      8  N   UNL     1      -3.450  -2.150   0.219  0.00  0.00    -0.284 N 
ATOM      9  H   UNL     1       2.031  -2.607  -0.556  0.00  0.00    +0.154 HD
ATOM     10  H   UNL     1      -3.444  -1.180   0.198  0.00  0.00    +0.155 HD
ENDROOT
BRANCH   8  11
ATOM     11  C   UNL     1      -4.650  -2.838   0.437  0.00  0.00    +0.036 A 
ATOM     12  C   UNL     1      -4.641  -4.039   1.144  0.00  0.00    +0.025 A 
ATOM     13  C   UNL     1      -5.814  -4.726   1.365  0.00  0.00    +0.029 A 
ATOM     14  C   UNL     1      -7.014  -4.221   0.883  0.00  0.00    +0.066 A 
ATOM     15  C   UNL     1      -7.032  -3.011   0.170  0.00  0.00    +0.091 A 
ATOM     16  C   UNL     1      -5.837  -2.320  -0.045  0.00  0.00    +0.053 A 
ATOM     17  N   UNL     1      -8.324  -2.772  -0.172  0.00  0.00    -0.236 NA
ATOM     18  C   UNL     1      -9.080  -3.732   0.275  0.00  0.00    +0.197 A 
ATOM     19  N   UNL     1      -8.327  -4.653   0.932  0.00  0.00    -0.344 N 
ATOM     20  H   UNL     1      -8.650  -5.463   1.358  0.00  0.00    +0.167 HD
ENDBRANCH   8  11
BRANCH   1  25
ATOM     21  C   UNL     1       0.235   1.227   0.776  0.00  0.00    +0.002 A 
ATOM     22  C   UNL     1       1.266   1.986   0.254  0.00  0.00    +0.002 A 
ATOM     23  C   UNL     1       2.279   1.381  -0.467  0.00  0.00    +0.022 A 
ATOM     24  C   UNL     1       2.264   0.013  -0.668  0.00  0.00    +0.062 A 
ATOM     25  C   UNL     1       1.229  -0.752  -0.144  0.00  0.00    +0.051 A 
ATOM     26  C   UNL     1       0.214  -0.140   0.579  0.00  0.00    +0.025 A 
ATOM     27 CL   UNL     1       3.535  -0.746  -1.574  0.00  0.00    -0.082 Cl
ENDBRANCH   1  25
BRANCH   3  28
ATOM     28  C   UNL     1       1.282  -5.002  -0.526  0.00  0.00    +0.422 C 
ATOM     29  F   UNL     1       0.997  -6.371  -0.573  0.00  0.00    -0.166 F 
ATOM     30  F   UNL     1       1.879  -4.609  -1.728  0.00  0.00    -0.166 F 
ATOM     31  F   UNL     1       2.155  -4.744   0.536  0.00  0.00    -0.166 F 
ENDBRANCH   3  28
TORSDOF 3
