REMARK  Name = CHEMBL564470
REMARK  9 active torsions:
REMARK  status: ('A' for Active; 'I' for Inactive)
REMARK    1  A    between atoms: C_1  and  C_2
REMARK    2  A    between atoms: C_2  and  C_35
REMARK    3  A    between atoms: C_12  and  C_16
REMARK    4  A    between atoms: N_14  and  C_15
REMARK    5  A    between atoms: N_18  and  C_19
REMARK    6  A    between atoms: N_20  and  C_21
REMARK    7  A    between atoms: C_25  and  C_27
REMARK    8  A    between atoms: C_27  and  N_28
REMARK    9  A    between atoms: N_31  and  C_34
REMARK                            x       y       z     vdW  Elec       q    Type
REMARK                         _______ _______ _______ _____ _____    ______ ____
ROOT
ATOM      1  C   UNL     1      -0.947   1.036   1.616  0.00  0.00    +0.016 C 
ATOM      2  C   UNL     1      -0.715  -0.455   1.363  0.00  0.00    -0.001 C 
ATOM      3  C   UNL     1      -0.341  -0.668  -0.105  0.00  0.00    +0.050 C 
ATOM      4  C   UNL     1       0.231  -2.033  -0.356  0.00  0.00    -0.001 A 
ATOM      5  C   UNL     1      -0.016  -2.697  -1.544  0.00  0.00    +0.120 A 
ATOM      6  N   UNL     1       0.528  -3.888  -1.741  0.00  0.00    -0.222 NA
ATOM      7  C   UNL     1       1.305  -4.453  -0.828  0.00  0.00    +0.220 A 
ATOM      8  N   UNL     1       1.562  -3.859   0.330  0.00  0.00    -0.212 NA
ATOM      9  C   UNL     1       1.036  -2.673   0.597  0.00  0.00    +0.097 A 
ATOM     10  C   UNL     1       1.218  -1.993   1.892  0.00  0.00    +0.092 A 
ATOM     11  C   UNL     1       0.396  -0.944   2.245  0.00  0.00    +0.018 A 
ATOM     12  C   UNL     1       0.838  -0.526   3.501  0.00  0.00    +0.151 A 
ATOM     13  N   UNL     1       1.841  -1.321   3.845  0.00  0.00    -0.166 NA
ATOM     14  N   UNL     1       2.066  -2.193   2.920  0.00  0.00    -0.264 N 
ATOM     15  C   UNL     1       3.087  -3.241   2.979  0.00  0.00    +0.173 C 
ATOM     16  N   UNL     1       1.863  -5.694  -1.089  0.00  0.00    -0.284 N 
ATOM     17  C   UNL     1      -1.995  -1.230   1.679  0.00  0.00    +0.016 C 
ATOM     18  H   UNL     1       2.370  -6.153  -0.400  0.00  0.00    +0.155 HD
ENDROOT
BRANCH  16  19
ATOM     19  C   UNL     1       1.694  -6.287  -2.344  0.00  0.00    +0.034 A 
ATOM     20  C   UNL     1       1.633  -5.496  -3.484  0.00  0.00    +0.023 A 
ATOM     21  C   UNL     1       1.467  -6.084  -4.723  0.00  0.00    +0.002 A 
ATOM     22  C   UNL     1       1.362  -7.459  -4.828  0.00  0.00    +0.002 A 
ATOM     23  C   UNL     1       1.422  -8.249  -3.695  0.00  0.00    -0.062 A 
ATOM     24  C   UNL     1       1.593  -7.667  -2.454  0.00  0.00    +0.025 A 
BRANCH  23  25
ATOM     25  C   UNL     1       1.306  -9.747  -3.815  0.00  0.00    -0.043 C 
BRANCH  25  26
ATOM     26  N   UNL     1       2.643 -10.328  -3.993  0.00  0.00    +0.384 N 
ATOM     27  C   UNL     1       3.207  -9.877  -5.272  0.00  0.00    -0.063 C 
ATOM     28  C   UNL     1       4.607 -10.467  -5.450  0.00  0.00    +0.065 C 
ATOM     29  N   UNL     1       4.524 -11.934  -5.422  0.00  0.00    -0.309 NA
ATOM     30  C   UNL     1       3.939 -12.400  -4.157  0.00  0.00    +0.065 C 
ATOM     31  C   UNL     1       2.544 -11.794  -3.990  0.00  0.00    -0.063 C 
ATOM     32  C   UNL     1       5.843 -12.541  -5.646  0.00  0.00    +0.104 C 
ATOM     33  H   UNL     1       3.243 -10.030  -3.238  0.00  0.00    -0.081 HD
ENDBRANCH  25  26
ENDBRANCH  23  25
ENDBRANCH  16  19
BRANCH  12  34
ATOM     34  C   UNL     1       0.291   0.592   4.296  0.00  0.00    +0.264 C 
ATOM     35  O   UNL     1      -0.769   0.463   4.878  0.00  0.00    -0.268 OA
ATOM     36  N   UNL     1       0.967   1.755   4.378  0.00  0.00    -0.313 N 
ATOM     37  C   UNL     1       0.425   2.864   5.167  0.00  0.00    +0.128 C 
ATOM     38  H   UNL     1       1.813   1.858   3.915  0.00  0.00    +0.149 HD
ENDBRANCH  12  34
TORSDOF 4
