REMARK  Name = CHEMBL260929
REMARK  2 active torsions:
REMARK  status: ('A' for Active; 'I' for Inactive)
REMARK    1  A    between atoms: C_3  and  C_7
REMARK    2  A    between atoms: C_18  and  C_20
REMARK                            x       y       z     vdW  Elec       q    Type
REMARK                         _______ _______ _______ _____ _____    ______ ____
ROOT
ATOM      1  C   UNL     1       3.591   0.680  -0.029  0.00  0.00    +0.000 A 
ATOM      2  C   UNL     1       4.294   1.893  -0.025  0.00  0.00    +0.011 A 
ATOM      3  C   UNL     1       5.655   1.903  -0.038  0.00  0.00    +0.014 A 
ATOM      4  C   UNL     1       6.363   0.695  -0.057  0.00  0.00    +0.042 A 
ATOM      5  C   UNL     1       5.667  -0.530  -0.061  0.00  0.00    +0.068 A 
ATOM      6  C   UNL     1       4.277  -0.529  -0.042  0.00  0.00    +0.037 A 
ATOM      7  N   UNL     1       6.612  -1.523  -0.080  0.00  0.00    -0.275 N 
ATOM      8  H   UNL     1       6.427  -2.475  -0.088  0.00  0.00    +0.189 HD
ATOM      9  N   UNL     1       7.886  -0.946  -0.088  0.00  0.00    -0.157 NA
ATOM     10  C   UNL     1       7.787   0.357  -0.074  0.00  0.00    +0.154 A 
ATOM     11  N   UNL     1       8.851   1.266  -0.077  0.00  0.00    -0.268 N 
ATOM     12  C   UNL     1      10.121   0.816  -0.094  0.00  0.00    +0.221 C 
ATOM     13  O   UNL     1      10.342  -0.376  -0.108  0.00  0.00    -0.275 OA
ATOM     14  H   UNL     1       8.674   2.220  -0.066  0.00  0.00    +0.156 HD
ENDROOT
BRANCH   1  17
ATOM     15  C   UNL     1      -0.016   1.347   0.009  0.00  0.00    +0.019 A 
ATOM     16  C   UNL     1       1.316   1.792  -0.001  0.00  0.00    +0.027 A 
ATOM     17  C   UNL     1       2.113   0.686  -0.014  0.00  0.00    +0.047 A 
ATOM     18  N   UNL     1       1.301  -0.419  -0.013  0.00  0.00    -0.361 N 
ATOM     19  H   UNL     1       1.600  -1.341  -0.020  0.00  0.00    +0.165 HD
ATOM     20  C   UNL     1       0.002  -0.004   0.002  0.00  0.00    +0.083 A 
ENDBRANCH   1  17
BRANCH  12  21
ATOM     21  C   UNL     1      11.267   1.795  -0.097  0.00  0.00    +0.075 C 
ATOM     22  C   UNL     1      12.113   1.890  -1.368  0.00  0.00    +0.013 C 
ATOM     23  C   UNL     1      12.686   1.222  -0.117  0.00  0.00    +0.013 C 
ENDBRANCH  12  21
TORSDOF 2
