REMARK  Name = CHEMBL440379
REMARK  1 active torsions:
REMARK  status: ('A' for Active; 'I' for Inactive)
REMARK    1  A    between atoms: C_10  and  C_12
REMARK                            x       y       z     vdW  Elec       q    Type
REMARK                         _______ _______ _______ _____ _____    ______ ____
ROOT
ATOM      1  C   UNL     1      -0.017   1.380   0.010  0.00  0.00    +0.005 A 
ATOM      2  C   UNL     1       1.194   2.058   0.002  0.00  0.00    +0.020 A 
ATOM      3  C   UNL     1       2.373   1.338  -0.013  0.00  0.00    +0.113 A 
ATOM      4  N   UNL     1       2.359   0.019  -0.020  0.00  0.00    -0.236 NA
ATOM      5  C   UNL     1       1.225  -0.663  -0.013  0.00  0.00    +0.155 A 
ATOM      6  C   UNL     1       0.002  -0.004   0.002  0.00  0.00    +0.048 A 
ATOM      7  N   UNL     1       1.258  -2.060  -0.021  0.00  0.00    -0.213 N 
ATOM      8  C   UNL     1       2.261  -2.828  -0.490  0.00  0.00    +0.083 A 
ATOM      9  C   UNL     1       1.923  -4.150  -0.286  0.00  0.00    +0.011 A 
ATOM     10  C   UNL     1       0.651  -4.167   0.296  0.00  0.00    +0.151 A 
ATOM     11  N   UNL     1       0.254  -2.915   0.464  0.00  0.00    -0.160 NA
ATOM     12  C   UNL     1       2.841  -5.291  -0.629  0.00  0.00    +0.046 C 
ATOM     13  C   UNL     1       3.724  -4.954  -1.832  0.00  0.00    +0.060 C 
ATOM     14  C   UNL     1       4.249  -3.547  -1.748  0.00  0.00    +0.046 A 
ATOM     15  C   UNL     1       3.554  -2.523  -1.132  0.00  0.00    +0.041 A 
ATOM     16  C   UNL     1       4.294  -1.354  -1.267  0.00  0.00    +0.144 A 
ATOM     17  N   UNL     1       5.398  -1.651  -1.910  0.00  0.00    -0.181 NA
ATOM     18  H   UNL     1       6.091  -3.507  -2.672  0.00  0.00    +0.189 HD
ATOM     19  N   UNL     1       5.390  -3.022  -2.210  0.00  0.00    -0.281 N 
ENDROOT
BRANCH  10  20
ATOM     20  C   UNL     1      -0.115  -5.374   0.664  0.00  0.00    +0.262 C 
ATOM     21  O   UNL     1       0.356  -6.477   0.466  0.00  0.00    -0.269 OA
ATOM     22  N   UNL     1      -1.337  -5.253   1.221  0.00  0.00    -0.324 N 
ATOM     23  H   UNL     1      -1.713  -4.373   1.379  0.00  0.00    +0.145 HD
ATOM     24  H   UNL     1      -1.840  -6.047   1.463  0.00  0.00    +0.145 HD
ENDBRANCH  10  20
TORSDOF 1
