REMARK  Name = CHEMBL148977
REMARK  4 active torsions:
REMARK  status: ('A' for Active; 'I' for Inactive)
REMARK    1  A    between atoms: C_1  and  C_2
REMARK    2  A    between atoms: C_2  and  C_3
REMARK    3  A    between atoms: C_2  and  C_4
REMARK    4  A    between atoms: C_14  and  N_18
REMARK                            x       y       z     vdW  Elec       q    Type
REMARK                         _______ _______ _______ _____ _____    ______ ____
ROOT
ATOM      1  C   UNL     1      -1.429  -0.541   0.027  0.00  0.00    +0.050 A 
ATOM      2  C   UNL     1      -1.995  -1.330  -0.929  0.00  0.00    +0.071 A 
ATOM      3  C   UNL     1      -3.370  -1.598  -0.497  0.00  0.00    +0.104 A 
ATOM      4  N   UNL     1      -3.539  -0.979   0.645  0.00  0.00    -0.173 NA
ATOM      5  H   UNL     1      -2.211   0.201   1.789  0.00  0.00    +0.189 HD
ATOM      6  N   UNL     1      -2.350  -0.326   0.987  0.00  0.00    -0.280 N 
ATOM      7  C   UNL     1      -4.004  -2.457  -1.527  0.00  0.00    +0.015 A 
ATOM      8  C   UNL     1      -5.280  -2.998  -1.617  0.00  0.00    +0.011 A 
ATOM      9  C   UNL     1      -5.631  -3.783  -2.704  0.00  0.00    +0.002 A 
ATOM     10  C   UNL     1      -4.721  -4.035  -3.709  0.00  0.00    +0.024 A 
ATOM     11  C   UNL     1      -3.437  -3.504  -3.640  0.00  0.00    +0.046 A 
ATOM     12  C   UNL     1      -3.069  -2.709  -2.547  0.00  0.00    +0.053 A 
ATOM     13  C   UNL     1      -1.803  -2.026  -2.215  0.00  0.00    +0.199 C 
ATOM     14  O   UNL     1      -0.786  -2.035  -2.881  0.00  0.00    -0.286 OA
ENDROOT
BRANCH  11  15
ATOM     15  N   UNL     1      -2.520  -3.761  -4.656  0.00  0.00    -0.269 N 
ATOM     16  C   UNL     1      -2.954  -4.067  -5.894  0.00  0.00    +0.301 C 
ATOM     17  O   UNL     1      -4.141  -4.018  -6.152  0.00  0.00    -0.253 OA
ATOM     18  N   UNL     1      -2.072  -4.426  -6.848  0.00  0.00    -0.313 N 
ATOM     19  H   UNL     1      -1.569  -3.720  -4.471  0.00  0.00    +0.156 HD
ATOM     20  H   UNL     1      -1.125  -4.465  -6.643  0.00  0.00    +0.146 HD
ATOM     21  H   UNL     1      -2.385  -4.646  -7.739  0.00  0.00    +0.146 HD
ENDBRANCH  11  15
BRANCH   1  23
ATOM     22  C   UNL     1      -0.053   1.522   0.033  0.00  0.00    +0.014 C 
ATOM     23  C   UNL     1      -0.019  -0.007   0.016  0.00  0.00    +0.032 C 
ATOM     24  C   UNL     1       0.727  -0.514   1.252  0.00  0.00    +0.014 C 
ENDBRANCH   1  23
TORSDOF 2
