REMARK  Name = CHEMBL100012
REMARK  8 active torsions:
REMARK  status: ('A' for Active; 'I' for Inactive)
REMARK    1  A    between atoms: C_1  and  C_2
REMARK    2  A    between atoms: C_2  and  C_3
REMARK    3  A    between atoms: C_2  and  C_4
REMARK    4  A    between atoms: C_2  and  C_5
REMARK    5  A    between atoms: C_8  and  C_10
REMARK    6  A    between atoms: C_10  and  S_11
REMARK    7  A    between atoms: S_11  and  C_12
REMARK    8  A    between atoms: N_17  and  C_18
REMARK                            x       y       z     vdW  Elec       q    Type
REMARK                         _______ _______ _______ _____ _____    ______ ____
ROOT
ATOM      1  C   UNL     1       0.503  -4.995  -5.478  0.00  0.00    +0.067 A 
ATOM      2  C   UNL     1       0.878  -6.251  -5.843  0.00  0.00    +0.135 A 
ATOM      3  N   UNL     1       0.866  -6.591  -7.120  0.00  0.00    -0.232 NA
ATOM      4  C   UNL     1       0.495  -5.734  -8.054  0.00  0.00    +0.163 A 
ATOM      5  S   UNL     1       0.111  -4.290  -7.074  0.00  0.00    -0.046 S 
ATOM      6  N   UNL     1       0.420  -5.910  -9.431  0.00  0.00    -0.293 N 
ATOM      7  H   UNL     1       0.211  -5.157 -10.005  0.00  0.00    +0.154 HD
ENDROOT
BRANCH   6   8
ATOM      8  C   UNL     1       0.646  -7.171  -9.988  0.00  0.00    +0.051 A 
ATOM      9  C   UNL     1       0.452  -8.324  -9.229  0.00  0.00    +0.026 A 
ATOM     10  C   UNL     1       0.688  -9.552  -9.825  0.00  0.00    +0.021 A 
ATOM     11  C   UNL     1       1.105  -9.593 -11.143  0.00  0.00    +0.111 A 
ATOM     12  N   UNL     1       1.280  -8.484 -11.834  0.00  0.00    -0.261 NA
ATOM     13  C   UNL     1       1.061  -7.295 -11.307  0.00  0.00    +0.134 A 
ENDBRANCH   6   8
BRANCH   1  14
ATOM     14  S   UNL     1       0.419  -4.267  -3.875  0.00  0.00    -0.107 S 
BRANCH  14  15
ATOM     15  C   UNL     1      -0.172  -2.581  -4.189  0.00  0.00    +0.170 C 
BRANCH  15  19
ATOM     16  C   UNL     1      -1.090  -1.034  -1.032  0.00  0.00    +0.131 A 
ATOM     17  C   UNL     1       0.181  -0.621  -1.173  0.00  0.00    +0.156 A 
ATOM     18  N   UNL     1       0.651  -1.133  -2.324  0.00  0.00    -0.221 NA
ATOM     19  C   UNL     1      -0.290  -1.839  -2.883  0.00  0.00    +0.206 A 
ATOM     20  O   UNL     1      -1.378  -1.801  -2.103  0.00  0.00    -0.443 OA
BRANCH  16  22
ATOM     21  C   UNL     1      -2.212   0.808   0.190  0.00  0.00    +0.019 C 
ATOM     22  C   UNL     1      -2.016  -0.707   0.110  0.00  0.00    +0.022 C 
ATOM     23  C   UNL     1      -1.409  -1.213   1.420  0.00  0.00    +0.019 C 
ATOM     24  C   UNL     1      -3.369  -1.385  -0.120  0.00  0.00    +0.019 C 
ENDBRANCH  16  22
ENDBRANCH  15  19
ENDBRANCH  14  15
ENDBRANCH   1  14
TORSDOF 5
