REMARK  Name = CHEMBL373346
REMARK  6 active torsions:
REMARK  status: ('A' for Active; 'I' for Inactive)
REMARK    1  A    between atoms: C_1  and  C_2
REMARK    2  A    between atoms: C_2  and  C_3
REMARK    3  A    between atoms: C_2  and  C_16
REMARK    4  A    between atoms: C_6  and  N_9
REMARK    5  A    between atoms: N_18  and  C_19
REMARK    6  A    between atoms: C_21  and  C_25
REMARK                            x       y       z     vdW  Elec       q    Type
REMARK                         _______ _______ _______ _____ _____    ______ ____
ROOT
ATOM      1  C   UNL     1       0.221   1.499  -0.144  0.00  0.00    +0.022 C 
ATOM      2  C   UNL     1      -0.024  -0.002   0.018  0.00  0.00    +0.102 C 
ENDROOT
BRANCH   2   3
ATOM      3  C   UNL     1       0.711  -0.502   1.236  0.00  0.00    -0.036 A 
ATOM      4  C   UNL     1       2.085  -0.371   1.314  0.00  0.00    +0.006 A 
ATOM      5  C   UNL     1       2.761  -0.828   2.429  0.00  0.00    +0.024 A 
ATOM      6  C   UNL     1       2.059  -1.418   3.471  0.00  0.00    +0.041 A 
ATOM      7  C   UNL     1       0.679  -1.548   3.389  0.00  0.00    +0.024 A 
ATOM      8  C   UNL     1       0.008  -1.085   2.274  0.00  0.00    +0.006 A 
BRANCH   6   9
ATOM      9  N   UNL     1       2.742  -1.883   4.602  0.00  0.00    -0.245 N 
ATOM     10  C   UNL     1       2.855  -3.227   4.923  0.00  0.00    +0.012 C 
ATOM     11  C   UNL     1       2.351  -4.229   4.230  0.00  0.00    +0.029 C 
ATOM     12  C   UNL     1       3.655  -3.351   6.202  0.00  0.00    +0.060 C 
ATOM     13  C   UNL     1       3.986  -1.893   6.574  0.00  0.00    +0.102 C 
ATOM     14  C   UNL     1       3.352  -1.072   5.475  0.00  0.00    +0.224 C 
ATOM     15  O   UNL     1       3.389   0.138   5.397  0.00  0.00    -0.275 OA
ENDBRANCH   6   9
ENDBRANCH   2   3
BRANCH   2  16
ATOM     16  C   UNL     1       0.477  -0.728  -1.204  0.00  0.00    +0.225 C 
ATOM     17  O   UNL     1       1.345  -1.569  -1.097  0.00  0.00    -0.275 OA
ATOM     18  N   UNL     1      -0.039  -0.444  -2.416  0.00  0.00    -0.270 N 
ATOM     19  H   UNL     1      -0.734   0.228  -2.501  0.00  0.00    +0.156 HD
BRANCH  18  20
ATOM     20  C   UNL     1       0.424  -1.115  -3.547  0.00  0.00    +0.121 A 
ATOM     21  C   UNL     1       1.388  -2.076  -3.573  0.00  0.00    +0.068 A 
ATOM     22  C   UNL     1       1.549  -2.485  -4.899  0.00  0.00    +0.068 A 
ATOM     23  N   UNL     1       0.718  -1.802  -5.644  0.00  0.00    -0.177 NA
ATOM     24  H   UNL     1      -0.694  -0.314  -5.103  0.00  0.00    +0.190 HD
ATOM     25  N   UNL     1      -0.006  -0.935  -4.816  0.00  0.00    -0.264 N 
BRANCH  22  26
ATOM     26  C   UNL     1       2.514  -3.534  -5.388  0.00  0.00    +0.040 C 
ATOM     27  C   UNL     1       3.652  -3.940  -4.449  0.00  0.00    +0.010 C 
ATOM     28  C   UNL     1       3.948  -3.090  -5.687  0.00  0.00    +0.010 C 
ENDBRANCH  22  26
ENDBRANCH  18  20
ENDBRANCH   2  16
TORSDOF 5
