REMARK  Name = CHEMBL278894
REMARK  7 active torsions:
REMARK  status: ('A' for Active; 'I' for Inactive)
REMARK    1  A    between atoms: C_1  and  C_2
REMARK    2  A    between atoms: C_2  and  C_3
REMARK    3  A    between atoms: C_2  and  C_4
REMARK    4  A    between atoms: C_2  and  N_5
REMARK    5  A    between atoms: C_9  and  C_20
REMARK    6  A    between atoms: C_14  and  C_16
REMARK    7  A    between atoms: C_24  and  N_26
REMARK                            x       y       z     vdW  Elec       q    Type
REMARK                         _______ _______ _______ _____ _____    ______ ____
ROOT
ATOM      1  N   UNL     1       0.688  -0.476  -1.203  0.00  0.00    -0.324 N 
ATOM      2  C   UNL     1       2.001  -0.124  -1.432  0.00  0.00    +0.131 A 
ATOM      3  C   UNL     1       2.681  -0.566  -2.595  0.00  0.00    +0.041 A 
ATOM      4  C   UNL     1       2.061  -1.370  -3.555  0.00  0.00    +0.022 A 
ATOM      5  C   UNL     1       2.777  -1.769  -4.670  0.00  0.00    -0.017 A 
ATOM      6  C   UNL     1       4.112  -1.372  -4.838  0.00  0.00    +0.010 A 
ATOM      7  C   UNL     1       4.730  -0.590  -3.912  0.00  0.00    +0.029 A 
ATOM      8  C   UNL     1       4.029  -0.170  -2.772  0.00  0.00    +0.077 A 
ATOM      9  N   UNL     1       4.601   0.602  -1.836  0.00  0.00    -0.224 NA
ATOM     10  C   UNL     1       3.923   0.981  -0.779  0.00  0.00    +0.236 A 
ATOM     11  N   UNL     1       2.660   0.641  -0.573  0.00  0.00    -0.209 NA
ATOM     12  H   UNL     1       0.218  -1.037  -1.840  0.00  0.00    +0.148 HD
ENDROOT
BRANCH   5  13
ATOM     13  C   UNL     1       2.129  -2.623  -5.696  0.00  0.00    -0.016 A 
ATOM     14  C   UNL     1       0.800  -3.017  -5.539  0.00  0.00    +0.008 A 
ATOM     15  C   UNL     1       0.198  -3.811  -6.494  0.00  0.00    +0.002 A 
ATOM     16  C   UNL     1       0.908  -4.219  -7.607  0.00  0.00    +0.023 A 
ATOM     17  C   UNL     1       2.232  -3.831  -7.772  0.00  0.00    +0.025 A 
ATOM     18  C   UNL     1       2.843  -3.028  -6.820  0.00  0.00    +0.031 A 
BRANCH  17  19
ATOM     19  N   UNL     1       2.946  -4.245  -8.899  0.00  0.00    -0.358 N 
ATOM     20  H   UNL     1       2.518  -4.803  -9.566  0.00  0.00    +0.142 HD
ATOM     21  H   UNL     1       3.871  -3.974  -9.014  0.00  0.00    +0.142 HD
ENDBRANCH  17  19
ENDBRANCH   5  13
BRANCH   1  23
ATOM     22  C   UNL     1      -0.019   1.526   0.010  0.00  0.00    +0.031 C 
ATOM     23  C   UNL     1       0.002  -0.004   0.002  0.00  0.00    +0.025 C 
ATOM     24  C   UNL     1       0.742  -0.511   1.242  0.00  0.00    +0.031 C 
ATOM     25  C   UNL     1      -1.433  -0.534   0.013  0.00  0.00    +0.031 C 
ENDBRANCH   1  23
BRANCH  10  26
ATOM     26  C   UNL     1       4.610   1.848   0.244  0.00  0.00    +0.452 C 
ATOM     27  F   UNL     1       5.785   2.374  -0.304  0.00  0.00    -0.163 F 
ATOM     28  F   UNL     1       3.759   2.894   0.616  0.00  0.00    -0.163 F 
ATOM     29  F   UNL     1       4.925   1.080   1.370  0.00  0.00    -0.163 F 
ENDBRANCH  10  26
TORSDOF 4
