REMARK  Name = CHEMBL402910
REMARK  7 active torsions:
REMARK  status: ('A' for Active; 'I' for Inactive)
REMARK    1  A    between atoms: C_1  and  C_2
REMARK    2  A    between atoms: C_2  and  N_3
REMARK    3  A    between atoms: N_3  and  C_4
REMARK    4  A    between atoms: N_3  and  C_6
REMARK    5  A    between atoms: C_4  and  C_5
REMARK    6  A    between atoms: C_17  and  C_19
REMARK    7  A    between atoms: C_19  and  C_20
REMARK                            x       y       z     vdW  Elec       q    Type
REMARK                         _______ _______ _______ _____ _____    ______ ____
ROOT
ATOM      1  C   UNL     1      -2.017  -0.760   1.230  0.00  0.00    +0.030 A 
ATOM      2  C   UNL     1      -1.350  -0.518   2.431  0.00  0.00    +0.025 A 
ATOM      3  C   UNL     1      -1.962  -0.755   3.628  0.00  0.00    +0.029 A 
ATOM      4  C   UNL     1      -3.266  -1.243   3.662  0.00  0.00    +0.068 A 
ATOM      5  C   UNL     1      -3.948  -1.489   2.456  0.00  0.00    +0.043 A 
ATOM      6  C   UNL     1      -3.313  -1.238   1.236  0.00  0.00    +0.036 A 
ATOM      7  C   UNL     1      -5.273  -1.988   2.827  0.00  0.00    +0.154 A 
ATOM      8  N   UNL     1      -5.334  -2.021   4.132  0.00  0.00    -0.157 NA
ATOM      9  N   UNL     1      -4.127  -1.573   4.679  0.00  0.00    -0.275 N 
ATOM     10  H   UNL     1      -3.930  -1.506   5.626  0.00  0.00    +0.189 HD
ATOM     11  N   UNL     1      -6.291  -2.363   1.943  0.00  0.00    -0.268 N 
ATOM     12  C   UNL     1      -7.470  -2.808   2.422  0.00  0.00    +0.223 C 
ATOM     13  O   UNL     1      -7.648  -2.884   3.620  0.00  0.00    -0.275 OA
ATOM     14  H   UNL     1      -6.149  -2.303   0.985  0.00  0.00    +0.156 HD
ENDROOT
BRANCH   1  15
ATOM     15  N   UNL     1      -1.372  -0.511   0.012  0.00  0.00    -0.330 N 
BRANCH  15  17
ATOM     16  C   UNL     1      -0.019   1.526   0.010  0.00  0.00    +0.024 C 
ATOM     17  C   UNL     1       0.002  -0.004   0.002  0.00  0.00    +0.102 C 
ENDBRANCH  15  17
BRANCH  15  18
ATOM     18  C   UNL     1      -2.072  -0.758  -1.251  0.00  0.00    +0.102 C 
ATOM     19  C   UNL     1      -1.816  -2.197  -1.703  0.00  0.00    +0.024 C 
ENDBRANCH  15  18
ENDBRANCH   1  15
BRANCH  12  20
ATOM     20  C   UNL     1      -8.566  -3.212   1.471  0.00  0.00    +0.131 C 
BRANCH  20  21
ATOM     21  C   UNL     1      -9.769  -3.668   2.255  0.00  0.00    -0.039 A 
ATOM     22  C   UNL     1      -9.899  -4.997   2.611  0.00  0.00    +0.004 A 
ATOM     23  C   UNL     1     -11.002  -5.416   3.331  0.00  0.00    +0.000 A 
ATOM     24  C   UNL     1     -11.976  -4.505   3.694  0.00  0.00    +0.000 A 
ATOM     25  C   UNL     1     -11.847  -3.176   3.339  0.00  0.00    +0.000 A 
ATOM     26  C   UNL     1     -10.741  -2.756   2.623  0.00  0.00    +0.004 A 
ENDBRANCH  20  21
ENDBRANCH  12  20
TORSDOF 5
