REMARK  Name = CHEMBL256558
REMARK  4 active torsions:
REMARK  status: ('A' for Active; 'I' for Inactive)
REMARK    1  A    between atoms: C_1  and  C_2
REMARK    2  A    between atoms: C_5  and  C_8
REMARK    3  A    between atoms: C_8  and  C_9
REMARK    4  A    between atoms: C_15  and  N_22
REMARK                            x       y       z     vdW  Elec       q    Type
REMARK                         _______ _______ _______ _____ _____    ______ ____
ROOT
ATOM      1  C   UNL     1       1.487  -4.759  -0.032  0.00  0.00    +0.223 C 
ATOM      2  O   UNL     1       2.398  -3.959  -0.033  0.00  0.00    -0.275 OA
ATOM      3  N   UNL     1       1.750  -6.081  -0.041  0.00  0.00    -0.268 N 
ATOM      4  C   UNL     1       3.075  -6.530  -0.051  0.00  0.00    +0.154 A 
ATOM      5  C   UNL     1       3.514  -7.927  -0.066  0.00  0.00    +0.043 A 
ATOM      6  C   UNL     1       2.843  -9.154  -0.076  0.00  0.00    +0.038 A 
ATOM      7  C   UNL     1       3.571 -10.327  -0.090  0.00  0.00    +0.052 A 
ATOM      8  C   UNL     1       4.966 -10.289  -0.095  0.00  0.00    +0.027 A 
ATOM      9  C   UNL     1       5.632  -9.098  -0.086  0.00  0.00    +0.029 A 
ATOM     10  C   UNL     1       4.921  -7.900  -0.072  0.00  0.00    +0.068 A 
ATOM     11  N   UNL     1       5.292  -6.578  -0.060  0.00  0.00    -0.275 N 
ATOM     12  H   UNL     1       6.205  -6.251  -0.060  0.00  0.00    +0.189 HD
ATOM     13  N   UNL     1       4.144  -5.779  -0.053  0.00  0.00    -0.157 NA
ATOM     14  H   UNL     1       1.021  -6.721  -0.040  0.00  0.00    +0.156 HD
ENDROOT
BRANCH   7  15
ATOM     15  N   UNL     1       2.908 -11.559  -0.099  0.00  0.00    -0.207 N 
ATOM     16  C   UNL     1       1.548 -11.839   0.395  0.00  0.00    +0.133 C 
ATOM     17  C   UNL     1       0.910 -13.004  -0.385  0.00  0.00    +0.045 C 
ATOM     18  C   UNL     1       2.020 -14.095  -0.461  0.00  0.00    +0.190 C 
ATOM     19  S   UNL     1       3.494 -13.018  -0.681  0.00  0.00    +0.046 S 
ATOM     20  O   UNL     1       3.757 -12.798  -2.060  0.00  0.00    -0.155 OA
ATOM     21  O   UNL     1       4.530 -13.395   0.216  0.00  0.00    -0.155 OA
ENDBRANCH   7  15
BRANCH   1  22
ATOM     22  C   UNL     1       0.059  -4.275  -0.021  0.00  0.00    +0.131 C 
BRANCH  22  27
ATOM     23  C   UNL     1      -0.018   1.503   0.010  0.00  0.00    +0.044 C 
ATOM     24  C   UNL     1       0.002  -0.004   0.002  0.00  0.00    -0.050 A 
ATOM     25  C   UNL     1       0.006  -0.689  -1.199  0.00  0.00    +0.003 A 
ATOM     26  C   UNL     1       0.025  -2.071  -1.206  0.00  0.00    +0.004 A 
ATOM     27  C   UNL     1       0.040  -2.768  -0.013  0.00  0.00    -0.039 A 
ATOM     28  C   UNL     1       0.037  -2.084   1.188  0.00  0.00    +0.004 A 
ATOM     29  C   UNL     1       0.023  -0.702   1.195  0.00  0.00    +0.003 A 
ENDBRANCH  22  27
ENDBRANCH   1  22
TORSDOF 3
