REMARK  Name = CHEMBL188102
REMARK  6 active torsions:
REMARK  status: ('A' for Active; 'I' for Inactive)
REMARK    1  A    between atoms: C_1  and  C_2
REMARK    2  A    between atoms: C_2  and  C_3
REMARK    3  A    between atoms: C_7  and  C_11
REMARK    4  A    between atoms: C_11  and  C_12
REMARK    5  A    between atoms: C_12  and  C_13
REMARK    6  A    between atoms: N_19  and  C_21
REMARK                            x       y       z     vdW  Elec       q    Type
REMARK                         _______ _______ _______ _____ _____    ______ ____
ROOT
ATOM      1  C   UNL     1      -1.365  -0.796   0.022  0.00  0.00    +0.078 A 
ATOM      2  C   UNL     1      -2.106  -1.099   1.179  0.00  0.00    +0.106 A 
ATOM      3  C   UNL     1      -3.361  -1.569   0.760  0.00  0.00    +0.171 A 
ATOM      4  N   UNL     1      -4.266  -1.930   1.682  0.00  0.00    -0.214 NA
ATOM      5  C   UNL     1      -4.015  -1.857   2.957  0.00  0.00    +0.112 A 
ATOM      6  N   UNL     1      -2.832  -1.415   3.454  0.00  0.00    -0.310 N 
ATOM      7  C   UNL     1      -1.843  -1.024   2.616  0.00  0.00    +0.263 A 
ATOM      8  O   UNL     1      -0.775  -0.624   3.043  0.00  0.00    -0.267 OA
ATOM      9  N   UNL     1      -3.351  -1.542  -0.601  0.00  0.00    -0.211 N 
ATOM     10  N   UNL     1      -2.107  -1.054  -1.021  0.00  0.00    -0.169 NA
ATOM     11  H   UNL     1      -2.695  -1.380   4.413  0.00  0.00    +0.170 HD
ENDROOT
BRANCH   9  12
ATOM     12  C   UNL     1      -4.406  -1.929  -1.438  0.00  0.00    +0.104 A 
ATOM     13  C   UNL     1      -5.665  -1.361  -1.280  0.00  0.00    +0.069 A 
ATOM     14  C   UNL     1      -6.704  -1.746  -2.107  0.00  0.00    +0.042 A 
ATOM     15  C   UNL     1      -6.491  -2.695  -3.091  0.00  0.00    +0.044 A 
ATOM     16  C   UNL     1      -5.239  -3.262  -3.251  0.00  0.00    +0.042 A 
ATOM     17  C   UNL     1      -4.195  -2.877  -2.431  0.00  0.00    +0.069 A 
ATOM     18 CL   UNL     1      -2.623  -3.584  -2.637  0.00  0.00    -0.081 Cl
ATOM     19 CL   UNL     1      -7.799  -3.176  -4.127  0.00  0.00    -0.083 Cl
ATOM     20 CL   UNL     1      -5.932  -0.172  -0.044  0.00  0.00    -0.081 Cl
ENDBRANCH   9  12
BRANCH   1  22
ATOM     21  C   UNL     1       0.006   1.270   0.011  0.00  0.00    +0.010 C 
ATOM     22  C   UNL     1       0.043  -0.259  -0.009  0.00  0.00    +0.055 C 
ENDBRANCH   1  22
BRANCH   5  23
ATOM     23  C   UNL     1      -5.088  -2.282   3.926  0.00  0.00    +0.080 C 
BRANCH  23  24
ATOM     24  C   UNL     1      -6.364  -2.628   3.155  0.00  0.00    +0.062 C 
BRANCH  24  25
ATOM     25  C   UNL     1      -7.447  -3.018   4.127  0.00  0.00    +0.033 A 
ATOM     26  C   UNL     1      -7.635  -4.244   4.653  0.00  0.00    +0.105 A 
ATOM     27  N   UNL     1      -8.721  -4.158   5.481  0.00  0.00    -0.352 N 
ATOM     28  H   UNL     1      -9.105  -4.879   6.004  0.00  0.00    +0.166 HD
ATOM     29  C   UNL     1      -9.160  -2.882   5.433  0.00  0.00    +0.171 A 
ATOM     30  N   UNL     1      -8.390  -2.205   4.625  0.00  0.00    -0.350 N 
ATOM     31  H   UNL     1      -8.486  -1.262   4.416  0.00  0.00    +0.166 HD
ENDBRANCH  24  25
ENDBRANCH  23  24
ENDBRANCH   5  23
TORSDOF 5
