REMARK  Name = CHEMBL361862
REMARK  4 active torsions:
REMARK  status: ('A' for Active; 'I' for Inactive)
REMARK    1  A    between atoms: C_3  and  S_23
REMARK    2  A    between atoms: C_6  and  N_7
REMARK    3  A    between atoms: C_10  and  C_12
REMARK    4  A    between atoms: S_23  and  N_26
REMARK                            x       y       z     vdW  Elec       q    Type
REMARK                         _______ _______ _______ _____ _____    ______ ____
ROOT
ATOM      1  N   UNL     1      -1.200  -0.722   0.010  0.00  0.00    -0.231 N 
ATOM      2  C   UNL     1      -1.459  -1.843  -0.688  0.00  0.00    +0.082 A 
ATOM      3  C   UNL     1      -2.738  -2.260  -0.380  0.00  0.00    +0.011 A 
ATOM      4  C   UNL     1      -3.273  -1.322   0.510  0.00  0.00    +0.151 A 
ATOM      5  N   UNL     1      -2.350  -0.405   0.753  0.00  0.00    -0.161 NA
ATOM      6  C   UNL     1      -3.348  -3.524  -0.918  0.00  0.00    +0.046 C 
ATOM      7  C   UNL     1      -2.836  -3.853  -2.321  0.00  0.00    +0.063 C 
ATOM      8  C   UNL     1      -1.350  -3.631  -2.424  0.00  0.00    +0.072 A 
ATOM      9  C   UNL     1      -0.674  -2.639  -1.652  0.00  0.00    +0.041 A 
ATOM     10  C   UNL     1       0.626  -2.655  -1.995  0.00  0.00    +0.115 A 
ATOM     11  N   UNL     1       0.787  -3.629  -2.921  0.00  0.00    -0.284 N 
ATOM     12  N   UNL     1      -0.463  -4.221  -3.160  0.00  0.00    -0.178 NA
ATOM     13  H   UNL     1       1.623  -3.876  -3.347  0.00  0.00    +0.188 HD
ENDROOT
BRANCH   1  19
ATOM     14  C   UNL     1       0.661   0.235  -1.196  0.00  0.00    +0.030 A 
ATOM     15  C   UNL     1       1.847   0.944  -1.201  0.00  0.00    +0.030 A 
ATOM     16  C   UNL     1       2.377   1.415  -0.014  0.00  0.00    +0.105 A 
ATOM     17  C   UNL     1       1.723   1.178   1.181  0.00  0.00    +0.030 A 
ATOM     18  C   UNL     1       0.537   0.470   1.192  0.00  0.00    +0.030 A 
ATOM     19  C   UNL     1       0.002  -0.004   0.002  0.00  0.00    +0.066 A 
BRANCH  16  20
ATOM     20  S   UNL     1       3.890   2.318  -0.024  0.00  0.00    +0.056 S 
ATOM     21  O   UNL     1       4.455   2.178   1.272  0.00  0.00    -0.153 OA
ATOM     22  O   UNL     1       4.584   1.935  -1.203  0.00  0.00    -0.153 OA
BRANCH  20  23
ATOM     23  N   UNL     1       3.504   3.919  -0.202  0.00  0.00    -0.204 NA
ATOM     24  H   UNL     1       4.075   4.601   0.183  0.00  0.00    +0.144 HD
ATOM     25  H   UNL     1       2.706   4.174  -0.691  0.00  0.00    +0.144 HD
ENDBRANCH  20  23
ENDBRANCH  16  20
ENDBRANCH   1  19
BRANCH   4  26
ATOM     26  C   UNL     1      -4.633  -1.353   1.086  0.00  0.00    +0.262 C 
ATOM     27  O   UNL     1      -5.396  -2.253   0.793  0.00  0.00    -0.269 OA
ATOM     28  N   UNL     1      -5.028  -0.385   1.936  0.00  0.00    -0.324 N 
ATOM     29  H   UNL     1      -4.419   0.333   2.169  0.00  0.00    +0.145 HD
ATOM     30  H   UNL     1      -5.921  -0.406   2.313  0.00  0.00    +0.145 HD
ENDBRANCH   4  26
TORSDOF 4
