REMARK  Name = CHEMBL560817
REMARK  5 active torsions:
REMARK  status: ('A' for Active; 'I' for Inactive)
REMARK    1  A    between atoms: C_1  and  N_2
REMARK    2  A    between atoms: C_5  and  C_7
REMARK    3  A    between atoms: N_18  and  C_19
REMARK    4  A    between atoms: C_22  and  N_25
REMARK    5  A    between atoms: N_28  and  C_31
REMARK                            x       y       z     vdW  Elec       q    Type
REMARK                         _______ _______ _______ _____ _____    ______ ____
ROOT
ATOM      1  C   UNL     1      -0.787   1.525  -0.133  0.00  0.00    +0.173 C 
ATOM      2  N   UNL     1      -0.600   0.073  -0.068  0.00  0.00    -0.264 N 
ATOM      3  C   UNL     1      -0.307  -0.718  -1.118  0.00  0.00    +0.091 A 
ATOM      4  C   UNL     1      -0.193  -2.004  -0.634  0.00  0.00    +0.012 A 
ATOM      5  C   UNL     1      -0.455  -1.916   0.734  0.00  0.00    +0.151 A 
ATOM      6  N   UNL     1      -0.685  -0.639   1.005  0.00  0.00    -0.166 NA
ATOM      7  C   UNL     1       0.166  -3.167  -1.511  0.00  0.00    +0.044 C 
ATOM      8  C   UNL     1      -0.373  -2.936  -2.923  0.00  0.00    +0.043 C 
ATOM      9  C   UNL     1      -0.102  -1.546  -3.421  0.00  0.00    -0.001 A 
ATOM     10  C   UNL     1      -0.092  -0.447  -2.550  0.00  0.00    +0.097 A 
ATOM     11  N   UNL     1       0.112   0.771  -3.026  0.00  0.00    -0.212 NA
ATOM     12  C   UNL     1       0.330   0.951  -4.323  0.00  0.00    +0.220 A 
ATOM     13  N   UNL     1       0.350  -0.068  -5.170  0.00  0.00    -0.222 NA
ATOM     14  C   UNL     1       0.140  -1.310  -4.761  0.00  0.00    +0.120 A 
ATOM     15  N   UNL     1       0.539   2.233  -4.802  0.00  0.00    -0.284 N 
ATOM     16  H   UNL     1       0.608   2.977  -4.183  0.00  0.00    +0.155 HD
ENDROOT
BRANCH  15  17
ATOM     17  C   UNL     1       0.652   2.456  -6.181  0.00  0.00    +0.034 A 
ATOM     18  C   UNL     1      -0.143   1.741  -7.067  0.00  0.00    +0.025 A 
ATOM     19  C   UNL     1      -0.031   1.960  -8.425  0.00  0.00    +0.025 A 
ATOM     20  C   UNL     1       0.876   2.896  -8.906  0.00  0.00    +0.030 A 
ATOM     21  C   UNL     1       1.671   3.611  -8.019  0.00  0.00    +0.025 A 
ATOM     22  C   UNL     1       1.556   3.395  -6.660  0.00  0.00    +0.025 A 
BRANCH  20  23
ATOM     23  N   UNL     1       0.990   3.118 -10.283  0.00  0.00    -0.327 N 
ATOM     24  C   UNL     1       2.030   4.008 -10.821  0.00  0.00    +0.120 C 
ATOM     25  C   UNL     1       2.785   3.263 -11.927  0.00  0.00    +0.103 C 
ATOM     26  N   UNL     1       1.824   2.760 -12.918  0.00  0.00    -0.302 NA
ATOM     27  C   UNL     1       0.905   1.782 -12.320  0.00  0.00    +0.103 C 
ATOM     28  C   UNL     1       0.077   2.462 -11.231  0.00  0.00    +0.120 C 
ATOM     29  C   UNL     1       2.517   2.190 -14.081  0.00  0.00    +0.105 C 
ENDBRANCH  20  23
ENDBRANCH  15  17
BRANCH   5  30
ATOM     30  C   UNL     1      -0.467  -3.034   1.699  0.00  0.00    +0.262 C 
ATOM     31  O   UNL     1      -0.233  -4.166   1.321  0.00  0.00    -0.269 OA
ATOM     32  N   UNL     1      -0.738  -2.800   2.998  0.00  0.00    -0.324 N 
ATOM     33  H   UNL     1      -0.924  -1.897   3.300  0.00  0.00    +0.145 HD
ATOM     34  H   UNL     1      -0.746  -3.534   3.632  0.00  0.00    +0.145 HD
ENDBRANCH   5  30
TORSDOF 3
