REMARK  Name = CHEMBL407981
REMARK  8 active torsions:
REMARK  status: ('A' for Active; 'I' for Inactive)
REMARK    1  A    between atoms: C_1  and  C_2
REMARK    2  A    between atoms: C_2  and  N_3
REMARK    3  A    between atoms: N_6  and  C_9
REMARK    4  A    between atoms: C_9  and  C_10
REMARK    5  A    between atoms: C_10  and  C_11
REMARK    6  A    between atoms: C_11  and  C_12
REMARK    7  A    between atoms: C_19  and  C_25
REMARK    8  A    between atoms: C_28  and  O_31
REMARK                            x       y       z     vdW  Elec       q    Type
REMARK                         _______ _______ _______ _____ _____    ______ ____
ROOT
ATOM      1  C   UNL     1       3.970  -6.014   5.186  0.00  0.00    +0.218 C 
ATOM      2  O   UNL     1       3.257  -6.625   4.417  0.00  0.00    -0.275 OA
ATOM      3  N   UNL     1       4.604  -6.668   6.179  0.00  0.00    -0.268 N 
ATOM      4  C   UNL     1       4.441  -8.050   6.324  0.00  0.00    +0.156 A 
ATOM      5  C   UNL     1       5.056  -8.890   7.350  0.00  0.00    +0.061 A 
ATOM      6  C   UNL     1       5.922  -8.642   8.423  0.00  0.00    +0.032 A 
ATOM      7  C   UNL     1       6.308  -9.697   9.203  0.00  0.00    +0.045 A 
ATOM      8  C   UNL     1       5.832 -10.981   8.911  0.00  0.00    +0.087 A 
ATOM      9  N   UNL     1       5.014 -11.196   7.893  0.00  0.00    -0.227 NA
ATOM     10  C   UNL     1       4.612 -10.205   7.108  0.00  0.00    +0.158 A 
ATOM     11  N   UNL     1       3.791 -10.147   6.014  0.00  0.00    -0.258 N 
ATOM     12  H   UNL     1       3.336 -10.904   5.613  0.00  0.00    +0.191 HD
ATOM     13  N   UNL     1       3.707  -8.824   5.569  0.00  0.00    -0.156 NA
ATOM     14 BR   UNL     1       7.476  -9.424  10.665  0.00  0.00    -0.048 Br
ATOM     15  H   UNL     1       5.174  -6.180   6.794  0.00  0.00    +0.156 HD
ENDROOT
BRANCH   8  16
ATOM     16  C   UNL     1       6.253 -12.122   9.758  0.00  0.00    +0.002 A 
ATOM     17  C   UNL     1       6.249 -11.999  11.148  0.00  0.00    +0.013 A 
ATOM     18  C   UNL     1       6.641 -13.062  11.933  0.00  0.00    +0.046 A 
ATOM     19  C   UNL     1       7.040 -14.254  11.342  0.00  0.00    +0.117 A 
ATOM     20  C   UNL     1       7.046 -14.379   9.959  0.00  0.00    +0.046 A 
ATOM     21  C   UNL     1       6.649 -13.322   9.168  0.00  0.00    +0.013 A 
BRANCH  19  22
ATOM     22  O   UNL     1       7.427 -15.299  12.119  0.00  0.00    -0.507 OA
ATOM     23  H   UNL     1       6.705 -15.893  12.367  0.00  0.00    +0.292 HD
ENDBRANCH  19  22
ENDBRANCH   8  16
BRANCH   1  24
ATOM     24  C   UNL     1       4.146  -4.526   5.030  0.00  0.00    +0.094 C 
BRANCH  24  25
ATOM     25  C   UNL     1       3.324  -4.037   3.835  0.00  0.00    -0.009 C 
BRANCH  25  26
ATOM     26  C   UNL     1       3.502  -2.526   3.677  0.00  0.00    -0.078 C 
BRANCH  26  30
ATOM     27  N   UNL     1       0.739  -0.362   1.352  0.00  0.00    -0.306 NA
ATOM     28  C   UNL     1       2.171  -0.145   1.099  0.00  0.00    +0.066 C 
ATOM     29  C   UNL     1       2.978  -0.630   2.305  0.00  0.00    -0.063 C 
ATOM     30  N   UNL     1       2.713  -2.057   2.530  0.00  0.00    +0.381 N 
ATOM     31  C   UNL     1       1.284  -2.255   2.806  0.00  0.00    -0.063 C 
ATOM     32  C   UNL     1       0.463  -1.784   1.604  0.00  0.00    +0.066 C 
ATOM     33  H   UNL     1       2.973  -2.581   1.708  0.00  0.00    -0.082 HD
BRANCH  27  35
ATOM     34  C   UNL     1       0.050   1.666   0.166  0.00  0.00    +0.020 C 
ATOM     35  C   UNL     1      -0.075   0.143   0.238  0.00  0.00    +0.081 C 
ENDBRANCH  27  35
ENDBRANCH  26  30
ENDBRANCH  25  26
ENDBRANCH  24  25
ENDBRANCH   1  24
TORSDOF 7
