REMARK  Name = CHEMBL358281
REMARK  6 active torsions:
REMARK  status: ('A' for Active; 'I' for Inactive)
REMARK    1  A    between atoms: C_1  and  O_2
REMARK    2  A    between atoms: O_2  and  C_3
REMARK    3  A    between atoms: C_6  and  C_9
REMARK    4  A    between atoms: C_19  and  N_23
REMARK    5  A    between atoms: N_26  and  C_27
REMARK    6  A    between atoms: C_27  and  C_28
REMARK                            x       y       z     vdW  Elec       q    Type
REMARK                         _______ _______ _______ _____ _____    ______ ____
ROOT
ATOM      1  C   UNL     1       2.500  -2.486  -4.385  0.00  0.00    +0.077 A 
ATOM      2  C   UNL     1       2.001  -3.560  -5.109  0.00  0.00    +0.075 A 
ATOM      3  C   UNL     1       2.985  -3.854  -6.154  0.00  0.00    +0.105 A 
ATOM      4  N   UNL     1       3.966  -2.997  -6.017  0.00  0.00    -0.173 NA
ATOM      5  N   UNL     1       3.694  -2.142  -4.944  0.00  0.00    -0.276 N 
ATOM      6  H   UNL     1       4.266  -1.419  -4.644  0.00  0.00    +0.189 HD
ATOM      7  C   UNL     1       2.471  -5.001  -6.942  0.00  0.00    +0.015 A 
ATOM      8  C   UNL     1       2.997  -5.679  -8.035  0.00  0.00    +0.011 A 
ATOM      9  C   UNL     1       2.305  -6.739  -8.598  0.00  0.00    +0.002 A 
ATOM     10  C   UNL     1       1.088  -7.134  -8.082  0.00  0.00    +0.024 A 
ATOM     11  C   UNL     1       0.541  -6.470  -6.989  0.00  0.00    +0.046 A 
ATOM     12  C   UNL     1       1.232  -5.397  -6.410  0.00  0.00    +0.053 A 
ATOM     13  C   UNL     1       0.902  -4.523  -5.266  0.00  0.00    +0.200 C 
ATOM     14  O   UNL     1      -0.098  -4.589  -4.577  0.00  0.00    -0.286 OA
ENDROOT
BRANCH   1  18
ATOM     15  C   UNL     1       0.642  -0.610  -1.059  0.00  0.00    +0.120 A 
ATOM     16  C   UNL     1       1.198   0.164  -2.070  0.00  0.00    +0.046 A 
ATOM     17  C   UNL     1       1.801  -0.440  -3.151  0.00  0.00    +0.013 A 
ATOM     18  C   UNL     1       1.855  -1.834  -3.229  0.00  0.00    +0.001 A 
ATOM     19  C   UNL     1       1.295  -2.610  -2.210  0.00  0.00    +0.013 A 
ATOM     20  C   UNL     1       0.698  -1.997  -1.131  0.00  0.00    +0.046 A 
BRANCH  15  22
ATOM     21  C   UNL     1       0.025   1.418   0.014  0.00  0.00    +0.277 C 
ATOM     22  O   UNL     1       0.047  -0.011   0.004  0.00  0.00    -0.495 OA
ENDBRANCH  15  22
ENDBRANCH   1  18
BRANCH  11  23
ATOM     23  N   UNL     1      -0.688  -6.870  -6.472  0.00  0.00    -0.269 N 
ATOM     24  C   UNL     1      -1.115  -8.135  -6.653  0.00  0.00    +0.304 C 
ATOM     25  O   UNL     1      -0.385  -8.954  -7.177  0.00  0.00    -0.252 OA
ATOM     26  N   UNL     1      -2.351  -8.493  -6.252  0.00  0.00    -0.295 N 
ATOM     27  H   UNL     1      -1.236  -6.238  -5.982  0.00  0.00    +0.156 HD
ATOM     28  H   UNL     1      -2.933  -7.839  -5.834  0.00  0.00    +0.151 HD
BRANCH  26  29
ATOM     29  C   UNL     1      -2.815  -9.868  -6.448  0.00  0.00    +0.141 C 
BRANCH  29  30
ATOM     30  C   UNL     1      -4.220 -10.005  -5.918  0.00  0.00    -0.030 A 
ATOM     31  C   UNL     1      -4.429 -10.362  -4.599  0.00  0.00    +0.005 A 
ATOM     32  C   UNL     1      -5.717 -10.487  -4.113  0.00  0.00    +0.000 A 
ATOM     33  C   UNL     1      -6.795 -10.255  -4.946  0.00  0.00    +0.000 A 
ATOM     34  C   UNL     1      -6.586  -9.897  -6.264  0.00  0.00    +0.000 A 
ATOM     35  C   UNL     1      -5.298  -9.767  -6.750  0.00  0.00    +0.005 A 
ENDBRANCH  29  30
ENDBRANCH  26  29
ENDBRANCH  11  23
TORSDOF 5
