REMARK  Name = CHEMBL312657
REMARK  7 active torsions:
REMARK  status: ('A' for Active; 'I' for Inactive)
REMARK    1  A    between atoms: C_1  and  C_2
REMARK    2  A    between atoms: C_2  and  C_3
REMARK    3  A    between atoms: C_3  and  C_4
REMARK    4  A    between atoms: C_4  and  O_5
REMARK    5  A    between atoms: O_5  and  C_6
REMARK    6  A    between atoms: C_7  and  C_15
REMARK    7  A    between atoms: C_15  and  C_17
REMARK                            x       y       z     vdW  Elec       q    Type
REMARK                         _______ _______ _______ _____ _____    ______ ____
ROOT
ATOM      1  C   UNL     1       1.554  -3.858   2.522  0.00  0.00    +0.145 A 
ATOM      2  C   UNL     1       0.582  -4.593   3.219  0.00  0.00    +0.086 A 
ATOM      3  C   UNL     1       0.745  -5.977   3.357  0.00  0.00    +0.128 A 
ATOM      4  N   UNL     1       1.783  -6.598   2.850  0.00  0.00    -0.235 NA
ATOM      5  C   UNL     1       2.735  -5.951   2.179  0.00  0.00    +0.159 A 
ATOM      6  N   UNL     1       3.887  -6.356   1.568  0.00  0.00    -0.260 N 
ATOM      7  N   UNL     1       4.525  -5.247   1.005  0.00  0.00    -0.180 NA
ATOM      8  C   UNL     1       3.831  -4.169   1.232  0.00  0.00    +0.148 A 
ATOM      9  C   UNL     1       2.647  -4.559   1.989  0.00  0.00    +0.081 A 
ATOM     10  H   UNL     1       4.212  -7.269   1.531  0.00  0.00    +0.191 HD
ENDROOT
BRANCH   2  11
ATOM     11  C   UNL     1      -0.594  -3.917   3.799  0.00  0.00    +0.233 C 
ATOM     12  O   UNL     1      -0.675  -2.702   3.765  0.00  0.00    -0.283 OA
BRANCH  11  13
ATOM     13  C   UNL     1      -1.664  -4.707   4.414  0.00  0.00    +0.175 A 
ATOM     14  C   UNL     1      -2.848  -4.220   4.894  0.00  0.00    +0.053 A 
ATOM     15  C   UNL     1      -3.564  -5.319   5.391  0.00  0.00    +0.042 A 
ATOM     16  C   UNL     1      -2.797  -6.415   5.196  0.00  0.00    +0.196 A 
ATOM     17  O   UNL     1      -1.656  -6.043   4.602  0.00  0.00    -0.460 OA
ENDBRANCH  11  13
ENDBRANCH   2  11
BRANCH   1  18
ATOM     18  O   UNL     1       1.438  -2.518   2.364  0.00  0.00    -0.490 OA
BRANCH  18  19
ATOM     19  C   UNL     1       0.737  -2.060   1.206  0.00  0.00    +0.229 C 
BRANCH  19  20
ATOM     20  C   UNL     1       0.709  -0.530   1.200  0.00  0.00    +0.041 C 
BRANCH  20  22
ATOM     21  C   UNL     1      -0.069   1.490  -0.047  0.00  0.00    +0.004 C 
ATOM     22  C   UNL     1      -0.041  -0.039  -0.040  0.00  0.00    -0.000 C 
ENDBRANCH  20  22
ENDBRANCH  19  20
ENDBRANCH  18  19
ENDBRANCH   1  18
TORSDOF 6
