REMARK  Name = CHEMBL373300
REMARK  2 active torsions:
REMARK  status: ('A' for Active; 'I' for Inactive)
REMARK    1  A    between atoms: N_5  and  C_25
REMARK    2  A    between atoms: C_16  and  N_19
REMARK                            x       y       z     vdW  Elec       q    Type
REMARK                         _______ _______ _______ _____ _____    ______ ____
ROOT
ATOM      1  C   UNL     1      -0.011   1.455   0.077  0.00  0.00    +0.018 A 
ATOM      2  C   UNL     1       1.177   2.114   0.072  0.00  0.00    +0.071 A 
ATOM      3  C   UNL     1       2.388   1.393   0.043  0.00  0.00    +0.253 A 
ATOM      4  O   UNL     1       3.442   2.004   0.039  0.00  0.00    -0.268 OA
ATOM      5  N   UNL     1       2.411   0.048   0.020  0.00  0.00    -0.290 N 
ATOM      6  C   UNL     1       1.248  -0.677   0.024  0.00  0.00    +0.149 A 
ATOM      7  C   UNL     1       0.007  -0.004   0.051  0.00  0.00    +0.036 A 
ATOM      8  C   UNL     1      -1.170  -0.761   0.054  0.00  0.00    +0.126 A 
ATOM      9  N   UNL     1      -1.071  -2.078   0.030  0.00  0.00    -0.222 NA
ATOM     10  C   UNL     1       0.113  -2.679   0.004  0.00  0.00    +0.222 A 
ATOM     11  N   UNL     1       1.253  -2.004   0.001  0.00  0.00    -0.196 NA
ATOM     12  N   UNL     1       0.158  -4.060  -0.021  0.00  0.00    -0.268 N 
ATOM     13  C   UNL     1      -1.020  -4.798   0.090  0.00  0.00    +0.125 A 
ATOM     14  C   UNL     1      -0.958  -6.185   0.172  0.00  0.00    +0.045 A 
ATOM     15  C   UNL     1      -2.132  -6.907   0.283  0.00  0.00    +0.028 A 
ATOM     16  C   UNL     1      -3.340  -6.211   0.308  0.00  0.00    +0.048 A 
ATOM     17  C   UNL     1      -3.325  -4.827   0.222  0.00  0.00    +0.136 A 
ATOM     18  N   UNL     1      -2.185  -4.170   0.122  0.00  0.00    -0.238 NA
ATOM     19  H   UNL     1       1.009  -4.516  -0.116  0.00  0.00    +0.156 HD
ENDROOT
BRANCH  16  20
ATOM     20  N   UNL     1      -4.553  -6.901   0.419  0.00  0.00    -0.332 N 
ATOM     21  C   UNL     1      -4.578  -8.355   0.640  0.00  0.00    +0.086 C 
ATOM     22  C   UNL     1      -5.507  -8.651   1.823  0.00  0.00    -0.063 C 
ATOM     23  N   UNL     1      -6.824  -8.053   1.570  0.00  0.00    +0.381 N 
ATOM     24  C   UNL     1      -6.707  -6.590   1.515  0.00  0.00    -0.063 C 
ATOM     25  C   UNL     1      -5.838  -6.192   0.323  0.00  0.00    +0.086 C 
ATOM     26  H   UNL     1      -7.184  -8.393   0.691  0.00  0.00    -0.086 HD
ATOM     27  H   UNL     1      -7.457  -8.310   2.312  0.00  0.00    -0.086 HD
ENDBRANCH  16  20
BRANCH   5  28
ATOM     28  C   UNL     1       3.698  -0.651  -0.009  0.00  0.00    +0.092 C 
ATOM     29  C   UNL     1       4.508  -0.281   1.235  0.00  0.00    +0.025 C 
ATOM     30  C   UNL     1       5.852  -1.012   1.205  0.00  0.00    +0.002 C 
ATOM     31  C   UNL     1       6.627  -0.600  -0.049  0.00  0.00    +0.000 C 
ATOM     32  C   UNL     1       5.818  -0.970  -1.293  0.00  0.00    +0.002 C 
ATOM     33  C   UNL     1       4.473  -0.240  -1.263  0.00  0.00    +0.025 C 
ENDBRANCH   5  28
TORSDOF 2
