REMARK  Name = CHEMBL139653
REMARK  7 active torsions:
REMARK  status: ('A' for Active; 'I' for Inactive)
REMARK    1  A    between atoms: C_3  and  N_26
REMARK    2  A    between atoms: C_6  and  N_7
REMARK    3  A    between atoms: N_16  and  C_19
REMARK    4  A    between atoms: C_29  and  C_32
REMARK    5  A    between atoms: C_32  and  C_33
REMARK    6  A    between atoms: C_33  and  C_34
REMARK    7  A    between atoms: C_34  and  O_35
REMARK                            x       y       z     vdW  Elec       q    Type
REMARK                         _______ _______ _______ _____ _____    ______ ____
ROOT
ATOM      1  N   UNL     1      -1.340  -0.451   0.560  0.00  0.00    -0.284 N 
ATOM      2  C   UNL     1      -2.458   0.060  -0.071  0.00  0.00    +0.221 A 
ATOM      3  N   UNL     1      -2.381   1.259  -0.637  0.00  0.00    -0.222 NA
ATOM      4  C   UNL     1      -3.420   1.793  -1.254  0.00  0.00    +0.126 A 
ATOM      5  C   UNL     1      -4.614   1.065  -1.299  0.00  0.00    +0.036 A 
ATOM      6  C   UNL     1      -5.810   1.580  -1.960  0.00  0.00    +0.018 A 
ATOM      7  C   UNL     1      -6.928   0.809  -1.959  0.00  0.00    +0.071 A 
ATOM      8  C   UNL     1      -6.919  -0.453  -1.332  0.00  0.00    +0.253 A 
ATOM      9  O   UNL     1      -7.934  -1.128  -1.343  0.00  0.00    -0.268 OA
ATOM     10  N   UNL     1      -5.821  -0.934  -0.722  0.00  0.00    -0.289 N 
ATOM     11  C   UNL     1      -4.659  -0.206  -0.687  0.00  0.00    +0.149 A 
ATOM     12  N   UNL     1      -3.565  -0.668  -0.094  0.00  0.00    -0.196 NA
ATOM     13  H   UNL     1      -1.361  -1.346   0.933  0.00  0.00    +0.155 HD
ENDROOT
BRANCH  10  14
ATOM     14  C   UNL     1      -5.867  -2.253  -0.087  0.00  0.00    +0.096 C 
ATOM     15  C   UNL     1      -6.703  -2.196   1.212  0.00  0.00    +0.029 C 
ATOM     16  C   UNL     1      -5.705  -2.595   2.341  0.00  0.00    -0.009 C 
ATOM     17  C   UNL     1      -5.440  -4.114   2.109  0.00  0.00    +0.004 C 
ATOM     18  C   UNL     1      -4.604  -4.171   0.810  0.00  0.00    +0.006 C 
ATOM     19  C   UNL     1      -4.442  -2.681   0.380  0.00  0.00    +0.012 C 
ATOM     20  C   UNL     1      -4.374  -1.980   1.783  0.00  0.00    +0.009 C 
ENDBRANCH  10  14
BRANCH   1  26
ATOM     21  C   UNL     1      -0.270   1.705   0.748  0.00  0.00    +0.025 A 
ATOM     22  C   UNL     1       0.878   2.466   0.847  0.00  0.00    +0.023 A 
ATOM     23  C   UNL     1       2.117   1.852   0.858  0.00  0.00    +0.014 A 
ATOM     24  C   UNL     1       2.211   0.475   0.770  0.00  0.00    +0.023 A 
ATOM     25  C   UNL     1       1.066  -0.292   0.671  0.00  0.00    +0.025 A 
ATOM     26  C   UNL     1      -0.180   0.322   0.660  0.00  0.00    +0.034 A 
BRANCH  23  27
ATOM     27  N   UNL     1       3.278   2.625   0.957  0.00  0.00    -0.393 NA
ATOM     28  C   UNL     1       4.113   2.406  -0.230  0.00  0.00    +0.085 C 
ATOM     29  C   UNL     1       5.346   3.310  -0.165  0.00  0.00    +0.021 C 
ATOM     30  C   UNL     1       6.150   2.978   1.095  0.00  0.00    -0.008 C 
ATOM     31  C   UNL     1       5.247   3.138   2.322  0.00  0.00    +0.021 C 
ATOM     32  C   UNL     1       4.018   2.240   2.165  0.00  0.00    +0.085 C 
ATOM     33  H   UNL     1       3.027   3.600   1.014  0.00  0.00    +0.126 HD
BRANCH  30  34
ATOM     34  C   UNL     1       7.341   3.932   1.209  0.00  0.00    +0.006 C 
BRANCH  34  35
ATOM     35  C   UNL     1       8.212   3.521   2.397  0.00  0.00    +0.028 C 
BRANCH  35  36
ATOM     36  C   UNL     1       9.403   4.475   2.510  0.00  0.00    +0.156 C 
BRANCH  36  37
ATOM     37  O   UNL     1      10.217   4.091   3.620  0.00  0.00    -0.395 OA
ATOM     38  H   UNL     1      10.992   4.653   3.753  0.00  0.00    +0.209 HD
ENDBRANCH  36  37
ENDBRANCH  35  36
ENDBRANCH  34  35
ENDBRANCH  30  34
ENDBRANCH  23  27
ENDBRANCH   1  26
TORSDOF 7
