REMARK  Name = CHEMBL488256
REMARK  7 active torsions:
REMARK  status: ('A' for Active; 'I' for Inactive)
REMARK    1  A    between atoms: C_1  and  C_2
REMARK    2  A    between atoms: C_5  and  C_11
REMARK    3  A    between atoms: N_6  and  C_7
REMARK    4  A    between atoms: C_7  and  C_8
REMARK    5  A    between atoms: N_17  and  C_18
REMARK    6  A    between atoms: C_21  and  C_24
REMARK    7  A    between atoms: N_26  and  C_27
REMARK                            x       y       z     vdW  Elec       q    Type
REMARK                         _______ _______ _______ _____ _____    ______ ____
ROOT
ATOM      1  C   UNL     1       0.319  -3.220   1.391  0.00  0.00    +0.094 A 
ATOM      2  C   UNL     1       0.617  -3.190   2.759  0.00  0.00    +0.050 A 
ATOM      3  C   UNL     1       0.600  -4.379   3.463  0.00  0.00    +0.116 A 
ATOM      4  N   UNL     1       0.303  -5.504   2.828  0.00  0.00    -0.223 NA
ATOM      5  C   UNL     1       0.025  -5.505   1.533  0.00  0.00    +0.220 A 
ATOM      6  N   UNL     1       0.025  -4.389   0.820  0.00  0.00    -0.213 NA
ATOM      7  N   UNL     1      -0.279  -6.704   0.909  0.00  0.00    -0.284 N 
ATOM      8  H   UNL     1      -0.404  -6.732  -0.053  0.00  0.00    +0.155 HD
ENDROOT
BRANCH   1  13
ATOM      9  C   UNL     1       0.876   1.587  -0.016  0.00  0.00    +0.084 C 
ATOM     10  C   UNL     1       0.563   0.113  -0.025  0.00  0.00    +0.084 A 
ATOM     11  N   UNL     1       0.095  -0.557  -1.045  0.00  0.00    -0.349 N 
ATOM     12  C   UNL     1      -0.064  -1.839  -0.704  0.00  0.00    +0.112 A 
ATOM     13  C   UNL     1       0.324  -1.977   0.594  0.00  0.00    +0.085 A 
ATOM     14  N   UNL     1       0.727  -0.729   1.016  0.00  0.00    -0.328 N 
ATOM     15  H   UNL     1      -0.107  -0.180  -1.916  0.00  0.00    +0.166 HD
BRANCH  14  16
ATOM     16  C   UNL     1       1.234  -0.381   2.345  0.00  0.00    +0.127 C 
BRANCH  16  17
ATOM     17  C   UNL     1       0.058  -0.136   3.292  0.00  0.00    +0.009 C 
ATOM     18  C   UNL     1      -0.103   1.271   3.871  0.00  0.00    +0.005 C 
ATOM     19  C   UNL     1       0.379   0.127   4.765  0.00  0.00    +0.005 C 
ENDBRANCH  16  17
ENDBRANCH  14  16
ENDBRANCH   1  13
BRANCH   7  20
ATOM     20  C   UNL     1      -0.406  -7.868   1.662  0.00  0.00    +0.034 A 
ATOM     21  C   UNL     1      -0.017  -9.091   1.121  0.00  0.00    +0.024 A 
ATOM     22  C   UNL     1      -0.141 -10.243   1.863  0.00  0.00    +0.015 A 
ATOM     23  C   UNL     1      -0.658 -10.185   3.161  0.00  0.00    +0.037 A 
ATOM     24  C   UNL     1      -1.047  -8.956   3.701  0.00  0.00    +0.015 A 
ATOM     25  C   UNL     1      -0.916  -7.806   2.956  0.00  0.00    +0.024 A 
BRANCH  23  26
ATOM     26  C   UNL     1      -0.793 -11.419   3.958  0.00  0.00    +0.244 C 
ATOM     27  O   UNL     1      -0.455 -12.488   3.487  0.00  0.00    -0.270 OA
ATOM     28  N   UNL     1      -1.292 -11.362   5.209  0.00  0.00    -0.314 N 
ATOM     29  C   UNL     1      -1.426 -12.587   6.002  0.00  0.00    +0.128 C 
ATOM     30  H   UNL     1      -1.562 -10.509   5.585  0.00  0.00    +0.149 HD
ENDBRANCH  23  26
ENDBRANCH   7  20
TORSDOF 5
