REMARK  Name = CHEMBL381565
REMARK  8 active torsions:
REMARK  status: ('A' for Active; 'I' for Inactive)
REMARK    1  A    between atoms: C_1  and  C_2
REMARK    2  A    between atoms: C_2  and  C_3
REMARK    3  A    between atoms: C_3  and  C_4
REMARK    4  A    between atoms: C_4  and  N_5
REMARK    5  A    between atoms: C_15  and  N_16
REMARK    6  A    between atoms: C_17  and  C_19
REMARK    7  A    between atoms: C_19  and  C_20
REMARK    8  A    between atoms: C_23  and  N_26
REMARK                            x       y       z     vdW  Elec       q    Type
REMARK                         _______ _______ _______ _____ _____    ______ ____
ROOT
ATOM      1  N   UNL     1       1.417  -2.527   2.452  0.00  0.00    -0.299 N 
ATOM      2  C   UNL     1       1.572  -3.852   2.650  0.00  0.00    +0.303 C 
ATOM      3  O   UNL     1       1.124  -4.643   1.843  0.00  0.00    -0.253 OA
ATOM      4  N   UNL     1       2.224  -4.298   3.742  0.00  0.00    -0.275 N 
ATOM      5  C   UNL     1       2.477  -5.699   4.092  0.00  0.00    +0.150 C 
ATOM      6  C   UNL     1       3.236  -5.718   5.394  0.00  0.00    +0.034 A 
ATOM      7  C   UNL     1       3.434  -4.401   5.814  0.00  0.00    +0.087 A 
ATOM      8  N   UNL     1       4.095  -4.427   6.946  0.00  0.00    -0.175 NA
ATOM      9  N   UNL     1       4.340  -5.764   7.284  0.00  0.00    -0.263 N 
ATOM     10  H   UNL     1       4.811  -6.076   8.073  0.00  0.00    +0.190 HD
ATOM     11  C   UNL     1       3.804  -6.542   6.317  0.00  0.00    +0.125 A 
ATOM     12  C   UNL     1       2.817  -3.474   4.799  0.00  0.00    +0.167 C 
ATOM     13  H   UNL     1       1.774  -1.896   3.096  0.00  0.00    +0.150 HD
ENDROOT
BRANCH  11  14
ATOM     14  N   UNL     1       3.828  -7.936   6.273  0.00  0.00    -0.270 N 
ATOM     15  C   UNL     1       4.428  -8.631   7.260  0.00  0.00    +0.223 C 
ATOM     16  O   UNL     1       4.948  -8.044   8.186  0.00  0.00    -0.275 OA
ATOM     17  H   UNL     1       3.413  -8.405   5.533  0.00  0.00    +0.156 HD
BRANCH  15  18
ATOM     18  C   UNL     1       4.454 -10.137   7.213  0.00  0.00    +0.131 C 
BRANCH  18  19
ATOM     19  C   UNL     1       5.179 -10.665   8.424  0.00  0.00    -0.039 A 
ATOM     20  C   UNL     1       6.547 -10.865   8.376  0.00  0.00    +0.006 A 
ATOM     21  C   UNL     1       7.214 -11.349   9.484  0.00  0.00    +0.024 A 
ATOM     22  C   UNL     1       6.511 -11.634  10.647  0.00  0.00    +0.036 A 
ATOM     23  C   UNL     1       5.138 -11.432  10.692  0.00  0.00    +0.024 A 
ATOM     24  C   UNL     1       4.477 -10.943   9.582  0.00  0.00    +0.006 A 
BRANCH  22  25
ATOM     25  N   UNL     1       7.184 -12.125  11.771  0.00  0.00    -0.271 N 
ATOM     26  C   UNL     1       6.557 -12.350  13.079  0.00  0.00    +0.114 C 
ATOM     27  C   UNL     1       7.527 -13.276  13.847  0.00  0.00    +0.029 C 
ATOM     28  C   UNL     1       8.877 -12.954  13.165  0.00  0.00    +0.098 C 
ATOM     29  C   UNL     1       8.487 -12.456  11.791  0.00  0.00    +0.220 C 
ATOM     30  O   UNL     1       9.240 -12.366  10.845  0.00  0.00    -0.275 OA
ENDBRANCH  22  25
ENDBRANCH  18  19
ENDBRANCH  15  18
ENDBRANCH  11  14
BRANCH   1  31
ATOM     31  C   UNL     1       0.708  -2.042   1.265  0.00  0.00    +0.106 C 
BRANCH  31  32
ATOM     32  C   UNL     1       0.672  -0.513   1.283  0.00  0.00    +0.018 C 
BRANCH  32  34
ATOM     33  C   UNL     1      -0.103   1.524   0.060  0.00  0.00    +0.004 C 
ATOM     34  C   UNL     1      -0.067  -0.006   0.043  0.00  0.00    -0.002 C 
ENDBRANCH  32  34
ENDBRANCH  31  32
ENDBRANCH   1  31
TORSDOF 7
