REMARK  Name = CHEMBL149450
REMARK  5 active torsions:
REMARK  status: ('A' for Active; 'I' for Inactive)
REMARK    1  A    between atoms: C_5  and  N_7
REMARK    2  A    between atoms: C_8  and  C_10
REMARK    3  A    between atoms: C_10  and  N_11
REMARK    4  A    between atoms: C_14  and  C_17
REMARK    5  A    between atoms: C_27  and  C_28
REMARK                            x       y       z     vdW  Elec       q    Type
REMARK                         _______ _______ _______ _____ _____    ______ ____
ROOT
ATOM      1  C   UNL     1       0.137   1.375  -0.622  0.00  0.00    +0.002 A 
ATOM      2  C   UNL     1       1.166   2.095  -0.036  0.00  0.00    +0.011 A 
ATOM      3  C   UNL     1       2.231   1.433   0.563  0.00  0.00    +0.015 A 
ATOM      4  C   UNL     1       2.259   0.028   0.572  0.00  0.00    +0.053 A 
ATOM      5  C   UNL     1       1.213  -0.688  -0.024  0.00  0.00    +0.045 A 
ATOM      6  C   UNL     1       0.157  -0.004  -0.618  0.00  0.00    +0.024 A 
ATOM      7  C   UNL     1       3.484  -0.422   1.263  0.00  0.00    +0.199 C 
ATOM      8  O   UNL     1       3.822  -1.575   1.448  0.00  0.00    -0.286 OA
ATOM      9  C   UNL     1       4.224   0.781   1.688  0.00  0.00    +0.071 A 
ATOM     10  C   UNL     1       3.443   1.941   1.252  0.00  0.00    +0.104 A 
ATOM     11  N   UNL     1       4.101   3.010   1.629  0.00  0.00    -0.173 NA
ATOM     12  H   UNL     1       5.932   3.211   2.665  0.00  0.00    +0.189 HD
ATOM     13  N   UNL     1       5.269   2.611   2.288  0.00  0.00    -0.280 N 
ATOM     14  C   UNL     1       5.332   1.266   2.317  0.00  0.00    +0.051 A 
ENDROOT
BRANCH   5  15
ATOM     15  N   UNL     1       1.229  -2.080  -0.021  0.00  0.00    -0.286 N 
ATOM     16  C   UNL     1       0.075  -2.768   0.087  0.00  0.00    +0.201 C 
ATOM     17  O   UNL     1      -0.984  -2.176   0.100  0.00  0.00    -0.278 OA
ATOM     18  H   UNL     1       2.071  -2.555  -0.098  0.00  0.00    +0.155 HD
BRANCH  16  19
ATOM     19  C   UNL     1       0.101  -4.271   0.193  0.00  0.00    +0.019 C 
BRANCH  19  20
ATOM     20  N   UNL     1      -1.274  -4.777   0.300  0.00  0.00    +0.385 N 
ATOM     21  C   UNL     1      -1.873  -4.302   1.553  0.00  0.00    -0.077 C 
ATOM     22  C   UNL     1      -3.331  -4.759   1.632  0.00  0.00    -0.006 C 
ATOM     23  C   UNL     1      -3.384  -6.289   1.587  0.00  0.00    +0.071 C 
ATOM     24  C   UNL     1      -2.691  -6.777   0.312  0.00  0.00    -0.006 C 
ATOM     25  C   UNL     1      -1.256  -6.245   0.282  0.00  0.00    -0.077 C 
ATOM     26  H   UNL     1      -1.818  -4.439  -0.480  0.00  0.00    -0.081 HD
BRANCH  23  27
ATOM     27  C   UNL     1      -4.820  -6.744   1.585  0.00  0.00    +0.213 C 
ATOM     28  O   UNL     1      -5.715  -5.926   1.617  0.00  0.00    -0.276 OA
ATOM     29  N   UNL     1      -5.111  -8.060   1.549  0.00  0.00    -0.329 N 
ATOM     30  H   UNL     1      -4.395  -8.714   1.524  0.00  0.00    +0.145 HD
ATOM     31  H   UNL     1      -6.035  -8.352   1.548  0.00  0.00    +0.145 HD
ENDBRANCH  23  27
ENDBRANCH  19  20
ENDBRANCH  16  19
ENDBRANCH   5  15
BRANCH  14  32
ATOM     32  C   UNL     1       6.432   0.443   2.936  0.00  0.00    +0.038 C 
ATOM     33  C   UNL     1       7.483   1.180   3.767  0.00  0.00    +0.010 C 
ATOM     34  C   UNL     1       7.848   0.630   2.387  0.00  0.00    +0.010 C 
ENDBRANCH  14  32
TORSDOF 5
