REMARK  Name = CHEMBL271136
REMARK  11 active torsions:
REMARK  status: ('A' for Active; 'I' for Inactive)
REMARK    1  A    between atoms: C_1  and  O_2
REMARK    2  A    between atoms: O_2  and  C_3
REMARK    3  A    between atoms: C_7  and  O_35
REMARK    4  A    between atoms: C_8  and  C_9
REMARK    5  A    between atoms: C_9  and  N_10
REMARK    6  A    between atoms: C_11  and  C_13
REMARK    7  A    between atoms: N_20  and  N_21
REMARK    8  A    between atoms: N_21  and  C_22
REMARK    9  A    between atoms: C_25  and  S_28
REMARK   10  A    between atoms: S_28  and  N_31
REMARK   11  A    between atoms: O_35  and  C_36
REMARK                            x       y       z     vdW  Elec       q    Type
REMARK                         _______ _______ _______ _____ _____    ______ ____
ROOT
ATOM      1  C   UNL     1      -3.511  -4.135   0.158  0.00  0.00    +0.037 A 
ATOM      2  C   UNL     1      -4.070  -3.646  -1.027  0.00  0.00    +0.015 A 
ATOM      3  C   UNL     1      -5.383  -3.909  -1.339  0.00  0.00    +0.025 A 
ATOM      4  C   UNL     1      -6.174  -4.666  -0.477  0.00  0.00    +0.043 A 
ATOM      5  C   UNL     1      -5.615  -5.157   0.713  0.00  0.00    +0.029 A 
ATOM      6  C   UNL     1      -4.290  -4.899   1.028  0.00  0.00    +0.025 A 
ATOM      7  C   UNL     1      -6.692  -5.910   1.399  0.00  0.00    +0.152 C 
ATOM      8  N   UNL     1      -6.619  -6.542   2.549  0.00  0.00    -0.177 NA
ATOM      9  C   UNL     1      -7.860  -5.795   0.510  0.00  0.00    +0.269 C 
ATOM     10  O   UNL     1      -8.960  -6.277   0.709  0.00  0.00    -0.268 OA
ATOM     11  N   UNL     1      -7.499  -5.064  -0.557  0.00  0.00    -0.280 N 
ATOM     12  H   UNL     1      -8.091  -4.843  -1.293  0.00  0.00    +0.155 HD
ENDROOT
BRANCH   1  14
ATOM     13  N   UNL     1      -1.349  -3.111  -0.356  0.00  0.00    -0.307 N 
ATOM     14  C   UNL     1      -2.100  -3.849   0.485  0.00  0.00    +0.244 C 
ATOM     15  O   UNL     1      -1.615  -4.280   1.514  0.00  0.00    -0.270 OA
ATOM     16  H   UNL     1      -1.736  -2.768  -1.177  0.00  0.00    +0.149 HD
BRANCH  13  17
ATOM     17  C   UNL     1       0.051  -2.828  -0.032  0.00  0.00    +0.147 C 
BRANCH  17  23
ATOM     18  C   UNL     1       0.606  -0.607  -1.056  0.00  0.00    +0.128 A 
ATOM     19  C   UNL     1       1.173   0.162  -2.062  0.00  0.00    +0.046 A 
ATOM     20  C   UNL     1       1.786  -0.451  -3.138  0.00  0.00    +0.007 A 
ATOM     21  C   UNL     1       1.837  -1.830  -3.215  0.00  0.00    +0.046 A 
ATOM     22  C   UNL     1       1.272  -2.603  -2.210  0.00  0.00    +0.128 A 
ATOM     23  C   UNL     1       0.660  -1.990  -1.127  0.00  0.00    +0.053 A 
BRANCH  18  25
ATOM     24  C   UNL     1      -0.017   1.425   0.010  0.00  0.00    +0.277 C 
ATOM     25  O   UNL     1       0.002  -0.004   0.002  0.00  0.00    -0.495 OA
ENDBRANCH  18  25
BRANCH  22  26
ATOM     26  O   UNL     1       1.322  -3.959  -2.286  0.00  0.00    -0.495 OA
ATOM     27  C   UNL     1       1.972  -4.521  -3.428  0.00  0.00    +0.277 C 
ENDBRANCH  22  26
ENDBRANCH  17  23
ENDBRANCH  13  17
ENDBRANCH   1  14
BRANCH   8  28
ATOM     28  N   UNL     1      -7.655  -7.154   3.014  0.00  0.00    -0.237 N 
ATOM     29  H   UNL     1      -8.487  -7.149   2.516  0.00  0.00    +0.174 HD
BRANCH  28  30
ATOM     30  C   UNL     1      -7.578  -7.825   4.236  0.00  0.00    +0.048 A 
ATOM     31  C   UNL     1      -6.389  -7.829   4.955  0.00  0.00    +0.026 A 
ATOM     32  C   UNL     1      -6.317  -8.494   6.163  0.00  0.00    +0.030 A 
ATOM     33  C   UNL     1      -7.426  -9.155   6.658  0.00  0.00    +0.105 A 
ATOM     34  C   UNL     1      -8.612  -9.153   5.945  0.00  0.00    +0.030 A 
ATOM     35  C   UNL     1      -8.693  -8.486   4.739  0.00  0.00    +0.026 A 
BRANCH  33  36
ATOM     36  S   UNL     1      -7.330 -10.001   8.200  0.00  0.00    +0.056 S 
ATOM     37  O   UNL     1      -8.343 -10.998   8.181  0.00  0.00    -0.153 OA
ATOM     38  O   UNL     1      -5.959 -10.313   8.407  0.00  0.00    -0.153 OA
BRANCH  36  39
ATOM     39  N   UNL     1      -7.752  -8.919   9.380  0.00  0.00    -0.204 NA
ATOM     40  H   UNL     1      -7.990  -8.010   9.142  0.00  0.00    +0.144 HD
ATOM     41  H   UNL     1      -7.761  -9.195  10.310  0.00  0.00    +0.144 HD
ENDBRANCH  36  39
ENDBRANCH  33  36
ENDBRANCH  28  30
ENDBRANCH   8  28
TORSDOF 9
