REMARK  Name = CHEMBL340904
REMARK  9 active torsions:
REMARK  status: ('A' for Active; 'I' for Inactive)
REMARK    1  A    between atoms: C_1  and  C_2
REMARK    2  A    between atoms: C_2  and  C_3
REMARK    3  A    between atoms: C_2  and  C_4
REMARK    4  A    between atoms: C_2  and  C_5
REMARK    5  A    between atoms: C_8  and  C_10
REMARK    6  A    between atoms: C_10  and  S_11
REMARK    7  A    between atoms: S_11  and  C_12
REMARK    8  A    between atoms: C_18  and  C_20
REMARK    9  A    between atoms: C_20  and  C_21
REMARK                            x       y       z     vdW  Elec       q    Type
REMARK                         _______ _______ _______ _____ _____    ______ ____
ROOT
ATOM      1  C   UNL     1       1.169  -4.828  -5.597  0.00  0.00    +0.067 A 
ATOM      2  C   UNL     1       1.351  -6.137  -5.930  0.00  0.00    +0.135 A 
ATOM      3  N   UNL     1       1.112  -6.535  -7.166  0.00  0.00    -0.232 NA
ATOM      4  C   UNL     1       0.699  -5.689  -8.091  0.00  0.00    +0.165 A 
ATOM      5  S   UNL     1       0.620  -4.163  -7.163  0.00  0.00    -0.046 S 
ATOM      6  N   UNL     1       0.401  -5.923  -9.430  0.00  0.00    -0.264 N 
ATOM      7  C   UNL     1       0.523  -7.165  -9.941  0.00  0.00    +0.223 C 
ATOM      8  O   UNL     1       0.893  -8.078  -9.233  0.00  0.00    -0.275 OA
ATOM      9  H   UNL     1       0.105  -5.193  -9.996  0.00  0.00    +0.157 HD
ENDROOT
BRANCH   1  10
ATOM     10  S   UNL     1       1.403  -4.018  -4.050  0.00  0.00    -0.109 S 
BRANCH  10  11
ATOM     11  C   UNL     1       0.954  -2.293  -4.386  0.00  0.00    +0.150 C 
BRANCH  11  15
ATOM     12  C   UNL     1       0.707  -0.490  -1.238  0.00  0.00    +0.201 A 
ATOM     13  N   UNL     1       1.943  -0.230  -1.559  0.00  0.00    -0.221 NA
ATOM     14  C   UNL     1       2.220  -0.832  -2.729  0.00  0.00    +0.156 A 
ATOM     15  C   UNL     1       1.112  -1.478  -3.128  0.00  0.00    +0.135 A 
ATOM     16  O   UNL     1       0.169  -1.266  -2.188  0.00  0.00    -0.443 OA
BRANCH  12  18
ATOM     17  C   UNL     1      -0.019   1.526   0.010  0.00  0.00    +0.020 C 
ATOM     18  C   UNL     1       0.002  -0.004   0.002  0.00  0.00    +0.039 C 
ATOM     19  C   UNL     1       0.742  -0.511   1.242  0.00  0.00    +0.020 C 
ATOM     20  C   UNL     1      -1.433  -0.534   0.013  0.00  0.00    +0.020 C 
ENDBRANCH  12  18
ENDBRANCH  11  15
ENDBRANCH  10  11
ENDBRANCH   1  10
BRANCH   7  21
ATOM     21  C   UNL     1       0.200  -7.418 -11.391  0.00  0.00    +0.131 C 
BRANCH  21  22
ATOM     22  C   UNL     1       0.417  -8.876 -11.706  0.00  0.00    -0.039 A 
ATOM     23  C   UNL     1       1.655  -9.313 -12.139  0.00  0.00    +0.004 A 
ATOM     24  C   UNL     1       1.854 -10.650 -12.428  0.00  0.00    +0.000 A 
ATOM     25  C   UNL     1       0.815 -11.550 -12.284  0.00  0.00    +0.000 A 
ATOM     26  C   UNL     1      -0.423 -11.114 -11.850  0.00  0.00    +0.000 A 
ATOM     27  C   UNL     1      -0.620  -9.777 -11.557  0.00  0.00    +0.004 A 
ENDBRANCH  21  22
ENDBRANCH   7  21
TORSDOF 6
