REMARK  Name = CHEMBL178452
REMARK  4 active torsions:
REMARK  status: ('A' for Active; 'I' for Inactive)
REMARK    1  A    between atoms: C_1  and  C_2
REMARK    2  A    between atoms: C_2  and  C_3
REMARK    3  A    between atoms: C_2  and  C_4
REMARK    4  A    between atoms: C_4  and  C_5
REMARK                            x       y       z     vdW  Elec       q    Type
REMARK                         _______ _______ _______ _____ _____    ______ ____
ROOT
ATOM      1  C   UNL     1      -1.416  -2.058  -0.121  0.00  0.00    +0.045 C 
ATOM      2  C   UNL     1      -2.834  -2.591   0.073  0.00  0.00    +0.048 C 
ATOM      3  C   UNL     1      -2.969  -4.008  -0.415  0.00  0.00    -0.002 A 
ATOM      4  C   UNL     1      -3.752  -5.002   0.027  0.00  0.00    +0.109 A 
ATOM      5  N   UNL     1      -3.540  -6.084  -0.760  0.00  0.00    -0.284 N 
ATOM      6  H   UNL     1      -3.979  -6.945  -0.672  0.00  0.00    +0.188 HD
ATOM      7  N   UNL     1      -2.576  -5.744  -1.725  0.00  0.00    -0.174 NA
ATOM      8  C   UNL     1      -2.220  -4.518  -1.517  0.00  0.00    +0.099 A 
ATOM      9  C   UNL     1      -1.221  -3.625  -2.152  0.00  0.00    +0.043 A 
ATOM     10  C   UNL     1      -0.860  -2.425  -1.471  0.00  0.00    +0.075 A 
ATOM     11  N   UNL     1      -0.013  -1.794  -2.223  0.00  0.00    -0.178 NA
ATOM     12  N   UNL     1       0.229  -2.563  -3.372  0.00  0.00    -0.284 N 
ATOM     13  H   UNL     1       0.826  -2.327  -4.099  0.00  0.00    +0.188 HD
ATOM     14  C   UNL     1      -0.515  -3.692  -3.291  0.00  0.00    +0.115 A 
ENDROOT
BRANCH   1  15
ATOM     15  C   UNL     1      -1.433  -0.534   0.013  0.00  0.00    +0.013 C 
BRANCH  15  17
ATOM     16  C   UNL     1      -0.019   1.526   0.010  0.00  0.00    +0.007 C 
ATOM     17  C   UNL     1       0.002  -0.004   0.002  0.00  0.00    -0.017 C 
ATOM     18  C   UNL     1       0.742  -0.511   1.242  0.00  0.00    +0.007 C 
ENDBRANCH  15  17
ENDBRANCH   1  15
TORSDOF 2
