REMARK  Name = CHEMBL367363
REMARK  2 active torsions:
REMARK  status: ('A' for Active; 'I' for Inactive)
REMARK    1  A    between atoms: C_3  and  N_7
REMARK    2  A    between atoms: C_18  and  C_20
REMARK                            x       y       z     vdW  Elec       q    Type
REMARK                         _______ _______ _______ _____ _____    ______ ____
ROOT
ATOM      1  N   UNL     1       3.606   1.996  -0.022  0.00  0.00    -0.229 N 
ATOM      2  C   UNL     1       4.702   1.586   0.687  0.00  0.00    +0.086 A 
ATOM      3  C   UNL     1       5.721   2.507   0.403  0.00  0.00    +0.033 A 
ATOM      4  C   UNL     1       6.987   2.367   0.980  0.00  0.00    +0.014 A 
ATOM      5  C   UNL     1       7.246   1.333   1.827  0.00  0.00    +0.028 A 
ATOM      6  C   UNL     1       6.251   0.398   2.131  0.00  0.00    +0.068 A 
ATOM      7  C   UNL     1       4.972   0.516   1.563  0.00  0.00    +0.045 A 
ATOM      8  C   UNL     1       4.200  -0.561   2.054  0.00  0.00    +0.144 A 
ATOM      9  N   UNL     1       4.942  -1.276   2.851  0.00  0.00    -0.181 NA
ATOM     10  N   UNL     1       6.224  -0.717   2.928  0.00  0.00    -0.277 N 
ATOM     11  H   UNL     1       6.963  -1.059   3.454  0.00  0.00    +0.189 HD
ATOM     12  C   UNL     1       5.100   3.463  -0.524  0.00  0.00    +0.155 A 
ATOM     13  N   UNL     1       3.860   3.055  -0.701  0.00  0.00    -0.160 NA
ENDROOT
BRANCH   1  16
ATOM     14  C   UNL     1       0.456   0.470  -1.142  0.00  0.00    +0.022 A 
ATOM     15  C   UNL     1       1.677   1.122  -1.202  0.00  0.00    +0.031 A 
ATOM     16  C   UNL     1       2.369   1.341  -0.013  0.00  0.00    +0.084 A 
ATOM     17  C   UNL     1       1.813   0.899   1.181  0.00  0.00    +0.138 A 
ATOM     18  N   UNL     1       0.649   0.282   1.193  0.00  0.00    -0.261 NA
ATOM     19  C   UNL     1      -0.031   0.060   0.085  0.00  0.00    +0.111 A 
ENDBRANCH   1  16
BRANCH  12  20
ATOM     20  C   UNL     1       5.739   4.642  -1.137  0.00  0.00    +0.262 C 
ATOM     21  O   UNL     1       6.900   4.902  -0.888  0.00  0.00    -0.269 OA
ATOM     22  N   UNL     1       5.035   5.431  -1.973  0.00  0.00    -0.324 N 
ATOM     23  H   UNL     1       4.109   5.223  -2.171  0.00  0.00    +0.145 HD
ATOM     24  H   UNL     1       5.456   6.206  -2.376  0.00  0.00    +0.145 HD
ENDBRANCH  12  20
TORSDOF 2
