REMARK  Name = CHEMBL90941
REMARK  13 active torsions:
REMARK  status: ('A' for Active; 'I' for Inactive)
REMARK    1  A    between atoms: C_1  and  C_2
REMARK    2  A    between atoms: C_2  and  C_3
REMARK    3  A    between atoms: C_2  and  N_4
REMARK    4  A    between atoms: C_12  and  N_13
REMARK    5  A    between atoms: N_13  and  C_14
REMARK    6  A    between atoms: C_14  and  C_15
REMARK    7  A    between atoms: C_18  and  C_21
REMARK    8  A    between atoms: N_26  and  C_27
REMARK    9  A    between atoms: N_26  and  C_30
REMARK   10  A    between atoms: C_27  and  C_28
REMARK   11  A    between atoms: C_28  and  O_29
REMARK   12  A    between atoms: C_30  and  C_31
REMARK   13  A    between atoms: C_31  and  O_32
REMARK                            x       y       z     vdW  Elec       q    Type
REMARK                         _______ _______ _______ _____ _____    ______ ____
ROOT
ATOM      1  N   UNL     1      -1.372  -0.511   0.012  0.00  0.00    -0.312 N 
ATOM      2  C   UNL     1      -2.313  -0.275   0.972  0.00  0.00    +0.201 A 
ATOM      3  N   UNL     1      -3.423  -0.878   0.664  0.00  0.00    -0.231 NA
ATOM      4  C   UNL     1      -3.267  -1.538  -0.510  0.00  0.00    +0.148 A 
ATOM      5  C   UNL     1      -1.952  -1.306  -0.944  0.00  0.00    +0.167 A 
ATOM      6  N   UNL     1      -1.542  -1.845  -2.088  0.00  0.00    -0.195 NA
ATOM      7  C   UNL     1      -2.362  -2.589  -2.813  0.00  0.00    +0.222 A 
ATOM      8  N   UNL     1      -3.612  -2.832  -2.442  0.00  0.00    -0.197 NA
ATOM      9  C   UNL     1      -4.101  -2.339  -1.310  0.00  0.00    +0.152 A 
ATOM     10  N   UNL     1      -1.898  -3.134  -3.999  0.00  0.00    -0.295 N 
ENDROOT
BRANCH   1  12
ATOM     11  C   UNL     1      -0.019   1.526   0.010  0.00  0.00    +0.030 C 
ATOM     12  C   UNL     1       0.002  -0.004   0.002  0.00  0.00    +0.084 C 
ATOM     13  C   UNL     1       0.742  -0.511   1.242  0.00  0.00    +0.030 C 
ENDBRANCH   1  12
BRANCH   9  14
ATOM     14  N   UNL     1      -5.407  -2.596  -0.932  0.00  0.00    -0.323 N 
ATOM     15  H   UNL     1      -5.757  -2.222  -0.108  0.00  0.00    +0.148 HD
BRANCH  14  16
ATOM     16  C   UNL     1      -6.263  -3.433  -1.778  0.00  0.00    +0.138 C 
BRANCH  16  17
ATOM     17  C   UNL     1      -7.626  -3.556  -1.147  0.00  0.00    -0.030 A 
ATOM     18  C   UNL     1      -7.883  -4.584  -0.258  0.00  0.00    +0.006 A 
ATOM     19  C   UNL     1      -9.128  -4.703   0.323  0.00  0.00    +0.009 A 
ATOM     20  C   UNL     1     -10.130  -3.783   0.013  0.00  0.00    -0.011 A 
ATOM     21  C   UNL     1      -9.864  -2.747  -0.885  0.00  0.00    +0.009 A 
ATOM     22  C   UNL     1      -8.613  -2.637  -1.455  0.00  0.00    +0.006 A 
BRANCH  20  23
ATOM     23  C   UNL     1     -11.467  -3.904   0.631  0.00  0.00    +0.019 A 
ATOM     24  C   UNL     1     -12.574  -3.116   0.456  0.00  0.00    +0.016 A 
ATOM     25  C   UNL     1     -13.724  -3.428   1.147  0.00  0.00    +0.008 A 
ATOM     26  C   UNL     1     -13.727  -4.501   1.978  0.00  0.00    +0.046 A 
ATOM     27  S   UNL     1     -12.062  -5.120   1.795  0.00  0.00    -0.097 S 
ENDBRANCH  20  23
ENDBRANCH  16  17
ENDBRANCH  14  16
ENDBRANCH   9  14
BRANCH  10  28
ATOM     28  C   UNL     1      -2.784  -3.962  -4.821  0.00  0.00    +0.136 C 
BRANCH  28  29
ATOM     29  C   UNL     1      -3.532  -3.074  -5.818  0.00  0.00    +0.174 C 
BRANCH  29  30
ATOM     30  O   UNL     1      -2.599  -2.495  -6.733  0.00  0.00    -0.393 OA
ATOM     31  H   UNL     1      -3.004  -1.919  -7.395  0.00  0.00    +0.209 HD
ENDBRANCH  29  30
ENDBRANCH  28  29
ENDBRANCH  10  28
BRANCH  10  32
ATOM     32  C   UNL     1      -0.521  -2.881  -4.432  0.00  0.00    +0.136 C 
BRANCH  32  33
ATOM     33  C   UNL     1       0.397  -3.969  -3.872  0.00  0.00    +0.174 C 
BRANCH  33  34
ATOM     34  O   UNL     1       0.046  -5.230  -4.444  0.00  0.00    -0.393 OA
ATOM     35  H   UNL     1       0.589  -5.968  -4.134  0.00  0.00    +0.209 HD
ENDBRANCH  33  34
ENDBRANCH  32  33
ENDBRANCH  10  32
TORSDOF 11
