REMARK  Name = CHEMBL74680
REMARK  1 active torsions:
REMARK  status: ('A' for Active; 'I' for Inactive)
REMARK    1  A    between atoms: N_16  and  C_17
REMARK                            x       y       z     vdW  Elec       q    Type
REMARK                         _______ _______ _______ _____ _____    ______ ____
ROOT
ATOM      1  C   UNL     1       0.088   1.296  -1.200  0.00  0.00    +0.002 A 
ATOM      2  C   UNL     1       1.261   2.027  -1.074  0.00  0.00    +0.002 A 
ATOM      3  C   UNL     1       2.450   1.394  -0.782  0.00  0.00    +0.028 A 
ATOM      4  C   UNL     1       2.473   0.017  -0.612  0.00  0.00    +0.075 A 
ATOM      5  C   UNL     1       1.285  -0.723  -0.740  0.00  0.00    +0.089 A 
ATOM      6  C   UNL     1       0.091  -0.060  -1.037  0.00  0.00    +0.030 A 
ATOM      7  N   UNL     1       1.603  -2.026  -0.526  0.00  0.00    -0.235 NA
ATOM      8  C   UNL     1       2.876  -2.133  -0.282  0.00  0.00    +0.206 A 
ATOM      9  N   UNL     1       3.465  -0.902  -0.322  0.00  0.00    -0.283 N 
ATOM     10  C   UNL     1       4.814  -0.624  -0.110  0.00  0.00    +0.144 A 
ATOM     11  C   UNL     1       5.713  -1.653   0.171  0.00  0.00    +0.066 A 
ATOM     12  C   UNL     1       7.042  -1.330   0.374  0.00  0.00    +0.118 A 
ATOM     13  N   UNL     1       7.419  -0.063   0.297  0.00  0.00    -0.223 NA
ATOM     14  C   UNL     1       6.543   0.893   0.029  0.00  0.00    +0.221 A 
ATOM     15  N   UNL     1       5.262   0.624  -0.178  0.00  0.00    -0.196 NA
ATOM     16  N   UNL     1       6.977   2.207  -0.043  0.00  0.00    -0.284 N 
ATOM     17  H   UNL     1       6.334   2.925  -0.159  0.00  0.00    +0.155 HD
ENDROOT
BRANCH  16  18
ATOM     18  C   UNL     1       8.341   2.499   0.051  0.00  0.00    +0.035 A 
ATOM     19  C   UNL     1       9.273   1.673  -0.564  0.00  0.00    +0.023 A 
ATOM     20  C   UNL     1      10.620   1.963  -0.470  0.00  0.00    +0.003 A 
ATOM     21  C   UNL     1      11.042   3.074   0.237  0.00  0.00    +0.020 A 
ATOM     22  C   UNL     1      10.116   3.899   0.851  0.00  0.00    +0.043 A 
ATOM     23  C   UNL     1       8.766   3.618   0.755  0.00  0.00    +0.043 A 
ATOM     24 CL   UNL     1      10.650   5.293   1.737  0.00  0.00    -0.083 Cl
ENDBRANCH  16  18
TORSDOF 1
