REMARK  Name = CHEMBL518383
REMARK  4 active torsions:
REMARK  status: ('A' for Active; 'I' for Inactive)
REMARK    1  A    between atoms: C_4  and  C_8
REMARK    2  A    between atoms: N_10  and  C_11
REMARK    3  A    between atoms: C_16  and  C_17
REMARK    4  A    between atoms: N_19  and  C_20
REMARK                            x       y       z     vdW  Elec       q    Type
REMARK                         _______ _______ _______ _____ _____    ______ ____
ROOT
ATOM      1  C   UNL     1       5.499  -1.676  -1.228  0.00  0.00    +0.084 A 
ATOM      2  C   UNL     1       6.261  -2.087  -0.122  0.00  0.00    +0.158 A 
ATOM      3  N   UNL     1       7.336  -2.678  -0.573  0.00  0.00    -0.180 NA
ATOM      4  H   UNL     1       8.058  -3.081  -2.401  0.00  0.00    +0.189 HD
ATOM      5  N   UNL     1       7.354  -2.693  -1.857  0.00  0.00    -0.271 N 
ATOM      6  C   UNL     1       6.225  -2.084  -2.343  0.00  0.00    +0.142 A 
ENDROOT
BRANCH   1   9
ATOM      7  C   UNL     1       3.697  -0.685  -0.037  0.00  0.00    +0.254 C 
ATOM      8  O   UNL     1       4.243  -0.978   1.009  0.00  0.00    -0.270 OA
ATOM      9  N   UNL     1       4.274  -1.006  -1.212  0.00  0.00    -0.278 N 
ATOM     10  H   UNL     1       3.839  -0.772  -2.046  0.00  0.00    +0.155 HD
BRANCH   7  14
ATOM     11  C   UNL     1      -0.030   1.353   0.011  0.00  0.00    +0.006 A 
ATOM     12  C   UNL     1       1.149   2.076  -0.002  0.00  0.00    +0.039 A 
ATOM     13  C   UNL     1       2.366   1.421  -0.017  0.00  0.00    +0.138 A 
ATOM     14  C   UNL     1       2.403   0.023  -0.020  0.00  0.00    +0.107 A 
ATOM     15  C   UNL     1       1.206  -0.701  -0.007  0.00  0.00    +0.138 A 
ATOM     16  C   UNL     1      -0.003  -0.030   0.008  0.00  0.00    +0.039 A 
ATOM     17  F   UNL     1       1.230  -2.052  -0.010  0.00  0.00    -0.205 F 
ATOM     18  F   UNL     1       3.516   2.130  -0.030  0.00  0.00    -0.205 F 
ENDBRANCH   7  14
ENDBRANCH   1   9
BRANCH   6  19
ATOM     19  C   UNL     1       5.859  -1.899  -3.749  0.00  0.00    +0.268 C 
ATOM     20  O   UNL     1       4.821  -1.334  -4.039  0.00  0.00    -0.268 OA
ATOM     21  N   UNL     1       6.673  -2.354  -4.723  0.00  0.00    -0.280 N 
ATOM     22  H   UNL     1       7.531  -2.744  -4.495  0.00  0.00    +0.155 HD
BRANCH  21  23
ATOM     23  C   UNL     1       6.279  -2.264  -6.063  0.00  0.00    +0.034 A 
ATOM     24  C   UNL     1       6.628  -3.265  -6.959  0.00  0.00    +0.026 A 
ATOM     25  C   UNL     1       6.238  -3.175  -8.281  0.00  0.00    +0.040 A 
ATOM     26  C   UNL     1       5.499  -2.086  -8.713  0.00  0.00    +0.124 A 
ATOM     27  C   UNL     1       5.150  -1.086  -7.821  0.00  0.00    +0.040 A 
ATOM     28  C   UNL     1       5.533  -1.176  -6.497  0.00  0.00    +0.026 A 
ATOM     29  F   UNL     1       5.119  -1.999 -10.006  0.00  0.00    -0.205 F 
ENDBRANCH  21  23
ENDBRANCH   6  19
TORSDOF 4
