REMARK  Name = CHEMBL380946
REMARK  7 active torsions:
REMARK  status: ('A' for Active; 'I' for Inactive)
REMARK    1  A    between atoms: C_1  and  C_2
REMARK    2  A    between atoms: C_2  and  C_3
REMARK    3  A    between atoms: C_3  and  C_4
REMARK    4  A    between atoms: C_4  and  N_5
REMARK    5  A    between atoms: C_17  and  C_19
REMARK    6  A    between atoms: C_19  and  C_21
REMARK    7  A    between atoms: C_19  and  C_22
REMARK                            x       y       z     vdW  Elec       q    Type
REMARK                         _______ _______ _______ _____ _____    ______ ____
ROOT
ATOM      1  N   UNL     1      -2.787  -2.571   0.015  0.00  0.00    -0.299 N 
ATOM      2  C   UNL     1      -3.015  -3.899   0.010  0.00  0.00    +0.303 C 
ATOM      3  O   UNL     1      -2.080  -4.676  -0.003  0.00  0.00    -0.253 OA
ATOM      4  N   UNL     1      -4.280  -4.365   0.019  0.00  0.00    -0.275 N 
ATOM      5  C   UNL     1      -4.699  -5.772   0.022  0.00  0.00    +0.150 C 
ATOM      6  C   UNL     1      -6.206  -5.795   0.034  0.00  0.00    +0.034 A 
ATOM      7  C   UNL     1      -6.673  -4.529   0.039  0.00  0.00    +0.060 A 
ATOM      8  N   UNL     1      -8.024  -4.585   0.050  0.00  0.00    -0.278 N 
ATOM      9  N   UNL     1      -8.402  -5.933   0.052  0.00  0.00    -0.158 NA
ATOM     10  H   UNL     1      -8.626  -3.825   0.056  0.00  0.00    +0.189 HD
ATOM     11  C   UNL     1      -7.313  -6.664   0.043  0.00  0.00    +0.152 A 
ATOM     12  N   UNL     1      -7.261  -8.064   0.041  0.00  0.00    -0.268 N 
ATOM     13  C   UNL     1      -8.402  -8.781   0.050  0.00  0.00    +0.225 C 
ATOM     14  O   UNL     1      -9.474  -8.214   0.059  0.00  0.00    -0.275 OA
ATOM     15  C   UNL     1      -5.512  -3.568   0.036  0.00  0.00    +0.164 C 
ATOM     16  H   UNL     1      -3.533  -1.950   0.025  0.00  0.00    +0.150 HD
ATOM     17  H   UNL     1      -6.403  -8.518   0.033  0.00  0.00    +0.156 HD
ENDROOT
BRANCH  13  18
ATOM     18  C   UNL     1      -8.345 -10.287   0.048  0.00  0.00    +0.102 C 
ATOM     19  C   UNL     1      -7.595 -10.771   1.290  0.00  0.00    +0.022 C 
BRANCH  18  20
ATOM     20  C   UNL     1      -9.746 -10.842   0.059  0.00  0.00    -0.035 A 
ATOM     21  C   UNL     1     -10.601 -10.528   1.114  0.00  0.00    +0.005 A 
ATOM     22  C   UNL     1     -11.872 -11.013   1.155  0.00  0.00    +0.009 A 
ATOM     23  C   UNL     1     -12.333 -11.843   0.119  0.00  0.00    -0.018 A 
ATOM     24  C   UNL     1     -13.639 -12.362   0.126  0.00  0.00    +0.008 A 
ATOM     25  C   UNL     1     -14.051 -13.163  -0.895  0.00  0.00    +0.001 A 
ATOM     26  C   UNL     1     -13.196 -13.477  -1.950  0.00  0.00    +0.001 A 
ATOM     27  C   UNL     1     -11.925 -12.993  -1.990  0.00  0.00    +0.008 A 
ATOM     28  C   UNL     1     -11.464 -12.163  -0.954  0.00  0.00    -0.018 A 
ATOM     29  C   UNL     1     -10.160 -11.639  -0.964  0.00  0.00    +0.013 A 
ENDBRANCH  18  20
ENDBRANCH  13  18
BRANCH   1  30
ATOM     30  C   UNL     1      -1.413  -2.063   0.004  0.00  0.00    +0.106 C 
BRANCH  30  31
ATOM     31  C   UNL     1      -1.433  -0.534   0.013  0.00  0.00    +0.018 C 
BRANCH  31  33
ATOM     32  C   UNL     1      -0.019   1.526   0.010  0.00  0.00    +0.004 C 
ATOM     33  C   UNL     1       0.002  -0.004   0.002  0.00  0.00    -0.002 C 
ENDBRANCH  31  33
ENDBRANCH  30  31
ENDBRANCH   1  30
TORSDOF 5
