REMARK  Name = CHEMBL424469
REMARK  5 active torsions:
REMARK  status: ('A' for Active; 'I' for Inactive)
REMARK    1  A    between atoms: C_3  and  S_24
REMARK    2  A    between atoms: C_6  and  N_7
REMARK    3  A    between atoms: N_8  and  C_9
REMARK    4  A    between atoms: C_22  and  O_23
REMARK    5  A    between atoms: S_24  and  N_27
REMARK                            x       y       z     vdW  Elec       q    Type
REMARK                         _______ _______ _______ _____ _____    ______ ____
ROOT
ATOM      1  C   UNL     1      -2.307  -2.691   0.011  0.00  0.00    +0.156 A 
ATOM      2  C   UNL     1      -2.460  -4.157   0.010  0.00  0.00    +0.058 A 
ATOM      3  C   UNL     1      -3.837  -4.407   0.020  0.00  0.00    +0.054 A 
ATOM      4  C   UNL     1      -4.299  -5.726   0.023  0.00  0.00    +0.028 A 
ATOM      5  C   UNL     1      -3.427  -6.770   0.016  0.00  0.00    +0.034 A 
ATOM      6  C   UNL     1      -2.040  -6.544   0.007  0.00  0.00    +0.113 A 
ATOM      7  C   UNL     1      -1.556  -5.227   0.002  0.00  0.00    +0.097 A 
ATOM      8  N   UNL     1      -0.187  -5.322  -0.008  0.00  0.00    -0.256 N 
ATOM      9  N   UNL     1       0.117  -6.692  -0.012  0.00  0.00    -0.067 NA
ATOM     10  N   UNL     1      -0.975  -7.370  -0.001  0.00  0.00    -0.130 NA
ATOM     11  H   UNL     1       0.446  -4.587  -0.013  0.00  0.00    +0.191 HD
ATOM     12  N   UNL     1      -4.489  -3.188   0.026  0.00  0.00    -0.324 N 
ATOM     13  H   UNL     1      -5.453  -3.076   0.034  0.00  0.00    +0.169 HD
ATOM     14  C   UNL     1      -3.591  -2.167   0.027  0.00  0.00    +0.219 A 
ENDROOT
BRANCH   1  16
ATOM     15  N   UNL     1      -1.171  -0.707   0.010  0.00  0.00    -0.149 NA
ATOM     16  N   UNL     1      -1.150  -1.997   0.003  0.00  0.00    -0.143 NA
BRANCH  15  22
ATOM     17  C   UNL     1      -0.017   1.393   0.010  0.00  0.00    +0.031 A 
ATOM     18  C   UNL     1       1.170   2.095   0.002  0.00  0.00    +0.030 A 
ATOM     19  C   UNL     1       2.378   1.420  -0.013  0.00  0.00    +0.105 A 
ATOM     20  C   UNL     1       2.404   0.036  -0.021  0.00  0.00    +0.030 A 
ATOM     21  C   UNL     1       1.225  -0.679  -0.013  0.00  0.00    +0.031 A 
ATOM     22  C   UNL     1       0.002  -0.004   0.002  0.00  0.00    +0.086 A 
BRANCH  19  23
ATOM     23  S   UNL     1       3.889   2.326  -0.023  0.00  0.00    +0.056 S 
ATOM     24  O   UNL     1       4.872   1.469  -0.588  0.00  0.00    -0.153 OA
ATOM     25  O   UNL     1       3.592   3.605  -0.565  0.00  0.00    -0.153 OA
BRANCH  23  26
ATOM     26  N   UNL     1       4.324   2.569   1.556  0.00  0.00    -0.204 NA
ATOM     27  H   UNL     1       3.766   2.227   2.271  0.00  0.00    +0.144 HD
ATOM     28  H   UNL     1       5.138   3.055   1.765  0.00  0.00    +0.144 HD
ENDBRANCH  23  26
ENDBRANCH  19  23
ENDBRANCH  15  22
ENDBRANCH   1  16
BRANCH  14  29
ATOM     29  O   UNL     1      -3.901  -0.850   0.037  0.00  0.00    -0.492 OA
ATOM     30  H   UNL     1      -4.000  -0.462  -0.843  0.00  0.00    +0.294 HD
ENDBRANCH  14  29
TORSDOF 5
