REMARK  Name = CHEMBL336892
REMARK  9 active torsions:
REMARK  status: ('A' for Active; 'I' for Inactive)
REMARK    1  A    between atoms: C_3  and  S_31
REMARK    2  A    between atoms: C_6  and  N_7
REMARK    3  A    between atoms: N_8  and  C_9
REMARK    4  A    between atoms: C_12  and  C_20
REMARK    5  A    between atoms: C_18  and  O_19
REMARK    6  A    between atoms: N_22  and  C_23
REMARK    7  A    between atoms: C_23  and  C_24
REMARK    8  A    between atoms: C_24  and  C_25
REMARK    9  A    between atoms: S_31  and  N_34
REMARK                            x       y       z     vdW  Elec       q    Type
REMARK                         _______ _______ _______ _____ _____    ______ ____
ROOT
ATOM      1  C   UNL     1       0.112  -2.534  -0.239  0.00  0.00    +0.154 A 
ATOM      2  C   UNL     1       0.304  -3.991  -0.366  0.00  0.00    +0.031 A 
ATOM      3  C   UNL     1      -0.529  -5.041  -0.732  0.00  0.00    +0.025 A 
ATOM      4  C   UNL     1      -0.025  -6.340  -0.752  0.00  0.00    +0.037 A 
ATOM      5  C   UNL     1       1.311  -6.577  -0.404  0.00  0.00    +0.015 A 
ATOM      6  C   UNL     1       2.129  -5.546  -0.045  0.00  0.00    +0.027 A 
ATOM      7  C   UNL     1       1.644  -4.240  -0.019  0.00  0.00    +0.051 A 
ATOM      8  N   UNL     1       2.230  -3.031   0.297  0.00  0.00    -0.324 N 
ATOM      9  H   UNL     1       3.154  -2.920   0.571  0.00  0.00    +0.169 HD
ATOM     10  C   UNL     1       1.333  -2.016   0.165  0.00  0.00    +0.219 A 
ENDROOT
BRANCH   4  11
ATOM     11  C   UNL     1      -0.899  -7.465  -1.138  0.00  0.00    +0.244 C 
ATOM     12  O   UNL     1      -2.059  -7.259  -1.439  0.00  0.00    -0.270 OA
ATOM     13  N   UNL     1      -0.411  -8.722  -1.157  0.00  0.00    -0.311 N 
ATOM     14  H   UNL     1       0.514  -8.886  -0.917  0.00  0.00    +0.149 HD
BRANCH  13  15
ATOM     15  C   UNL     1      -1.278  -9.838  -1.541  0.00  0.00    +0.110 C 
BRANCH  15  16
ATOM     16  C   UNL     1      -0.484 -11.145  -1.479  0.00  0.00    +0.073 C 
BRANCH  16  17
ATOM     17  C   UNL     1      -1.376 -12.294  -1.874  0.00  0.00    +0.035 A 
ATOM     18  C   UNL     1      -2.214 -12.962  -1.058  0.00  0.00    +0.105 A 
ATOM     19  N   UNL     1      -2.827 -13.920  -1.818  0.00  0.00    -0.352 N 
ATOM     20  H   UNL     1      -3.487 -14.563  -1.513  0.00  0.00    +0.166 HD
ATOM     21  C   UNL     1      -2.343 -13.804  -3.074  0.00  0.00    +0.171 A 
ATOM     22  N   UNL     1      -1.480 -12.826  -3.101  0.00  0.00    -0.350 N 
ATOM     23  H   UNL     1      -0.989 -12.532  -3.884  0.00  0.00    +0.166 HD
ENDBRANCH  16  17
ENDBRANCH  15  16
ENDBRANCH  13  15
ENDBRANCH   4  11
BRANCH   1  25
ATOM     24  N   UNL     1      -1.519  -1.086   0.446  0.00  0.00    -0.149 NA
ATOM     25  N   UNL     1      -1.022  -1.843  -0.473  0.00  0.00    -0.143 NA
BRANCH  24  31
ATOM     26  C   UNL     1      -0.601  -2.024   2.451  0.00  0.00    +0.031 A 
ATOM     27  C   UNL     1       0.070  -1.851   3.643  0.00  0.00    +0.030 A 
ATOM     28  C   UNL     1       0.494  -0.591   4.027  0.00  0.00    +0.105 A 
ATOM     29  C   UNL     1       0.247   0.505   3.218  0.00  0.00    +0.030 A 
ATOM     30  C   UNL     1      -0.423   0.347   2.023  0.00  0.00    +0.031 A 
ATOM     31  C   UNL     1      -0.854  -0.922   1.630  0.00  0.00    +0.086 A 
BRANCH  28  32
ATOM     32  S   UNL     1       1.351  -0.380   5.551  0.00  0.00    +0.056 S 
ATOM     33  O   UNL     1       1.161   0.974   5.941  0.00  0.00    -0.153 OA
ATOM     34  O   UNL     1       0.978  -1.471   6.382  0.00  0.00    -0.153 OA
BRANCH  32  35
ATOM     35  N   UNL     1       2.967  -0.558   5.234  0.00  0.00    -0.204 NA
ATOM     36  H   UNL     1       3.265  -0.744   4.330  0.00  0.00    +0.144 HD
ATOM     37  H   UNL     1       3.614  -0.477   5.952  0.00  0.00    +0.144 HD
ENDBRANCH  32  35
ENDBRANCH  28  32
ENDBRANCH  24  31
ENDBRANCH   1  25
BRANCH  10  38
ATOM     38  O   UNL     1       1.591  -0.709   0.394  0.00  0.00    -0.492 OA
ATOM     39  H   UNL     1       1.529  -0.453   1.325  0.00  0.00    +0.294 HD
ENDBRANCH  10  38
TORSDOF 9
