REMARK  Name = CHEMBL178408
REMARK  4 active torsions:
REMARK  status: ('A' for Active; 'I' for Inactive)
REMARK    1  A    between atoms: C_1  and  S_2
REMARK    2  A    between atoms: S_2  and  C_5
REMARK    3  A    between atoms: C_8  and  N_11
REMARK    4  A    between atoms: C_14  and  C_16
REMARK                            x       y       z     vdW  Elec       q    Type
REMARK                         _______ _______ _______ _____ _____    ______ ____
ROOT
ATOM      1  N   UNL     1       2.840  -1.461  -4.996  0.00  0.00    -0.231 N 
ATOM      2  C   UNL     1       4.029  -0.979  -5.402  0.00  0.00    +0.082 A 
ATOM      3  C   UNL     1       4.358  -1.590  -6.595  0.00  0.00    +0.011 A 
ATOM      4  C   UNL     1       3.302  -2.445  -6.926  0.00  0.00    +0.151 A 
ATOM      5  N   UNL     1       2.394  -2.377  -5.965  0.00  0.00    -0.161 NA
ATOM      6  C   UNL     1       5.656  -1.341  -7.312  0.00  0.00    +0.046 C 
ATOM      7  C   UNL     1       6.160   0.084  -7.074  0.00  0.00    +0.060 C 
ATOM      8  C   UNL     1       5.987   0.493  -5.637  0.00  0.00    +0.046 A 
ATOM      9  C   UNL     1       4.966   0.013  -4.839  0.00  0.00    +0.041 A 
ATOM     10  C   UNL     1       5.069   0.617  -3.591  0.00  0.00    +0.144 A 
ATOM     11  N   UNL     1       6.115   1.409  -3.615  0.00  0.00    -0.181 NA
ATOM     12  H   UNL     1       7.501   1.812  -5.172  0.00  0.00    +0.189 HD
ATOM     13  N   UNL     1       6.707   1.335  -4.887  0.00  0.00    -0.281 N 
ENDROOT
BRANCH   1  17
ATOM     14  C   UNL     1       0.845  -0.436  -1.484  0.00  0.00    +0.088 A 
ATOM     15  C   UNL     1       1.440   0.548  -2.251  0.00  0.00    +0.029 A 
ATOM     16  C   UNL     1       2.103   0.211  -3.416  0.00  0.00    +0.029 A 
ATOM     17  C   UNL     1       2.170  -1.117  -3.816  0.00  0.00    +0.066 A 
ATOM     18  C   UNL     1       1.571  -2.103  -3.043  0.00  0.00    +0.029 A 
ATOM     19  C   UNL     1       0.914  -1.760  -1.877  0.00  0.00    +0.029 A 
BRANCH  14  21
ATOM     20  C   UNL     1       1.270  -0.078   1.296  0.00  0.00    +0.200 C 
ATOM     21  S   UNL     1       0.001  -0.003   0.001  0.00  0.00    -0.006 S 
ATOM     22  O   UNL     1      -0.954  -1.038   0.191  0.00  0.00    -0.170 OA
ATOM     23  O   UNL     1      -0.416   1.340  -0.198  0.00  0.00    -0.170 OA
ENDBRANCH  14  21
ENDBRANCH   1  17
BRANCH   4  24
ATOM     24  C   UNL     1       3.216  -3.284  -8.138  0.00  0.00    +0.262 C 
ATOM     25  O   UNL     1       4.118  -3.269  -8.954  0.00  0.00    -0.269 OA
ATOM     26  N   UNL     1       2.138  -4.068  -8.341  0.00  0.00    -0.324 N 
ATOM     27  H   UNL     1       1.419  -4.081  -7.690  0.00  0.00    +0.145 HD
ATOM     28  H   UNL     1       2.082  -4.620  -9.136  0.00  0.00    +0.145 HD
ENDBRANCH   4  24
TORSDOF 3
