REMARK  Name = CHEMBL254979
REMARK  3 active torsions:
REMARK  status: ('A' for Active; 'I' for Inactive)
REMARK    1  A    between atoms: C_6  and  C_11
REMARK    2  A    between atoms: C_11  and  C_12
REMARK    3  A    between atoms: C_18  and  N_25
REMARK                            x       y       z     vdW  Elec       q    Type
REMARK                         _______ _______ _______ _____ _____    ______ ____
ROOT
ATOM      1  C   UNL     1       5.463  -2.949   1.355  0.00  0.00    +0.223 C 
ATOM      2  O   UNL     1       4.781  -2.575   2.286  0.00  0.00    -0.275 OA
ATOM      3  N   UNL     1       6.627  -3.587   1.586  0.00  0.00    -0.268 N 
ATOM      4  C   UNL     1       7.049  -3.818   2.901  0.00  0.00    +0.154 A 
ATOM      5  C   UNL     1       8.286  -4.489   3.305  0.00  0.00    +0.043 A 
ATOM      6  C   UNL     1       9.350  -5.065   2.605  0.00  0.00    +0.038 A 
ATOM      7  C   UNL     1      10.396  -5.634   3.305  0.00  0.00    +0.052 A 
ATOM      8  C   UNL     1      10.391  -5.633   4.700  0.00  0.00    +0.027 A 
ATOM      9  C   UNL     1       9.358  -5.074   5.395  0.00  0.00    +0.029 A 
ATOM     10  C   UNL     1       8.291  -4.494   4.712  0.00  0.00    +0.068 A 
ATOM     11  N   UNL     1       7.137  -3.869   5.115  0.00  0.00    -0.275 N 
ATOM     12  H   UNL     1       6.868  -3.724   6.036  0.00  0.00    +0.189 HD
ATOM     13  N   UNL     1       6.413  -3.469   3.987  0.00  0.00    -0.157 NA
ATOM     14  H   UNL     1       7.172  -3.886   0.842  0.00  0.00    +0.156 HD
ENDROOT
BRANCH   7  15
ATOM     15  N   UNL     1      11.465  -6.213   2.612  0.00  0.00    -0.207 N 
ATOM     16  C   UNL     1      11.444  -6.759   1.243  0.00  0.00    +0.133 C 
ATOM     17  C   UNL     1      12.829  -6.632   0.582  0.00  0.00    +0.045 C 
ATOM     18  C   UNL     1      13.840  -7.114   1.665  0.00  0.00    +0.190 C 
ATOM     19  S   UNL     1      13.033  -6.422   3.166  0.00  0.00    +0.046 S 
ATOM     20  O   UNL     1      12.947  -7.406   4.188  0.00  0.00    -0.155 OA
ATOM     21  O   UNL     1      13.515  -5.114   3.441  0.00  0.00    -0.155 OA
ENDBRANCH   7  15
BRANCH   1  22
ATOM     22  C   UNL     1       5.008  -2.700  -0.060  0.00  0.00    +0.131 C 
BRANCH  22  28
ATOM     23  C   UNL     1      -0.016   1.357   0.009  0.00  0.00    +0.001 A 
ATOM     24  C   UNL     1       1.169   2.091   0.002  0.00  0.00    +0.001 A 
ATOM     25  C   UNL     1       2.378   1.468  -0.013  0.00  0.00    +0.008 A 
ATOM     26  C   UNL     1       2.438   0.063  -0.021  0.00  0.00    -0.018 A 
ATOM     27  C   UNL     1       3.668  -0.615  -0.036  0.00  0.00    +0.012 A 
ATOM     28  C   UNL     1       3.687  -1.976  -0.043  0.00  0.00    -0.038 A 
ATOM     29  C   UNL     1       2.502  -2.710  -0.036  0.00  0.00    +0.005 A 
ATOM     30  C   UNL     1       1.292  -2.087  -0.021  0.00  0.00    +0.009 A 
ATOM     31  C   UNL     1       1.233  -0.683  -0.013  0.00  0.00    -0.018 A 
ATOM     32  C   UNL     1       0.002  -0.004   0.002  0.00  0.00    +0.008 A 
ENDBRANCH  22  28
ENDBRANCH   1  22
TORSDOF 3
