REMARK  Name = CHEMBL392776
REMARK  4 active torsions:
REMARK  status: ('A' for Active; 'I' for Inactive)
REMARK    1  A    between atoms: C_1  and  C_2
REMARK    2  A    between atoms: C_8  and  C_20
REMARK    3  A    between atoms: C_11  and  N_13
REMARK    4  A    between atoms: C_23  and  O_27
REMARK                            x       y       z     vdW  Elec       q    Type
REMARK                         _______ _______ _______ _____ _____    ______ ____
ROOT
ATOM      1  C   UNL     1       0.302   1.505  -0.026  0.00  0.00    +0.044 C 
ATOM      2  C   UNL     1       0.303  -0.002  -0.032  0.00  0.00    -0.048 A 
ATOM      3  C   UNL     1       0.042  -0.682  -1.201  0.00  0.00    +0.019 A 
ATOM      4  C   UNL     1       0.044  -2.078  -1.205  0.00  0.00    +0.070 A 
ATOM      5  C   UNL     1      -0.231  -2.839  -2.439  0.00  0.00    +0.240 A 
ATOM      6  O   UNL     1      -0.468  -2.272  -3.493  0.00  0.00    -0.283 OA
ATOM      7  C   UNL     1      -0.208  -4.253  -2.352  0.00  0.00    +0.268 A 
ATOM      8  C   UNL     1       0.063  -4.849  -1.143  0.00  0.00    +0.186 A 
ATOM      9  O   UNL     1       0.310  -4.136  -0.032  0.00  0.00    -0.449 OA
ATOM     10  C   UNL     1       0.310  -2.786  -0.024  0.00  0.00    +0.162 A 
ATOM     11  C   UNL     1       0.572  -2.080   1.152  0.00  0.00    +0.094 A 
ATOM     12  C   UNL     1       0.572  -0.696   1.137  0.00  0.00    +0.031 A 
ATOM     13  O   UNL     1      -0.454  -5.013  -3.453  0.00  0.00    -0.280 OA
ENDROOT
BRANCH  11  14
ATOM     14  N   UNL     1       0.839  -2.769   2.339  0.00  0.00    -0.204 N 
ATOM     15  C   UNL     1      -0.125  -3.126   3.396  0.00  0.00    +0.133 C 
ATOM     16  C   UNL     1       0.307  -4.414   4.120  0.00  0.00    +0.045 C 
ATOM     17  C   UNL     1       1.830  -4.230   4.397  0.00  0.00    +0.190 C 
ATOM     18  S   UNL     1       2.320  -3.366   2.849  0.00  0.00    +0.046 S 
ATOM     19  O   UNL     1       2.717  -4.299   1.854  0.00  0.00    -0.155 OA
ATOM     20  O   UNL     1       3.110  -2.221   3.142  0.00  0.00    -0.155 OA
ENDBRANCH  11  14
BRANCH   8  21
ATOM     21  C   UNL     1       0.084  -6.321  -1.064  0.00  0.00    +0.023 A 
ATOM     22  C   UNL     1       0.789  -7.064  -2.016  0.00  0.00    +0.015 A 
ATOM     23  C   UNL     1       0.806  -8.439  -1.938  0.00  0.00    +0.047 A 
ATOM     24  C   UNL     1       0.124  -9.088  -0.916  0.00  0.00    +0.131 A 
ATOM     25  C   UNL     1      -0.579  -8.354   0.032  0.00  0.00    +0.060 A 
ATOM     26  C   UNL     1      -0.596  -6.977  -0.034  0.00  0.00    +0.030 A 
ATOM     27 BR   UNL     1      -1.505  -9.244   1.419  0.00  0.00    -0.047 Br
BRANCH  24  28
ATOM     28  O   UNL     1       0.144 -10.444  -0.844  0.00  0.00    -0.506 OA
ATOM     29  H   UNL     1       0.872 -10.799  -0.317  0.00  0.00    +0.292 HD
ENDBRANCH  24  28
ENDBRANCH   8  21
TORSDOF 3
