REMARK  Name = CHEMBL203407
REMARK  6 active torsions:
REMARK  status: ('A' for Active; 'I' for Inactive)
REMARK    1  A    between atoms: C_3  and  S_24
REMARK    2  A    between atoms: C_6  and  N_7
REMARK    3  A    between atoms: N_7  and  C_8
REMARK    4  A    between atoms: C_10  and  O_17
REMARK    5  A    between atoms: O_17  and  C_18
REMARK    6  A    between atoms: S_24  and  N_27
REMARK                            x       y       z     vdW  Elec       q    Type
REMARK                         _______ _______ _______ _____ _____    ______ ____
ROOT
ATOM      1  C   UNL     1      -1.261  -2.098   0.065  0.00  0.00    +0.133 A 
ATOM      2  C   UNL     1      -0.117  -2.843   0.139  0.00  0.00    +0.111 A 
ATOM      3  C   UNL     1      -0.216  -4.239   0.192  0.00  0.00    +0.221 A 
ATOM      4  N   UNL     1      -1.401  -4.825   0.172  0.00  0.00    -0.175 NA
ATOM      5  C   UNL     1      -2.525  -4.103   0.099  0.00  0.00    +0.258 A 
ATOM      6  N   UNL     1      -2.469  -2.739   0.051  0.00  0.00    -0.182 N 
ATOM      7  N   UNL     1      -3.794  -2.289  -0.011  0.00  0.00    -0.151 NA
ATOM      8  C   UNL     1      -4.561  -3.351   0.007  0.00  0.00    +0.247 A 
ATOM      9  N   UNL     1      -3.808  -4.444   0.065  0.00  0.00    -0.197 NA
ENDROOT
BRANCH   1  10
ATOM     10  N   UNL     1      -1.198  -0.721   0.010  0.00  0.00    -0.299 N 
ATOM     11  H   UNL     1      -0.758  -0.227   0.720  0.00  0.00    +0.154 HD
BRANCH  10  17
ATOM     12  C   UNL     1      -2.268  -0.744  -2.154  0.00  0.00    +0.025 A 
ATOM     13  C   UNL     1      -2.831  -0.065  -3.217  0.00  0.00    +0.030 A 
ATOM     14  C   UNL     1      -2.896   1.316  -3.201  0.00  0.00    +0.105 A 
ATOM     15  C   UNL     1      -2.398   2.023  -2.121  0.00  0.00    +0.030 A 
ATOM     16  C   UNL     1      -1.834   1.350  -1.055  0.00  0.00    +0.025 A 
ATOM     17  C   UNL     1      -1.768  -0.037  -1.068  0.00  0.00    +0.032 A 
BRANCH  14  18
ATOM     18  S   UNL     1      -3.614   2.178  -4.560  0.00  0.00    +0.056 S 
ATOM     19  O   UNL     1      -3.061   3.487  -4.548  0.00  0.00    -0.153 OA
ATOM     20  O   UNL     1      -3.510   1.318  -5.687  0.00  0.00    -0.153 OA
BRANCH  18  21
ATOM     21  N   UNL     1      -5.229   2.343  -4.237  0.00  0.00    -0.204 NA
ATOM     22  H   UNL     1      -5.598   1.987  -3.413  0.00  0.00    +0.144 HD
ATOM     23  H   UNL     1      -5.807   2.796  -4.871  0.00  0.00    +0.144 HD
ENDBRANCH  18  21
ENDBRANCH  14  18
ENDBRANCH  10  17
ENDBRANCH   1  10
BRANCH   3  24
ATOM     24  O   UNL     1       0.907  -4.992   0.265  0.00  0.00    -0.473 OA
BRANCH  24  25
ATOM     25  C   UNL     1       0.736  -6.410   0.317  0.00  0.00    +0.175 C 
ATOM     26  C   UNL     1       0.621  -6.856   1.776  0.00  0.00    +0.044 C 
ATOM     27  C   UNL     1       0.436  -8.374   1.832  0.00  0.00    +0.004 C 
ATOM     28  C   UNL     1       1.641  -9.058   1.183  0.00  0.00    +0.000 C 
ATOM     29  C   UNL     1       1.757  -8.612  -0.276  0.00  0.00    +0.004 C 
ATOM     30  C   UNL     1       1.941  -7.094  -0.332  0.00  0.00    +0.044 C 
ENDBRANCH  24  25
ENDBRANCH   3  24
TORSDOF 6
