REMARK  Name = CHEMBL373346
REMARK  6 active torsions:
REMARK  status: ('A' for Active; 'I' for Inactive)
REMARK    1  A    between atoms: C_1  and  C_2
REMARK    2  A    between atoms: C_2  and  C_3
REMARK    3  A    between atoms: C_2  and  C_16
REMARK    4  A    between atoms: C_6  and  N_9
REMARK    5  A    between atoms: N_18  and  C_19
REMARK    6  A    between atoms: C_21  and  C_25
REMARK                            x       y       z     vdW  Elec       q    Type
REMARK                         _______ _______ _______ _____ _____    ______ ____
ROOT
ATOM      1  C   UNL     1      -0.319   1.463  -0.130  0.00  0.00    +0.022 C 
ATOM      2  C   UNL     1      -0.014  -0.030   0.003  0.00  0.00    +0.102 C 
ENDROOT
BRANCH   2   3
ATOM      3  C   UNL     1       0.695  -0.510  -1.237  0.00  0.00    -0.036 A 
ATOM      4  C   UNL     1       1.910   0.044  -1.596  0.00  0.00    +0.006 A 
ATOM      5  C   UNL     1       2.562  -0.394  -2.732  0.00  0.00    +0.024 A 
ATOM      6  C   UNL     1       1.997  -1.393  -3.513  0.00  0.00    +0.041 A 
ATOM      7  C   UNL     1       0.777  -1.948  -3.150  0.00  0.00    +0.024 A 
ATOM      8  C   UNL     1       0.132  -1.509  -2.010  0.00  0.00    +0.006 A 
BRANCH   6   9
ATOM      9  N   UNL     1       2.656  -1.839  -4.666  0.00  0.00    -0.245 N 
ATOM     10  C   UNL     1       2.179  -1.616  -5.948  0.00  0.00    +0.012 C 
ATOM     11  C   UNL     1       1.070  -0.972  -6.256  0.00  0.00    +0.029 C 
ATOM     12  C   UNL     1       3.143  -2.236  -6.936  0.00  0.00    +0.060 C 
ATOM     13  C   UNL     1       4.242  -2.847  -6.045  0.00  0.00    +0.102 C 
ATOM     14  C   UNL     1       3.809  -2.518  -4.636  0.00  0.00    +0.224 C 
ATOM     15  O   UNL     1       4.414  -2.824  -3.630  0.00  0.00    -0.275 OA
ENDBRANCH   6   9
ENDBRANCH   2   3
BRANCH   2  16
ATOM     16  C   UNL     1       0.867  -0.257   1.205  0.00  0.00    +0.225 C 
ATOM     17  O   UNL     1       1.962  -0.760   1.068  0.00  0.00    -0.275 OA
ATOM     18  N   UNL     1       0.438   0.098   2.432  0.00  0.00    -0.270 N 
ATOM     19  H   UNL     1      -0.439   0.500   2.542  0.00  0.00    +0.156 HD
BRANCH  18  20
ATOM     20  C   UNL     1       1.252  -0.112   3.544  0.00  0.00    +0.121 A 
ATOM     21  C   UNL     1       2.497  -0.663   3.537  0.00  0.00    +0.068 A 
ATOM     22  C   UNL     1       2.961  -0.690   4.854  0.00  0.00    +0.068 A 
ATOM     23  N   UNL     1       2.038  -0.177   5.626  0.00  0.00    -0.177 NA
ATOM     24  H   UNL     1       0.129   0.610   5.135  0.00  0.00    +0.190 HD
ATOM     25  N   UNL     1       0.952   0.200   4.825  0.00  0.00    -0.264 N 
BRANCH  22  26
ATOM     26  C   UNL     1       4.297  -1.219   5.309  0.00  0.00    +0.040 C 
ATOM     27  C   UNL     1       5.070  -2.114   4.338  0.00  0.00    +0.010 C 
ATOM     28  C   UNL     1       4.408  -2.721   5.576  0.00  0.00    +0.010 C 
ENDBRANCH  22  26
ENDBRANCH  18  20
ENDBRANCH   2  16
TORSDOF 5
