REMARK  Name = CHEMBL141247
REMARK  1 active torsions:
REMARK  status: ('A' for Active; 'I' for Inactive)
REMARK    1  A    between atoms: N_10  and  C_11
REMARK                            x       y       z     vdW  Elec       q    Type
REMARK                         _______ _______ _______ _____ _____    ______ ____
ROOT
ATOM      1  C   UNL     1      -0.985  -4.925   0.155  0.00  0.00    +0.040 A 
ATOM      2  C   UNL     1      -2.210  -4.266   0.163  0.00  0.00    +0.024 A 
ATOM      3  C   UNL     1      -3.387  -4.990   0.166  0.00  0.00    +0.003 A 
ATOM      4  C   UNL     1      -3.357  -6.370   0.170  0.00  0.00    +0.013 A 
ATOM      5  C   UNL     1      -2.134  -7.042   0.173  0.00  0.00    +0.044 A 
ATOM      6  C   UNL     1      -0.945  -6.306   0.144  0.00  0.00    +0.006 A 
ATOM      7  C   UNL     1       0.167  -7.312   0.084  0.00  0.00    +0.109 C 
ATOM      8  C   UNL     1       1.179  -7.145   1.228  0.00  0.00    +0.029 C 
ATOM      9  C   UNL     1       1.530  -8.592   1.646  0.00  0.00    +0.021 C 
ATOM     10  C   UNL     1       0.661  -9.491   0.732  0.00  0.00    +0.109 C 
ATOM     11  N   UNL     1      -0.470  -8.626   0.334  0.00  0.00    -0.290 N 
ATOM     12  C   UNL     1      -1.788  -8.479   0.197  0.00  0.00    +0.247 C 
ATOM     13  O   UNL     1      -2.584  -9.392   0.092  0.00  0.00    -0.270 OA
ENDROOT
BRANCH   1  23
ATOM     14  C   UNL     1       2.624   1.038   1.721  0.00  0.00    +0.005 A 
ATOM     15  C   UNL     1       1.472   1.520   2.327  0.00  0.00    +0.020 A 
ATOM     16  C   UNL     1       0.327   0.748   2.311  0.00  0.00    +0.113 A 
ATOM     17  N   UNL     1       0.317  -0.436   1.730  0.00  0.00    -0.240 NA
ATOM     18  C   UNL     1       1.396  -0.930   1.142  0.00  0.00    +0.126 A 
ATOM     19  C   UNL     1       2.583  -0.207   1.119  0.00  0.00    +0.044 A 
ATOM     20  N   UNL     1       1.340  -2.186   0.540  0.00  0.00    -0.254 N 
ATOM     21  C   UNL     1       0.225  -2.935   0.645  0.00  0.00    +0.309 C 
ATOM     22  O   UNL     1      -0.764  -2.480   1.186  0.00  0.00    -0.252 OA
ATOM     23  N   UNL     1       0.206  -4.189   0.152  0.00  0.00    -0.269 N 
ATOM     24  H   UNL     1       2.104  -2.521   0.045  0.00  0.00    +0.158 HD
ATOM     25  H   UNL     1       1.018  -4.582  -0.206  0.00  0.00    +0.156 HD
ENDBRANCH   1  23
TORSDOF 1
