REMARK  Name = CHEMBL192556
REMARK  7 active torsions:
REMARK  status: ('A' for Active; 'I' for Inactive)
REMARK    1  A    between atoms: C_1  and  C_2
REMARK    2  A    between atoms: C_2  and  C_3
REMARK    3  A    between atoms: C_2  and  C_18
REMARK    4  A    between atoms: C_6  and  N_9
REMARK    5  A    between atoms: C_12  and  C_15
REMARK    6  A    between atoms: N_20  and  C_21
REMARK    7  A    between atoms: C_23  and  C_27
REMARK                            x       y       z     vdW  Elec       q    Type
REMARK                         _______ _______ _______ _____ _____    ______ ____
ROOT
ATOM      1  C   UNL     1       0.708  -0.490  -1.238  0.00  0.00    -0.036 A 
ATOM      2  C   UNL     1       2.031  -0.154  -1.455  0.00  0.00    +0.006 A 
ATOM      3  C   UNL     1       2.680  -0.598  -2.591  0.00  0.00    +0.024 A 
ATOM      4  C   UNL     1       2.003  -1.383  -3.514  0.00  0.00    +0.036 A 
ATOM      5  C   UNL     1       0.674  -1.719  -3.293  0.00  0.00    +0.024 A 
ATOM      6  C   UNL     1       0.031  -1.276  -2.153  0.00  0.00    +0.006 A 
ENDROOT
BRANCH   4   7
ATOM      7  N   UNL     1       2.658  -1.834  -4.665  0.00  0.00    -0.271 N 
ATOM      8  C   UNL     1       2.071  -2.759  -5.643  0.00  0.00    +0.115 C 
ATOM      9  C   UNL     1       3.263  -3.299  -6.465  0.00  0.00    +0.041 C 
ATOM     10  C   UNL     1       4.295  -2.158  -6.311  0.00  0.00    +0.162 C 
ATOM     11  C   UNL     1       3.902  -1.471  -5.022  0.00  0.00    +0.232 C 
ATOM     12  O   UNL     1       4.608  -0.706  -4.399  0.00  0.00    -0.274 OA
BRANCH  10  13
ATOM     13  C   UNL     1       5.690  -2.719  -6.210  0.00  0.00    +0.222 C 
ATOM     14  O   UNL     1       5.866  -3.918  -6.255  0.00  0.00    -0.275 OA
ATOM     15  N   UNL     1       6.742  -1.888  -6.070  0.00  0.00    -0.329 N 
ATOM     16  H   UNL     1       6.601  -0.929  -6.034  0.00  0.00    +0.145 HD
ATOM     17  H   UNL     1       7.640  -2.249  -6.005  0.00  0.00    +0.145 HD
ENDBRANCH  10  13
ENDBRANCH   4   7
BRANCH   1  19
ATOM     18  C   UNL     1      -0.002   1.526   0.020  0.00  0.00    +0.022 C 
ATOM     19  C   UNL     1       0.002  -0.004   0.002  0.00  0.00    +0.102 C 
BRANCH  19  20
ATOM     20  C   UNL     1       0.720  -0.519   1.223  0.00  0.00    +0.225 C 
ATOM     21  O   UNL     1       1.707  -1.212   1.098  0.00  0.00    -0.275 OA
ATOM     22  N   UNL     1       0.265  -0.209   2.453  0.00  0.00    -0.270 N 
ATOM     23  H   UNL     1      -0.525   0.346   2.553  0.00  0.00    +0.156 HD
BRANCH  22  24
ATOM     24  C   UNL     1       0.929  -0.686   3.583  0.00  0.00    +0.121 A 
ATOM     25  C   UNL     1       2.043  -1.469   3.591  0.00  0.00    +0.068 A 
ATOM     26  C   UNL     1       2.382  -1.717   4.923  0.00  0.00    +0.068 A 
ATOM     27  N   UNL     1       1.512  -1.111   5.689  0.00  0.00    -0.177 NA
ATOM     28  H   UNL     1      -0.164   0.084   5.172  0.00  0.00    +0.190 HD
ATOM     29  N   UNL     1       0.588  -0.449   4.870  0.00  0.00    -0.264 N 
BRANCH  26  30
ATOM     30  C   UNL     1       3.550  -2.543   5.397  0.00  0.00    +0.040 C 
ATOM     31  C   UNL     1       4.217  -3.472   4.381  0.00  0.00    +0.010 C 
ATOM     32  C   UNL     1       3.350  -4.056   5.500  0.00  0.00    +0.010 C 
ENDBRANCH  26  30
ENDBRANCH  22  24
ENDBRANCH  19  20
ENDBRANCH   1  19
TORSDOF 6
