REMARK  Name = CHEMBL319467
REMARK  6 active torsions:
REMARK  status: ('A' for Active; 'I' for Inactive)
REMARK    1  A    between atoms: C_3  and  S_26
REMARK    2  A    between atoms: C_6  and  N_7
REMARK    3  A    between atoms: C_12  and  O_14
REMARK    4  A    between atoms: O_14  and  C_15
REMARK    5  A    between atoms: C_15  and  C_16
REMARK    6  A    between atoms: S_26  and  N_29
REMARK                            x       y       z     vdW  Elec       q    Type
REMARK                         _______ _______ _______ _____ _____    ______ ____
ROOT
ATOM      1  N   UNL     1      -1.198  -0.721   0.010  0.00  0.00    -0.283 N 
ATOM      2  C   UNL     1      -1.181  -2.103  -0.102  0.00  0.00    +0.225 A 
ATOM      3  N   UNL     1      -2.331  -2.751  -0.193  0.00  0.00    -0.195 NA
ATOM      4  C   UNL     1      -2.353  -4.075  -0.301  0.00  0.00    +0.167 A 
ATOM      5  C   UNL     1      -1.137  -4.780  -0.319  0.00  0.00    +0.169 A 
ATOM      6  C   UNL     1       0.058  -4.051  -0.221  0.00  0.00    +0.248 A 
ATOM      7  N   UNL     1      -0.011  -2.730  -0.120  0.00  0.00    -0.177 NA
ATOM      8  N   UNL     1      -1.441  -6.097  -0.437  0.00  0.00    -0.229 NA
ATOM      9  H   UNL     1      -4.296  -4.853  -0.429  0.00  0.00    +0.168 HD
ATOM     10  C   UNL     1      -2.733  -6.239  -0.491  0.00  0.00    +0.199 A 
ATOM     11  N   UNL     1      -3.341  -5.020  -0.411  0.00  0.00    -0.329 N 
ATOM     12  H   UNL     1      -2.037  -0.239  -0.060  0.00  0.00    +0.155 HD
ENDROOT
BRANCH   1  18
ATOM     13  C   UNL     1       0.167   1.243  -0.322  0.00  0.00    +0.025 A 
ATOM     14  C   UNL     1       1.345   1.931  -0.107  0.00  0.00    +0.030 A 
ATOM     15  C   UNL     1       2.352   1.361   0.650  0.00  0.00    +0.105 A 
ATOM     16  C   UNL     1       2.183   0.101   1.195  0.00  0.00    +0.030 A 
ATOM     17  C   UNL     1       1.007  -0.592   0.985  0.00  0.00    +0.025 A 
ATOM     18  C   UNL     1      -0.006  -0.022   0.225  0.00  0.00    +0.034 A 
BRANCH  15  19
ATOM     19  S   UNL     1       3.854   2.242   0.921  0.00  0.00    +0.056 S 
ATOM     20  O   UNL     1       4.850   1.269   1.206  0.00  0.00    -0.153 OA
ATOM     21  O   UNL     1       3.979   3.169  -0.148  0.00  0.00    -0.153 OA
BRANCH  19  22
ATOM     22  N   UNL     1       3.656   3.134   2.301  0.00  0.00    -0.204 NA
ATOM     23  H   UNL     1       4.421   3.335   2.863  0.00  0.00    +0.144 HD
ATOM     24  H   UNL     1       2.775   3.457   2.548  0.00  0.00    +0.144 HD
ENDBRANCH  19  22
ENDBRANCH  15  19
ENDBRANCH   1  18
BRANCH   6  25
ATOM     25  O   UNL     1       1.256  -4.681  -0.233  0.00  0.00    -0.475 OA
BRANCH  25  26
ATOM     26  C   UNL     1       2.422  -3.862  -0.128  0.00  0.00    +0.234 C 
BRANCH  26  27
ATOM     27  C   UNL     1       3.671  -4.745  -0.159  0.00  0.00    +0.027 C 
ATOM     28  C   UNL     1       3.693  -5.641   1.081  0.00  0.00    +0.007 C 
ATOM     29  C   UNL     1       4.942  -6.524   1.050  0.00  0.00    +0.000 C 
ATOM     30  C   UNL     1       6.191  -5.641   1.037  0.00  0.00    +0.000 C 
ATOM     31  C   UNL     1       6.169  -4.745  -0.203  0.00  0.00    +0.000 C 
ATOM     32  C   UNL     1       4.920  -3.861  -0.172  0.00  0.00    +0.007 C 
ENDBRANCH  26  27
ENDBRANCH  25  26
ENDBRANCH   6  25
TORSDOF 6
