REMARK  Name = CHEMBL360695
REMARK  5 active torsions:
REMARK  status: ('A' for Active; 'I' for Inactive)
REMARK    1  A    between atoms: C_1  and  N_2
REMARK    2  A    between atoms: N_5  and  S_8
REMARK    3  A    between atoms: S_8  and  C_11
REMARK    4  A    between atoms: C_14  and  N_17
REMARK    5  A    between atoms: C_28  and  C_30
REMARK                            x       y       z     vdW  Elec       q    Type
REMARK                         _______ _______ _______ _____ _____    ______ ____
ROOT
ATOM      1  N   UNL     1       7.480  -1.383  -0.356  0.00  0.00    -0.231 N 
ATOM      2  C   UNL     1       7.981  -0.486   0.545  0.00  0.00    +0.086 A 
ATOM      3  C   UNL     1       9.272  -0.154   0.134  0.00  0.00    +0.033 A 
ATOM      4  C   UNL     1      10.063   0.760   0.861  0.00  0.00    +0.014 A 
ATOM      5  C   UNL     1       9.623   1.361   1.986  0.00  0.00    +0.031 A 
ATOM      6  C   UNL     1       8.286   1.077   2.495  0.00  0.00    +0.095 A 
ATOM      7  C   UNL     1       7.440   0.128   1.756  0.00  0.00    +0.046 A 
ATOM      8  C   UNL     1       6.250   0.045   2.444  0.00  0.00    +0.115 A 
ATOM      9  N   UNL     1       6.332   0.858   3.510  0.00  0.00    -0.284 N 
ATOM     10  N   UNL     1       7.582   1.486   3.532  0.00  0.00    -0.174 NA
ATOM     11  H   UNL     1       5.629   0.990   4.165  0.00  0.00    +0.188 HD
ATOM     12  C   UNL     1       9.520  -0.922  -1.094  0.00  0.00    +0.155 A 
ATOM     13  N   UNL     1       8.441  -1.635  -1.340  0.00  0.00    -0.161 NA
ENDROOT
BRANCH   1  17
ATOM     14  C   UNL     1       3.693  -3.114  -0.187  0.00  0.00    +0.106 A 
ATOM     15  C   UNL     1       4.262  -2.816  -1.412  0.00  0.00    +0.030 A 
ATOM     16  C   UNL     1       5.517  -2.242  -1.471  0.00  0.00    +0.030 A 
ATOM     17  C   UNL     1       6.208  -1.964  -0.299  0.00  0.00    +0.066 A 
ATOM     18  C   UNL     1       5.634  -2.264   0.930  0.00  0.00    +0.030 A 
ATOM     19  C   UNL     1       4.377  -2.833   0.982  0.00  0.00    +0.030 A 
BRANCH  14  20
ATOM     20  S   UNL     1       2.092  -3.845  -0.115  0.00  0.00    +0.061 S 
ATOM     21  O   UNL     1       2.009  -4.521   1.132  0.00  0.00    -0.153 OA
ATOM     22  O   UNL     1       1.892  -4.508  -1.356  0.00  0.00    -0.153 OA
BRANCH  20  27
ATOM     23  C   UNL     1      -0.018   1.465   0.010  0.00  0.00    +0.105 C 
ATOM     24  N   UNL     1       0.002  -0.004   0.002  0.00  0.00    -0.303 NA
ATOM     25  C   UNL     1       0.592  -0.516  -1.242  0.00  0.00    +0.101 C 
ATOM     26  C   UNL     1       0.430  -2.039  -1.292  0.00  0.00    +0.125 C 
ATOM     27  N   UNL     1       0.991  -2.608  -0.057  0.00  0.00    -0.174 NA
ATOM     28  C   UNL     1       0.549  -2.051   1.230  0.00  0.00    +0.125 C 
ATOM     29  C   UNL     1       0.706  -0.527   1.180  0.00  0.00    +0.101 C 
ENDBRANCH  20  27
ENDBRANCH  14  20
ENDBRANCH   1  17
BRANCH  12  30
ATOM     30  C   UNL     1      10.755  -0.904  -1.900  0.00  0.00    +0.262 C 
ATOM     31  O   UNL     1      11.690  -0.203  -1.563  0.00  0.00    -0.269 OA
ATOM     32  N   UNL     1      10.847  -1.663  -3.009  0.00  0.00    -0.324 N 
ATOM     33  H   UNL     1      10.101  -2.222  -3.278  0.00  0.00    +0.145 HD
ATOM     34  H   UNL     1      11.659  -1.651  -3.539  0.00  0.00    +0.145 HD
ENDBRANCH  12  30
TORSDOF 4
