REMARK  Name = CHEMBL195641
REMARK  7 active torsions:
REMARK  status: ('A' for Active; 'I' for Inactive)
REMARK    1  A    between atoms: C_6  and  N_7
REMARK    2  A    between atoms: C_9  and  C_27
REMARK    3  A    between atoms: N_14  and  C_15
REMARK    4  A    between atoms: C_18  and  N_24
REMARK    5  A    between atoms: C_19  and  N_21
REMARK    6  A    between atoms: N_21  and  C_22
REMARK    7  A    between atoms: N_24  and  C_25
REMARK                            x       y       z     vdW  Elec       q    Type
REMARK                         _______ _______ _______ _____ _____    ______ ____
ROOT
ATOM      1  N   UNL     1      -1.267  -0.724  -0.299  0.00  0.00    -0.299 N 
ATOM      2  C   UNL     1      -2.464  -0.034  -0.188  0.00  0.00    +0.140 A 
ATOM      3  C   UNL     1      -3.682  -0.715  -0.245  0.00  0.00    +0.113 A 
ATOM      4  C   UNL     1      -4.850   0.013  -0.131  0.00  0.00    +0.130 A 
ATOM      5  N   UNL     1      -4.782   1.327   0.029  0.00  0.00    -0.222 NA
ATOM      6  C   UNL     1      -3.612   1.947   0.080  0.00  0.00    +0.221 A 
ATOM      7  N   UNL     1      -2.469   1.285  -0.021  0.00  0.00    -0.199 NA
ATOM      8  N   UNL     1      -3.583   3.322   0.247  0.00  0.00    -0.284 N 
ATOM      9  H   UNL     1      -1.271  -1.674  -0.493  0.00  0.00    +0.154 HD
ATOM     10  H   UNL     1      -2.739   3.797   0.209  0.00  0.00    +0.155 HD
ENDROOT
BRANCH   1  16
ATOM     11  C   UNL     1       1.071  -0.453  -0.850  0.00  0.00    +0.025 A 
ATOM     12  C   UNL     1       2.273   0.203  -0.693  0.00  0.00    +0.029 A 
ATOM     13  C   UNL     1       2.368   1.273   0.186  0.00  0.00    +0.066 A 
ATOM     14  C   UNL     1       1.241   1.687   0.916  0.00  0.00    +0.091 A 
ATOM     15  C   UNL     1       0.028   1.015   0.749  0.00  0.00    +0.053 A 
ATOM     16  C   UNL     1      -0.052  -0.049  -0.130  0.00  0.00    +0.035 A 
ATOM     17  N   UNL     1       1.630   2.739   1.682  0.00  0.00    -0.236 NA
ATOM     18  C   UNL     1       2.889   2.990   1.474  0.00  0.00    +0.197 A 
ATOM     19  N   UNL     1       3.396   2.118   0.562  0.00  0.00    -0.344 N 
ATOM     20  H   UNL     1       4.309   2.093   0.236  0.00  0.00    +0.167 HD
ENDBRANCH   1  16
BRANCH   8  21
ATOM     21  C   UNL     1      -4.773   4.025   0.472  0.00  0.00    +0.035 A 
ATOM     22  C   UNL     1      -5.804   3.432   1.189  0.00  0.00    +0.025 A 
ATOM     23  C   UNL     1      -6.980   4.123   1.413  0.00  0.00    +0.027 A 
ATOM     24  C   UNL     1      -7.133   5.411   0.921  0.00  0.00    +0.062 A 
ATOM     25  C   UNL     1      -6.100   6.009   0.201  0.00  0.00    +0.064 A 
ATOM     26  C   UNL     1      -4.919   5.315  -0.018  0.00  0.00    +0.049 A 
BRANCH  25  27
ATOM     27  N   UNL     1      -6.252   7.309  -0.297  0.00  0.00    -0.250 N 
ATOM     28  H   UNL     1      -7.077   7.794  -0.140  0.00  0.00    +0.164 HD
BRANCH  27  29
ATOM     29  C   UNL     1      -5.247   7.888  -0.997  0.00  0.00    +0.171 C 
ATOM     30  N   UNL     1      -4.404   8.374  -1.584  0.00  0.00    -0.174 NA
ENDBRANCH  27  29
ENDBRANCH  25  27
BRANCH  24  31
ATOM     31  N   UNL     1      -8.327   6.111   1.149  0.00  0.00    -0.251 N 
ATOM     32  H   UNL     1      -8.434   7.012   0.805  0.00  0.00    +0.164 HD
BRANCH  31  33
ATOM     33  C   UNL     1      -9.331   5.530   1.849  0.00  0.00    +0.171 C 
ATOM     34  N   UNL     1     -10.172   5.042   2.435  0.00  0.00    -0.174 NA
ENDBRANCH  31  33
ENDBRANCH  24  31
ENDBRANCH   8  21
BRANCH   3  35
ATOM     35  C   UNL     1      -3.721  -2.210  -0.429  0.00  0.00    +0.422 C 
ATOM     36  F   UNL     1      -5.052  -2.642  -0.453  0.00  0.00    -0.166 F 
ATOM     37  F   UNL     1      -3.099  -2.549  -1.635  0.00  0.00    -0.166 F 
ATOM     38  F   UNL     1      -3.050  -2.828   0.632  0.00  0.00    -0.166 F 
ENDBRANCH   3  35
TORSDOF 7
