REMARK  Name = CHEMBL402759
REMARK  4 active torsions:
REMARK  status: ('A' for Active; 'I' for Inactive)
REMARK    1  A    between atoms: C_4  and  C_7
REMARK    2  A    between atoms: C_10  and  C_13
REMARK    3  A    between atoms: C_13  and  C_14
REMARK    4  A    between atoms: C_20  and  N_27
REMARK                            x       y       z     vdW  Elec       q    Type
REMARK                         _______ _______ _______ _____ _____    ______ ____
ROOT
ATOM      1  C   UNL     1       7.884  -3.026   1.330  0.00  0.00    +0.223 C 
ATOM      2  O   UNL     1       7.202  -2.651   2.261  0.00  0.00    -0.275 OA
ATOM      3  N   UNL     1       9.043  -3.673   1.562  0.00  0.00    -0.268 N 
ATOM      4  C   UNL     1       9.461  -3.912   2.876  0.00  0.00    +0.154 A 
ATOM      5  C   UNL     1      10.692  -4.593   3.280  0.00  0.00    +0.043 A 
ATOM      6  C   UNL     1      11.755  -5.173   2.580  0.00  0.00    +0.038 A 
ATOM      7  C   UNL     1      12.795  -5.751   3.280  0.00  0.00    +0.052 A 
ATOM      8  C   UNL     1      12.787  -5.757   4.676  0.00  0.00    +0.027 A 
ATOM      9  C   UNL     1      11.755  -5.194   5.370  0.00  0.00    +0.029 A 
ATOM     10  C   UNL     1      10.694  -4.604   4.687  0.00  0.00    +0.068 A 
ATOM     11  N   UNL     1       9.543  -3.973   5.090  0.00  0.00    -0.275 N 
ATOM     12  H   UNL     1       9.273  -3.831   6.011  0.00  0.00    +0.189 HD
ATOM     13  N   UNL     1       8.825  -3.563   3.962  0.00  0.00    -0.157 NA
ATOM     14  H   UNL     1       9.589  -3.972   0.817  0.00  0.00    +0.156 HD
ENDROOT
BRANCH   7  15
ATOM     15  N   UNL     1      13.862  -6.335   2.587  0.00  0.00    -0.207 N 
ATOM     16  C   UNL     1      13.841  -6.875   1.216  0.00  0.00    +0.133 C 
ATOM     17  C   UNL     1      15.228  -6.753   0.558  0.00  0.00    +0.045 C 
ATOM     18  C   UNL     1      16.234  -7.246   1.642  0.00  0.00    +0.190 C 
ATOM     19  S   UNL     1      15.427  -6.556   3.144  0.00  0.00    +0.046 S 
ATOM     20  O   UNL     1      15.918  -5.252   3.426  0.00  0.00    -0.155 OA
ATOM     21  O   UNL     1      15.332  -7.544   4.161  0.00  0.00    -0.155 OA
ENDBRANCH   7  15
BRANCH   1  22
ATOM     22  C   UNL     1       7.434  -2.768  -0.085  0.00  0.00    +0.131 C 
BRANCH  22  26
ATOM     23  C   UNL     1       3.699  -0.689  -0.037  0.00  0.00    -0.018 A 
ATOM     24  C   UNL     1       4.896   0.024  -0.040  0.00  0.00    +0.009 A 
ATOM     25  C   UNL     1       6.099  -0.652  -0.055  0.00  0.00    +0.005 A 
ATOM     26  C   UNL     1       6.118  -2.035  -0.068  0.00  0.00    -0.039 A 
ATOM     27  C   UNL     1       4.932  -2.748  -0.066  0.00  0.00    +0.005 A 
ATOM     28  C   UNL     1       3.724  -2.082  -0.045  0.00  0.00    +0.009 A 
BRANCH  23  32
ATOM     29  C   UNL     1      -0.017   1.379   0.010  0.00  0.00    +0.000 A 
ATOM     30  C   UNL     1       1.169   2.092   0.002  0.00  0.00    +0.001 A 
ATOM     31  C   UNL     1       2.377   1.426  -0.013  0.00  0.00    +0.008 A 
ATOM     32  C   UNL     1       2.402   0.033  -0.021  0.00  0.00    -0.018 A 
ATOM     33  C   UNL     1       1.205  -0.680  -0.013  0.00  0.00    +0.008 A 
ATOM     34  C   UNL     1       0.002  -0.004   0.002  0.00  0.00    +0.001 A 
ENDBRANCH  23  32
ENDBRANCH  22  26
ENDBRANCH   1  22
TORSDOF 4
