REMARK  Name = CHEMBL269827
REMARK  5 active torsions:
REMARK  status: ('A' for Active; 'I' for Inactive)
REMARK    1  A    between atoms: C_3  and  S_24
REMARK    2  A    between atoms: C_6  and  N_7
REMARK    3  A    between atoms: N_7  and  N_8
REMARK    4  A    between atoms: C_12  and  C_19
REMARK    5  A    between atoms: S_24  and  N_27
REMARK                            x       y       z     vdW  Elec       q    Type
REMARK                         _______ _______ _______ _____ _____    ______ ____
ROOT
ATOM      1  N   UNL     1      -1.176  -2.010   0.003  0.00  0.00    -0.177 NA
ATOM      2  C   UNL     1      -2.304  -2.684   0.011  0.00  0.00    +0.152 C 
ATOM      3  C   UNL     1      -2.476  -4.155   0.010  0.00  0.00    +0.029 A 
ATOM      4  C   UNL     1      -1.579  -5.215   0.002  0.00  0.00    +0.023 A 
ATOM      5  C   UNL     1      -2.059  -6.524   0.004  0.00  0.00    +0.020 A 
ATOM      6  C   UNL     1      -3.437  -6.758   0.015  0.00  0.00    +0.013 A 
ATOM      7  C   UNL     1      -4.324  -5.704   0.023  0.00  0.00    +0.024 A 
ATOM      8  C   UNL     1      -3.857  -4.392   0.021  0.00  0.00    +0.043 A 
ATOM      9  N   UNL     1      -4.530  -3.176   0.028  0.00  0.00    -0.280 N 
ATOM     10  C   UNL     1      -3.673  -2.141   0.028  0.00  0.00    +0.269 C 
ATOM     11  O   UNL     1      -3.975  -0.961   0.037  0.00  0.00    -0.268 OA
ATOM     12  H   UNL     1      -5.496  -3.085   0.035  0.00  0.00    +0.155 HD
ENDROOT
BRANCH   5  13
ATOM     13  C   UNL     1      -1.114  -7.661  -0.006  0.00  0.00    +0.155 A 
ATOM     14  C   UNL     1      -1.435  -8.980  -0.011  0.00  0.00    +0.160 A 
ATOM     15  N   UNL     1      -0.287  -9.675  -0.020  0.00  0.00    -0.224 NA
ATOM     16  C   UNL     1       0.712  -8.839  -0.021  0.00  0.00    +0.308 A 
ATOM     17  O   UNL     1       0.235  -7.586  -0.017  0.00  0.00    -0.442 OA
ENDBRANCH   5  13
BRANCH   1  18
ATOM     18  N   UNL     1      -1.196  -0.720   0.010  0.00  0.00    -0.237 N 
ATOM     19  H   UNL     1      -2.043  -0.247   0.021  0.00  0.00    +0.174 HD
BRANCH  18  25
ATOM     20  C   UNL     1      -0.017   1.386   0.010  0.00  0.00    +0.026 A 
ATOM     21  C   UNL     1       1.171   2.091   0.002  0.00  0.00    +0.030 A 
ATOM     22  C   UNL     1       2.377   1.415  -0.013  0.00  0.00    +0.105 A 
ATOM     23  C   UNL     1       2.400   0.033  -0.022  0.00  0.00    +0.030 A 
ATOM     24  C   UNL     1       1.217  -0.679  -0.014  0.00  0.00    +0.026 A 
ATOM     25  C   UNL     1       0.002  -0.004   0.002  0.00  0.00    +0.048 A 
BRANCH  22  26
ATOM     26  S   UNL     1       3.890   2.319  -0.024  0.00  0.00    +0.056 S 
ATOM     27  O   UNL     1       4.872   1.462  -0.589  0.00  0.00    -0.153 OA
ATOM     28  O   UNL     1       3.594   3.599  -0.565  0.00  0.00    -0.153 OA
BRANCH  26  29
ATOM     29  N   UNL     1       4.326   2.562   1.555  0.00  0.00    -0.204 NA
ATOM     30  H   UNL     1       3.767   2.220   2.271  0.00  0.00    +0.144 HD
ATOM     31  H   UNL     1       5.140   3.046   1.765  0.00  0.00    +0.144 HD
ENDBRANCH  26  29
ENDBRANCH  22  26
ENDBRANCH  18  25
ENDBRANCH   1  18
TORSDOF 5
