REMARK  Name = CHEMBL87735
REMARK  7 active torsions:
REMARK  status: ('A' for Active; 'I' for Inactive)
REMARK    1  A    between atoms: C_4  and  O_7
REMARK    2  A    between atoms: O_7  and  C_8
REMARK    3  A    between atoms: C_14  and  N_19
REMARK    4  A    between atoms: C_15  and  O_18
REMARK    5  A    between atoms: N_20  and  C_21
REMARK    6  A    between atoms: C_24  and  S_27
REMARK    7  A    between atoms: S_27  and  N_30
REMARK                            x       y       z     vdW  Elec       q    Type
REMARK                         _______ _______ _______ _____ _____    ______ ____
ROOT
ATOM      1  C   UNL     1       3.561  -1.987   0.062  0.00  0.00    +0.140 A 
ATOM      2  C   UNL     1       2.353  -2.663   0.063  0.00  0.00    +0.047 A 
ATOM      3  C   UNL     1       2.328  -4.045   0.163  0.00  0.00    +0.006 A 
ATOM      4  C   UNL     1       3.500  -4.764   0.262  0.00  0.00    +0.026 A 
ATOM      5  C   UNL     1       4.725  -4.105   0.263  0.00  0.00    +0.055 A 
ATOM      6  C   UNL     1       4.754  -2.706   0.156  0.00  0.00    +0.073 A 
ATOM      7  C   UNL     1       6.178  -2.322   0.178  0.00  0.00    +0.158 A 
ATOM      8  C   UNL     1       6.897  -3.501   0.289  0.00  0.00    +0.219 A 
ATOM      9  N   UNL     1       6.032  -4.550   0.349  0.00  0.00    -0.324 N 
ATOM     10  H   UNL     1       6.296  -5.480   0.428  0.00  0.00    +0.169 HD
ENDROOT
BRANCH   8  11
ATOM     11  O   UNL     1       8.245  -3.594   0.343  0.00  0.00    -0.492 OA
ATOM     12  H   UNL     1       8.607  -3.557   1.239  0.00  0.00    +0.294 HD
ENDBRANCH   8  11
BRANCH   7  13
ATOM     13  N   UNL     1       6.680  -1.072   0.104  0.00  0.00    -0.143 NA
ATOM     14  N   UNL     1       7.956  -0.886   0.136  0.00  0.00    -0.149 NA
BRANCH  14  15
ATOM     15  C   UNL     1       8.465   0.381   0.062  0.00  0.00    +0.086 A 
ATOM     16  C   UNL     1       7.605   1.478  -0.043  0.00  0.00    +0.031 A 
ATOM     17  C   UNL     1       8.125   2.753  -0.118  0.00  0.00    +0.030 A 
ATOM     18  C   UNL     1       9.495   2.947  -0.089  0.00  0.00    +0.105 A 
ATOM     19  C   UNL     1      10.352   1.866   0.014  0.00  0.00    +0.030 A 
ATOM     20  C   UNL     1       9.846   0.586   0.096  0.00  0.00    +0.031 A 
BRANCH  18  21
ATOM     21  S   UNL     1      10.151   4.580  -0.186  0.00  0.00    +0.056 S 
ATOM     22  O   UNL     1      11.474   4.457  -0.689  0.00  0.00    -0.153 OA
ATOM     23  O   UNL     1       9.163   5.377  -0.827  0.00  0.00    -0.153 OA
BRANCH  21  24
ATOM     24  N   UNL     1      10.284   5.147   1.364  0.00  0.00    -0.204 NA
ATOM     25  H   UNL     1      10.017   4.587   2.110  0.00  0.00    +0.144 HD
ATOM     26  H   UNL     1      10.629   6.039   1.526  0.00  0.00    +0.144 HD
ENDBRANCH  21  24
ENDBRANCH  18  21
ENDBRANCH  14  15
ENDBRANCH   7  13
BRANCH   1  27
ATOM     27  O   UNL     1       3.586  -0.632  -0.036  0.00  0.00    -0.455 OA
BRANCH  27  31
ATOM     28  C   UNL     1      -0.012   1.385   0.070  0.00  0.00    +0.000 A 
ATOM     29  C   UNL     1       0.445   0.729   1.198  0.00  0.00    +0.004 A 
ATOM     30  C   UNL     1       1.649   0.053   1.166  0.00  0.00    +0.046 A 
ATOM     31  C   UNL     1       2.400   0.032  -0.001  0.00  0.00    +0.128 A 
ATOM     32  C   UNL     1       1.939   0.691  -1.132  0.00  0.00    +0.046 A 
ATOM     33  C   UNL     1       0.735   1.366  -1.093  0.00  0.00    +0.004 A 
ENDBRANCH  27  31
ENDBRANCH   1  27
TORSDOF 7
