REMARK  Name = CHEMBL455946
REMARK  4 active torsions:
REMARK  status: ('A' for Active; 'I' for Inactive)
REMARK    1  A    between atoms: C_7  and  C_11
REMARK    2  A    between atoms: N_13  and  C_14
REMARK    3  A    between atoms: C_17  and  S_20
REMARK    4  A    between atoms: S_20  and  N_23
REMARK                            x       y       z     vdW  Elec       q    Type
REMARK                         _______ _______ _______ _____ _____    ______ ____
ROOT
ATOM      1  C   UNL     1       0.774  -3.266  -0.021  0.00  0.00    +0.269 C 
ATOM      2  O   UNL     1      -0.434  -3.131   0.000  0.00  0.00    -0.268 OA
ATOM      3  N   UNL     1       1.315  -4.500  -0.036  0.00  0.00    -0.280 N 
ATOM      4  H   UNL     1       2.275  -4.609  -0.121  0.00  0.00    +0.155 HD
ENDROOT
BRANCH   1  11
ATOM      5  C   UNL     1      -0.016   1.363   0.009  0.00  0.00    +0.001 A 
ATOM      6  C   UNL     1       1.171   2.085  -0.008  0.00  0.00    +0.002 A 
ATOM      7  C   UNL     1       2.380   1.447  -0.031  0.00  0.00    +0.028 A 
ATOM      8  C   UNL     1       2.428   0.057  -0.037  0.00  0.00    +0.066 A 
ATOM      9  C   UNL     1       1.223  -0.673  -0.019  0.00  0.00    +0.032 A 
ATOM     10  C   UNL     1       0.003  -0.004   0.004  0.00  0.00    +0.012 A 
ATOM     11  C   UNL     1       1.648  -2.079  -0.032  0.00  0.00    +0.155 A 
ATOM     12  N   UNL     1       2.963  -2.068  -0.055  0.00  0.00    -0.168 NA
ATOM     13  N   UNL     1       3.434  -0.874  -0.058  0.00  0.00    -0.276 N 
ATOM     14  H   UNL     1       4.379  -0.657  -0.074  0.00  0.00    +0.189 HD
ENDBRANCH   1  11
BRANCH   3  15
ATOM     15  C   UNL     1       0.491  -5.626   0.072  0.00  0.00    +0.034 A 
ATOM     16  C   UNL     1       0.932  -6.747   0.762  0.00  0.00    +0.025 A 
ATOM     17  C   UNL     1       0.116  -7.857   0.867  0.00  0.00    +0.030 A 
ATOM     18  C   UNL     1      -1.138  -7.851   0.285  0.00  0.00    +0.105 A 
ATOM     19  C   UNL     1      -1.580  -6.736  -0.403  0.00  0.00    +0.030 A 
ATOM     20  C   UNL     1      -0.771  -5.622  -0.507  0.00  0.00    +0.025 A 
BRANCH  18  21
ATOM     21  S   UNL     1      -2.176  -9.269   0.421  0.00  0.00    +0.056 S 
ATOM     22  O   UNL     1      -3.082  -9.215  -0.673  0.00  0.00    -0.153 OA
ATOM     23  O   UNL     1      -1.319 -10.380   0.646  0.00  0.00    -0.153 OA
BRANCH  21  24
ATOM     24  N   UNL     1      -3.082  -9.083   1.795  0.00  0.00    -0.204 NA
ATOM     25  H   UNL     1      -3.969  -9.471   1.846  0.00  0.00    +0.144 HD
ATOM     26  H   UNL     1      -2.724  -8.588   2.548  0.00  0.00    +0.144 HD
ENDBRANCH  21  24
ENDBRANCH  18  21
ENDBRANCH   3  15
TORSDOF 4
