REMARK  Name = CHEMBL345525
REMARK  6 active torsions:
REMARK  status: ('A' for Active; 'I' for Inactive)
REMARK    1  A    between atoms: C_1  and  N_2
REMARK    2  A    between atoms: N_5  and  N_8
REMARK    3  A    between atoms: N_11  and  C_12
REMARK    4  A    between atoms: C_25  and  C_26
REMARK    5  A    between atoms: C_29  and  O_32
REMARK    6  A    between atoms: O_32  and  C_33
REMARK                            x       y       z     vdW  Elec       q    Type
REMARK                         _______ _______ _______ _____ _____    ______ ____
ROOT
ATOM      1  C   UNL     1      -2.345  -4.552   4.280  0.00  0.00    +0.046 A 
ATOM      2  C   UNL     1      -2.319  -5.943   4.283  0.00  0.00    +0.024 A 
ATOM      3  C   UNL     1      -2.944  -6.647   5.292  0.00  0.00    +0.002 A 
ATOM      4  C   UNL     1      -3.603  -5.980   6.311  0.00  0.00    +0.011 A 
ATOM      5  C   UNL     1      -3.643  -4.592   6.329  0.00  0.00    +0.015 A 
ATOM      6  C   UNL     1      -3.004  -3.866   5.308  0.00  0.00    +0.053 A 
ATOM      7  C   UNL     1      -3.187  -2.423   5.562  0.00  0.00    +0.200 C 
ATOM      8  O   UNL     1      -2.767  -1.513   4.872  0.00  0.00    -0.286 OA
ATOM      9  C   UNL     1      -3.968  -2.283   6.799  0.00  0.00    +0.075 A 
ATOM     10  C   UNL     1      -4.264  -3.636   7.278  0.00  0.00    +0.105 A 
ATOM     11  N   UNL     1      -4.964  -3.515   8.379  0.00  0.00    -0.173 NA
ATOM     12  N   UNL     1      -5.167  -2.160   8.657  0.00  0.00    -0.276 N 
ATOM     13  H   UNL     1      -5.656  -1.811   9.418  0.00  0.00    +0.189 HD
ATOM     14  C   UNL     1      -4.551  -1.406   7.703  0.00  0.00    +0.077 A 
ENDROOT
BRANCH   1  18
ATOM     15  N   UNL     1      -0.157  -3.768   1.524  0.00  0.00    -0.232 N 
ATOM     16  C   UNL     1      -0.693  -4.405   2.583  0.00  0.00    +0.318 C 
ATOM     17  O   UNL     1      -0.256  -5.486   2.928  0.00  0.00    -0.251 OA
ATOM     18  N   UNL     1      -1.714  -3.845   3.260  0.00  0.00    -0.268 N 
ATOM     19  H   UNL     1       0.579  -4.172   1.036  0.00  0.00    +0.171 HD
ATOM     20  H   UNL     1      -2.010  -2.948   3.038  0.00  0.00    +0.156 HD
BRANCH  15  25
ATOM     21  C   UNL     1      -1.281   1.092  -0.871  0.00  0.00    -0.096 C 
ATOM     22  N   UNL     1      -0.715  -0.210  -0.495  0.00  0.00    +0.380 N 
ATOM     23  C   UNL     1      -1.749  -1.246  -0.616  0.00  0.00    -0.062 C 
ATOM     24  C   UNL     1      -1.155  -2.606  -0.242  0.00  0.00    +0.087 C 
ATOM     25  N   UNL     1      -0.648  -2.554   1.136  0.00  0.00    -0.229 NA
ATOM     26  C   UNL     1       0.370  -1.504   1.279  0.00  0.00    +0.087 C 
ATOM     27  C   UNL     1      -0.236  -0.153   0.892  0.00  0.00    -0.062 C 
ATOM     28  H   UNL     1       0.056  -0.431  -1.108  0.00  0.00    -0.082 HD
ENDBRANCH  15  25
ENDBRANCH   1  18
BRANCH  14  29
ATOM     29  C   UNL     1      -4.529   0.067   7.632  0.00  0.00    +0.001 A 
ATOM     30  C   UNL     1      -3.340   0.736   7.326  0.00  0.00    +0.013 A 
ATOM     31  C   UNL     1      -3.324   2.112   7.261  0.00  0.00    +0.046 A 
ATOM     32  C   UNL     1      -4.486   2.835   7.499  0.00  0.00    +0.120 A 
ATOM     33  C   UNL     1      -5.670   2.174   7.804  0.00  0.00    +0.046 A 
ATOM     34  C   UNL     1      -5.697   0.798   7.865  0.00  0.00    +0.013 A 
BRANCH  32  35
ATOM     35  O   UNL     1      -4.465   4.191   7.434  0.00  0.00    -0.495 OA
ATOM     36  C   UNL     1      -5.695   4.872   7.689  0.00  0.00    +0.277 C 
ENDBRANCH  32  35
ENDBRANCH  14  29
TORSDOF 4
