REMARK  Name = CHEMBL336016
REMARK  3 active torsions:
REMARK  status: ('A' for Active; 'I' for Inactive)
REMARK    1  A    between atoms: C_6  and  N_7
REMARK    2  A    between atoms: C_8  and  C_9
REMARK    3  A    between atoms: C_21  and  O_22
REMARK                            x       y       z     vdW  Elec       q    Type
REMARK                         _______ _______ _______ _____ _____    ______ ____
ROOT
ATOM      1  C   UNL     1      -3.348  -1.104   0.830  0.00  0.00    +0.063 A 
ATOM      2  C   UNL     1      -4.531  -0.848   1.674  0.00  0.00    +0.028 A 
ATOM      3  C   UNL     1      -5.473  -1.829   1.326  0.00  0.00    +0.051 A 
ATOM      4  C   UNL     1      -6.710  -1.838   1.971  0.00  0.00    +0.028 A 
ATOM      5  C   UNL     1      -7.022  -0.922   2.924  0.00  0.00    +0.031 A 
ATOM      6  C   UNL     1      -6.101   0.083   3.303  0.00  0.00    +0.079 A 
ATOM      7  C   UNL     1      -4.853   0.084   2.646  0.00  0.00    +0.049 A 
ATOM      8  S   UNL     1      -4.038   1.465   3.405  0.00  0.00    -0.075 S 
ATOM      9  C   UNL     1      -5.274   1.922   4.451  0.00  0.00    +0.157 A 
ATOM     10  N   UNL     1      -6.227   1.068   4.216  0.00  0.00    -0.247 NA
ATOM     11  N   UNL     1      -4.914  -2.627   0.345  0.00  0.00    -0.325 N 
ATOM     12  H   UNL     1      -5.356  -3.383  -0.072  0.00  0.00    +0.169 HD
ATOM     13  C   UNL     1      -3.660  -2.201   0.042  0.00  0.00    +0.200 A 
ENDROOT
BRANCH   1  15
ATOM     14  N   UNL     1      -1.168  -0.713   0.009  0.00  0.00    -0.255 NA
ATOM     15  C   UNL     1      -2.136  -0.370   0.822  0.00  0.00    +0.125 C 
BRANCH  14  21
ATOM     16  C   UNL     1      -0.017   1.393   0.010  0.00  0.00    +0.028 A 
ATOM     17  C   UNL     1       1.170   2.081   0.002  0.00  0.00    +0.007 A 
ATOM     18  C   UNL     1       2.402   1.417  -0.014  0.00  0.00    -0.022 A 
ATOM     19  C   UNL     1       2.428   0.041  -0.021  0.00  0.00    -0.020 A 
ATOM     20  C   UNL     1       1.225  -0.665  -0.014  0.00  0.00    +0.033 A 
ATOM     21  C   UNL     1       0.002  -0.004   0.002  0.00  0.00    +0.064 A 
ATOM     22  C   UNL     1       3.806  -0.622  -0.038  0.00  0.00    +0.201 C 
ATOM     23  S   UNL     1       4.894   0.777  -0.527  0.00  0.00    -0.023 S 
ATOM     24  O   UNL     1       6.045   0.794   0.306  0.00  0.00    -0.174 OA
ATOM     25  O   UNL     1       5.045   0.788  -1.940  0.00  0.00    -0.174 OA
ATOM     26  C   UNL     1       3.756   2.130  -0.022  0.00  0.00    +0.201 C 
ENDBRANCH  14  21
ENDBRANCH   1  15
BRANCH  13  27
ATOM     27  O   UNL     1      -2.843  -2.760  -0.880  0.00  0.00    -0.493 OA
ATOM     28  H   UNL     1      -2.276  -3.461  -0.530  0.00  0.00    +0.294 HD
ENDBRANCH  13  27
TORSDOF 3
