REMARK  Name = CHEMBL14619
REMARK  7 active torsions:
REMARK  status: ('A' for Active; 'I' for Inactive)
REMARK    1  A    between atoms: C_1  and  C_2
REMARK    2  A    between atoms: C_2  and  C_3
REMARK    3  A    between atoms: C_3  and  C_4
REMARK    4  A    between atoms: C_4  and  O_5
REMARK    5  A    between atoms: O_5  and  C_6
REMARK    6  A    between atoms: C_15  and  C_16
REMARK    7  A    between atoms: C_16  and  C_18
REMARK                            x       y       z     vdW  Elec       q    Type
REMARK                         _______ _______ _______ _____ _____    ______ ____
ROOT
ATOM      1  C   UNL     1      -2.785  -3.907   0.011  0.00  0.00    +0.145 A 
ATOM      2  C   UNL     1      -2.878  -4.614  -1.200  0.00  0.00    +0.081 A 
ATOM      3  C   UNL     1      -2.740  -4.247  -2.560  0.00  0.00    +0.148 A 
ATOM      4  N   UNL     1      -2.929  -5.305  -3.293  0.00  0.00    -0.180 NA
ATOM      5  N   UNL     1      -3.196  -6.407  -2.472  0.00  0.00    -0.260 N 
ATOM      6  H   UNL     1      -3.372  -7.311  -2.776  0.00  0.00    +0.191 HD
ATOM      7  C   UNL     1      -3.167  -5.991  -1.171  0.00  0.00    +0.159 A 
ATOM      8  N   UNL     1      -3.351  -6.617  -0.011  0.00  0.00    -0.235 NA
ATOM      9  C   UNL     1      -3.271  -5.991   1.139  0.00  0.00    +0.128 A 
ATOM     10  C   UNL     1      -2.982  -4.621   1.204  0.00  0.00    +0.083 A 
ENDROOT
BRANCH  10  11
ATOM     11  C   UNL     1      -2.891  -3.939   2.506  0.00  0.00    +0.198 C 
ATOM     12  O   UNL     1      -1.910  -4.096   3.207  0.00  0.00    -0.286 OA
BRANCH  11  13
ATOM     13  C   UNL     1      -3.991  -3.063   2.960  0.00  0.00    +0.022 A 
ATOM     14  C   UNL     1      -5.169  -2.973   2.215  0.00  0.00    +0.012 A 
ATOM     15  C   UNL     1      -6.192  -2.154   2.645  0.00  0.00    +0.001 A 
ATOM     16  C   UNL     1      -6.054  -1.422   3.811  0.00  0.00    +0.000 A 
ATOM     17  C   UNL     1      -4.889  -1.506   4.554  0.00  0.00    +0.001 A 
ATOM     18  C   UNL     1      -3.861  -2.326   4.139  0.00  0.00    +0.012 A 
ENDBRANCH  11  13
ENDBRANCH  10  11
BRANCH   1  19
ATOM     19  O   UNL     1      -2.509  -2.582   0.027  0.00  0.00    -0.490 OA
BRANCH  19  20
ATOM     20  C   UNL     1      -1.131  -2.207   0.084  0.00  0.00    +0.229 C 
BRANCH  20  21
ATOM     21  C   UNL     1      -1.017  -0.682   0.094  0.00  0.00    +0.041 C 
BRANCH  21  23
ATOM     22  C   UNL     1       0.571   1.245   0.166  0.00  0.00    +0.004 C 
ATOM     23  C   UNL     1       0.458  -0.280   0.156  0.00  0.00    -0.000 C 
ENDBRANCH  21  23
ENDBRANCH  20  21
ENDBRANCH  19  20
ENDBRANCH   1  19
TORSDOF 6
