REMARK  Name = CHEMBL140272
REMARK  2 active torsions:
REMARK  status: ('A' for Active; 'I' for Inactive)
REMARK    1  A    between atoms: C_4  and  N_7
REMARK    2  A    between atoms: N_16  and  C_19
REMARK                            x       y       z     vdW  Elec       q    Type
REMARK                         _______ _______ _______ _____ _____    ______ ____
ROOT
ATOM      1  N   UNL     1       3.649  -0.692   1.117  0.00  0.00    -0.284 N 
ATOM      2  C   UNL     1       3.666  -2.059   0.920  0.00  0.00    +0.221 A 
ATOM      3  N   UNL     1       2.513  -2.720   0.929  0.00  0.00    -0.222 NA
ATOM      4  C   UNL     1       2.473  -4.028   0.746  0.00  0.00    +0.126 A 
ATOM      5  C   UNL     1       3.678  -4.709   0.540  0.00  0.00    +0.036 A 
ATOM      6  C   UNL     1       3.724  -6.153   0.330  0.00  0.00    +0.018 A 
ATOM      7  C   UNL     1       4.936  -6.737   0.137  0.00  0.00    +0.071 A 
ATOM      8  C   UNL     1       6.109  -5.955   0.143  0.00  0.00    +0.253 A 
ATOM      9  O   UNL     1       7.185  -6.500  -0.032  0.00  0.00    -0.268 OA
ATOM     10  N   UNL     1       6.073  -4.625   0.336  0.00  0.00    -0.290 N 
ATOM     11  C   UNL     1       4.883  -3.973   0.537  0.00  0.00    +0.149 A 
ATOM     12  N   UNL     1       4.829  -2.661   0.724  0.00  0.00    -0.196 NA
ATOM     13  H   UNL     1       4.468  -0.180   1.032  0.00  0.00    +0.155 HD
ENDROOT
BRANCH   1  17
ATOM     14  C   UNL     1       0.081   1.231   2.077  0.00  0.00    +0.000 A 
ATOM     15  C   UNL     1       0.265  -0.095   2.423  0.00  0.00    +0.002 A 
ATOM     16  C   UNL     1       1.447  -0.736   2.106  0.00  0.00    +0.023 A 
ATOM     17  C   UNL     1       2.451  -0.046   1.439  0.00  0.00    +0.034 A 
ATOM     18  C   UNL     1       2.264   1.286   1.093  0.00  0.00    +0.023 A 
ATOM     19  C   UNL     1       1.080   1.920   1.413  0.00  0.00    +0.002 A 
ENDBRANCH   1  17
BRANCH  10  20
ATOM     20  C   UNL     1       7.323  -3.861   0.333  0.00  0.00    +0.092 C 
ATOM     21  C   UNL     1       8.190  -4.262   1.544  0.00  0.00    +0.025 C 
ATOM     22  C   UNL     1       9.159  -5.331   0.980  0.00  0.00    +0.002 C 
ATOM     23  C   UNL     1       9.480  -4.789  -0.435  0.00  0.00    +0.002 C 
ATOM     24  C   UNL     1       8.143  -4.196  -0.925  0.00  0.00    +0.025 C 
ENDBRANCH  10  20
TORSDOF 2
