REMARK  Name = CHEMBL92288
REMARK  12 active torsions:
REMARK  status: ('A' for Active; 'I' for Inactive)
REMARK    1  A    between atoms: C_1  and  C_2
REMARK    2  A    between atoms: C_2  and  C_3
REMARK    3  A    between atoms: C_2  and  N_4
REMARK    4  A    between atoms: C_12  and  N_13
REMARK    5  A    between atoms: N_13  and  C_14
REMARK    6  A    between atoms: C_14  and  C_15
REMARK    7  A    between atoms: C_18  and  C_21
REMARK    8  A    between atoms: N_27  and  C_28
REMARK    9  A    between atoms: C_28  and  C_29
REMARK   10  A    between atoms: C_29  and  C_30
REMARK   11  A    between atoms: C_29  and  O_32
REMARK   12  A    between atoms: C_30  and  O_31
REMARK                            x       y       z     vdW  Elec       q    Type
REMARK                         _______ _______ _______ _____ _____    ______ ____
ROOT
ATOM      1  N   UNL     1      -1.372  -0.511   0.012  0.00  0.00    -0.312 N 
ATOM      2  C   UNL     1      -2.313  -0.275   0.972  0.00  0.00    +0.201 A 
ATOM      3  N   UNL     1      -3.423  -0.878   0.664  0.00  0.00    -0.231 NA
ATOM      4  C   UNL     1      -3.267  -1.538  -0.510  0.00  0.00    +0.148 A 
ATOM      5  C   UNL     1      -1.952  -1.306  -0.944  0.00  0.00    +0.167 A 
ATOM      6  N   UNL     1      -1.542  -1.845  -2.088  0.00  0.00    -0.195 NA
ATOM      7  C   UNL     1      -2.362  -2.589  -2.813  0.00  0.00    +0.219 A 
ATOM      8  N   UNL     1      -3.612  -2.832  -2.442  0.00  0.00    -0.197 NA
ATOM      9  C   UNL     1      -4.101  -2.339  -1.310  0.00  0.00    +0.152 A 
ATOM     10  N   UNL     1      -1.898  -3.134  -3.999  0.00  0.00    -0.311 N 
ATOM     11  H   UNL     1      -0.986  -2.966  -4.286  0.00  0.00    +0.149 HD
ENDROOT
BRANCH   1  13
ATOM     12  C   UNL     1      -0.019   1.526   0.010  0.00  0.00    +0.030 C 
ATOM     13  C   UNL     1       0.002  -0.004   0.002  0.00  0.00    +0.084 C 
ATOM     14  C   UNL     1       0.742  -0.511   1.242  0.00  0.00    +0.030 C 
ENDBRANCH   1  13
BRANCH   9  15
ATOM     15  N   UNL     1      -5.407  -2.596  -0.932  0.00  0.00    -0.323 N 
ATOM     16  H   UNL     1      -5.757  -2.222  -0.108  0.00  0.00    +0.148 HD
BRANCH  15  17
ATOM     17  C   UNL     1      -6.263  -3.433  -1.778  0.00  0.00    +0.138 C 
BRANCH  17  18
ATOM     18  C   UNL     1      -7.626  -3.556  -1.147  0.00  0.00    -0.030 A 
ATOM     19  C   UNL     1      -7.883  -4.584  -0.258  0.00  0.00    +0.006 A 
ATOM     20  C   UNL     1      -9.130  -4.702   0.323  0.00  0.00    +0.009 A 
ATOM     21  C   UNL     1     -10.130  -3.783   0.012  0.00  0.00    -0.018 A 
ATOM     22  C   UNL     1      -9.865  -2.749  -0.884  0.00  0.00    +0.009 A 
ATOM     23  C   UNL     1      -8.613  -2.638  -1.455  0.00  0.00    +0.006 A 
BRANCH  21  24
ATOM     24  C   UNL     1     -11.472  -3.905   0.633  0.00  0.00    -0.018 A 
ATOM     25  C   UNL     1     -11.735  -4.935   1.533  0.00  0.00    +0.008 A 
ATOM     26  C   UNL     1     -12.985  -5.043   2.108  0.00  0.00    +0.001 A 
ATOM     27  C   UNL     1     -13.976  -4.131   1.791  0.00  0.00    +0.000 A 
ATOM     28  C   UNL     1     -13.720  -3.107   0.897  0.00  0.00    +0.001 A 
ATOM     29  C   UNL     1     -12.472  -2.986   0.322  0.00  0.00    +0.008 A 
ENDBRANCH  21  24
ENDBRANCH  17  18
ENDBRANCH  15  17
ENDBRANCH   9  15
BRANCH  10  30
ATOM     30  C   UNL     1      -2.784  -3.962  -4.821  0.00  0.00    +0.138 C 
BRANCH  30  31
ATOM     31  C   UNL     1      -2.031  -4.434  -6.066  0.00  0.00    +0.157 C 
BRANCH  31  32
ATOM     32  O   UNL     1      -0.961  -5.297  -5.677  0.00  0.00    -0.388 OA
ATOM     33  H   UNL     1      -1.246  -6.087  -5.200  0.00  0.00    +0.210 HD
ENDBRANCH  31  32
BRANCH  31  34
ATOM     34  C   UNL     1      -2.990  -5.193  -6.985  0.00  0.00    +0.188 C 
BRANCH  34  35
ATOM     35  O   UNL     1      -2.318  -5.533  -8.199  0.00  0.00    -0.392 OA
ATOM     36  H   UNL     1      -2.868  -6.017  -8.831  0.00  0.00    +0.210 HD
ENDBRANCH  34  35
ENDBRANCH  31  34
ENDBRANCH  30  31
ENDBRANCH  10  30
TORSDOF 10
