REMARK  2 active torsions:
REMARK  status: ('A' for Active; 'I' for Inactive)
REMARK    1  A    between atoms: C22_10  and  C19_16 
REMARK    2  A    between atoms: C12_12  and  C18_15 
ROOT
HETATM    1  C5  B49 A9000      36.749  -8.255 -79.361  1.00 15.43     0.044 A 
HETATM    2  C6  B49 A9000      35.363  -8.333 -79.051  1.00 14.10     0.033 A 
HETATM    3  C7  B49 A9000      36.729  -5.785 -79.092  1.00 15.14     0.057 A 
HETATM    4  C15 B49 A9000      37.416  -6.994 -79.379  1.00 15.55     0.117 A 
HETATM    5  C17 B49 A9000      35.342  -5.867 -78.784  1.00 14.45     0.009 A 
HETATM    6  C20 B49 A9000      34.296  -4.867 -78.442  1.00 13.45     0.047 A 
HETATM    7  C21 B49 A9000      33.015  -5.647 -78.233  1.00 13.66     0.257 A 
HETATM    8  C12 B49 A9000      34.576  -3.546 -78.371  1.00 15.97     0.048 C 
HETATM    9  C16 B49 A9000      34.692  -7.132 -78.770  1.00 12.00     0.046 A 
HETATM   10  N24 B49 A9000      33.345  -6.985 -78.448  1.00 11.43    -0.322 N 
ATOM     11  H24 B49 A9000      32.683  -7.758 -78.378  1.00  0.00     0.169 HD
HETATM   12  O27 B49 A9000      31.923  -5.205 -77.941  1.00 15.23    -0.267 OA
HETATM   13  F29 B49 A9000      38.725  -6.954 -79.672  1.00 17.21    -0.206 F 
ENDROOT
BRANCH   8  14
HETATM   14  C18 B49 A9000      33.764  -2.398 -78.089  1.00 15.83     0.040 A 
HETATM   15  N23 B49 A9000      32.417  -2.467 -77.828  1.00 14.09    -0.359 N 
HETATM   16  C14 B49 A9000      31.884  -1.220 -77.605  1.00 17.03     0.021 A 
ATOM     17  H23 B49 A9000      31.880  -3.334 -77.803  1.00  0.00     0.166 HD
HETATM   18  C4  B49 A9000      30.431  -1.087 -77.311  1.00 17.32     0.069 C 
HETATM   19  C19 B49 A9000      32.910  -0.291 -77.718  1.00 17.94     0.059 A 
HETATM   20  C13 B49 A9000      34.110  -1.046 -78.024  1.00 17.58    -0.018 A 
HETATM   21  C3  B49 A9000      35.480  -0.475 -78.240  1.00 18.30     0.052 C 
BRANCH  19  22
HETATM   22  C22 B49 A9000      32.804   1.174 -77.561  1.00 21.63     0.267 C 
HETATM   23  O28 B49 A9000      31.936   1.823 -78.153  1.00 26.27    -0.271 OA
HETATM   24  N25 B49 A9000      33.733   1.747 -76.710  1.00 24.57    -0.057 NA
ENDBRANCH  19  22
ENDBRANCH   8  14
TORSDOF 2
