REMARK  Name = CHEMBL369506
REMARK  11 active torsions:
REMARK  status: ('A' for Active; 'I' for Inactive)
REMARK    1  A    between atoms: C_1  and  C_2
REMARK    2  A    between atoms: C_2  and  C_3
REMARK    3  A    between atoms: C_2  and  C_4
REMARK    4  A    between atoms: C_4  and  C_5
REMARK    5  A    between atoms: C_7  and  C_35
REMARK    6  A    between atoms: C_8  and  C_12
REMARK    7  A    between atoms: C_10  and  O_11
REMARK    8  A    between atoms: C_15  and  C_18
REMARK    9  A    between atoms: C_18  and  N_19
REMARK   10  A    between atoms: C_22  and  N_25
REMARK   11  A    between atoms: C_33  and  O_34
REMARK                            x       y       z     vdW  Elec       q    Type
REMARK                         _______ _______ _______ _____ _____    ______ ____
ROOT
ATOM      1  C   UNL     1      -1.485  -6.191  -0.920  0.00  0.00    -0.002 A 
ATOM      2  C   UNL     1      -0.387  -6.983  -0.574  0.00  0.00    +0.010 A 
ATOM      3  C   UNL     1      -0.440  -8.348  -0.757  0.00  0.00    +0.002 A 
ATOM      4  C   UNL     1      -1.578  -8.935  -1.284  0.00  0.00    -0.064 A 
ATOM      5  C   UNL     1      -2.669  -8.157  -1.630  0.00  0.00    +0.002 A 
ATOM      6  C   UNL     1      -2.632  -6.791  -1.446  0.00  0.00    +0.010 A 
ENDROOT
BRANCH   1  10
ATOM      7  C   UNL     1      -1.126  -1.993  -0.546  0.00  0.00    +0.066 C 
ATOM      8  N   UNL     1      -1.763  -2.519  -1.535  0.00  0.00    -0.250 NA
ATOM      9  C   UNL     1      -1.800  -3.865  -1.738  0.00  0.00    +0.092 C 
ATOM     10  C   UNL     1      -1.435  -4.730  -0.727  0.00  0.00    +0.063 C 
ATOM     11  N   UNL     1      -1.018  -4.178   0.485  0.00  0.00    -0.312 N 
ATOM     12  C   UNL     1      -0.372  -2.855   0.436  0.00  0.00    +0.246 C 
ATOM     13  H   UNL     1      -1.147  -4.648   1.324  0.00  0.00    +0.149 HD
BRANCH   9  14
ATOM     14  C   UNL     1      -2.233  -4.402  -3.046  0.00  0.00    +0.002 A 
ATOM     15  C   UNL     1      -3.410  -3.941  -3.638  0.00  0.00    +0.010 A 
ATOM     16  C   UNL     1      -3.809  -4.446  -4.859  0.00  0.00    +0.001 A 
ATOM     17  C   UNL     1      -3.044  -5.407  -5.496  0.00  0.00    +0.000 A 
ATOM     18  C   UNL     1      -1.877  -5.869  -4.915  0.00  0.00    +0.001 A 
ATOM     19  C   UNL     1      -1.464  -5.368  -3.697  0.00  0.00    +0.010 A 
ENDBRANCH   9  14
BRANCH  12  20
ATOM     20  O   UNL     1       0.985  -2.993   0.011  0.00  0.00    -0.369 OA
ATOM     21  H   UNL     1       1.528  -3.537   0.598  0.00  0.00    +0.212 HD
ENDBRANCH  12  20
BRANCH   7  22
ATOM     22  C   UNL     1      -1.129  -0.496  -0.371  0.00  0.00    +0.058 C 
BRANCH  22  24
ATOM     23  C   UNL     1      -2.064   1.651  -1.240  0.00  0.00    +0.007 C 
ATOM     24  C   UNL     1      -1.957   0.145  -1.486  0.00  0.00    -0.012 C 
ATOM     25  C   UNL     1      -1.277  -0.104  -2.834  0.00  0.00    +0.007 C 
ENDBRANCH  22  24
ENDBRANCH   7  22
ENDBRANCH   1  10
BRANCH   4  26
ATOM     26  C   UNL     1      -1.628 -10.428  -1.481  0.00  0.00    -0.043 C 
BRANCH  26  27
ATOM     27  N   UNL     1      -2.158 -11.065  -0.268  0.00  0.00    +0.382 N 
ATOM     28  C   UNL     1      -1.227 -10.844   0.845  0.00  0.00    -0.076 C 
ATOM     29  C   UNL     1      -1.812 -11.435   2.129  0.00  0.00    +0.006 C 
ATOM     30  C   UNL     1      -2.033 -12.939   1.938  0.00  0.00    +0.089 C 
ATOM     31  C   UNL     1      -2.946 -13.161   0.729  0.00  0.00    +0.006 C 
ATOM     32  C   UNL     1      -2.319 -12.505  -0.504  0.00  0.00    -0.076 C 
ATOM     33  H   UNL     1      -3.054 -10.660  -0.041  0.00  0.00    -0.081 HD
BRANCH  30  34
ATOM     34  N   UNL     1      -2.663 -13.498   3.136  0.00  0.00    -0.291 N 
ATOM     35  C   UNL     1      -2.143 -14.488   3.952  0.00  0.00    +0.072 A 
ATOM     36  C   UNL     1      -0.971 -15.230   3.937  0.00  0.00    +0.028 A 
ATOM     37  C   UNL     1      -0.741 -16.169   4.920  0.00  0.00    +0.002 A 
ATOM     38  C   UNL     1      -1.674 -16.378   5.925  0.00  0.00    +0.002 A 
ATOM     39  C   UNL     1      -2.843 -15.651   5.955  0.00  0.00    +0.030 A 
ATOM     40  C   UNL     1      -3.091 -14.695   4.967  0.00  0.00    +0.093 A 
ATOM     41  N   UNL     1      -4.122 -13.842   4.730  0.00  0.00    -0.195 NA
ATOM     42  C   UNL     1      -3.869 -13.135   3.660  0.00  0.00    +0.297 A 
BRANCH  42  43
ATOM     43  O   UNL     1      -4.686 -12.186   3.146  0.00  0.00    -0.480 OA
ATOM     44  H   UNL     1      -5.322 -12.523   2.500  0.00  0.00    +0.295 HD
ENDBRANCH  42  43
ENDBRANCH  30  34
ENDBRANCH  26  27
ENDBRANCH   4  26
TORSDOF 9
