REMARK  Name = CHEMBL598842
REMARK  4 active torsions:
REMARK  status: ('A' for Active; 'I' for Inactive)
REMARK    1  A    between atoms: C_6  and  C_7
REMARK    2  A    between atoms: C_7  and  N_8
REMARK    3  A    between atoms: C_9  and  C_11
REMARK    4  A    between atoms: C_11  and  N_28
REMARK                            x       y       z     vdW  Elec       q    Type
REMARK                         _______ _______ _______ _____ _____    ______ ____
ROOT
ATOM      1  C   UNL     1      -3.313  -1.931  -3.026  0.00  0.00    +0.096 C 
ATOM      2  C   UNL     1      -4.204  -0.771  -3.478  0.00  0.00    +0.050 C 
ATOM      3  C   UNL     1      -5.412  -0.665  -2.542  0.00  0.00    +0.109 C 
ATOM      4  N   UNL     1      -6.092  -1.967  -2.500  0.00  0.00    -0.313 N 
ATOM      5  C   UNL     1      -5.307  -3.163  -2.164  0.00  0.00    +0.109 C 
ATOM      6  C   UNL     1      -4.100  -3.241  -3.104  0.00  0.00    +0.050 C 
ATOM      7  C   UNL     1      -7.447  -2.065  -2.770  0.00  0.00    +0.152 A 
ATOM      8  C   UNL     1      -8.175  -0.946  -3.205  0.00  0.00    +0.151 A 
ATOM      9  C   UNL     1      -9.546  -1.106  -3.464  0.00  0.00    +0.166 A 
ATOM     10  N   UNL     1     -10.005   0.126  -3.869  0.00  0.00    -0.289 N 
ATOM     11  H   UNL     1     -10.916   0.345  -4.120  0.00  0.00    +0.172 HD
ATOM     12  C   UNL     1      -8.942   0.984  -3.850  0.00  0.00    +0.348 A 
ATOM     13  O   UNL     1      -8.995   2.294  -4.186  0.00  0.00    -0.245 OA
ATOM     14  N   UNL     1      -7.867   0.351  -3.460  0.00  0.00    -0.187 NA
ATOM     15  N   UNL     1     -10.101  -2.300  -3.288  0.00  0.00    -0.216 NA
ATOM     16  C   UNL     1      -9.380  -3.322  -2.878  0.00  0.00    +0.225 A 
ATOM     17  N   UNL     1      -8.087  -3.221  -2.628  0.00  0.00    -0.218 NA
ENDROOT
BRANCH   1  19
ATOM     18  N   UNL     1      -1.776  -2.328  -1.130  0.00  0.00    -0.310 N 
ATOM     19  C   UNL     1      -2.867  -1.697  -1.606  0.00  0.00    +0.233 C 
ATOM     20  O   UNL     1      -3.490  -0.940  -0.891  0.00  0.00    -0.274 OA
ATOM     21  H   UNL     1      -1.277  -2.933  -1.701  0.00  0.00    +0.149 HD
BRANCH  18  22
ATOM     22  C   UNL     1      -1.342  -2.101   0.251  0.00  0.00    +0.139 C 
BRANCH  22  28
ATOM     23  C   UNL     1       1.145  -2.384   0.293  0.00  0.00    +0.006 A 
ATOM     24  C   UNL     1       2.277  -3.133   0.550  0.00  0.00    +0.020 A 
ATOM     25  C   UNL     1       2.158  -4.420   1.045  0.00  0.00    +0.041 A 
ATOM     26  C   UNL     1       0.904  -4.955   1.282  0.00  0.00    +0.020 A 
ATOM     27  C   UNL     1      -0.228  -4.205   1.025  0.00  0.00    +0.006 A 
ATOM     28  C   UNL     1      -0.107  -2.919   0.531  0.00  0.00    -0.030 A 
ATOM     29 CL   UNL     1       3.579  -5.362   1.367  0.00  0.00    -0.084 Cl
ENDBRANCH  22  28
ENDBRANCH  18  22
ENDBRANCH   1  19
BRANCH   1  30
ATOM     30  N   UNL     1      -2.136  -2.014  -3.901  0.00  0.00    -0.317 NA
ATOM     31  H   UNL     1      -1.599  -1.160  -3.867  0.00  0.00    +0.119 HD
ATOM     32  H   UNL     1      -1.565  -2.810  -3.664  0.00  0.00    +0.119 HD
ENDBRANCH   1  30
TORSDOF 4
