REMARK  Name = CHEMBL1096634
REMARK  13 active torsions:
REMARK  status: ('A' for Active; 'I' for Inactive)
REMARK    1  A    between atoms: C_1  and  C_2
REMARK    2  A    between atoms: C_2  and  N_3
REMARK    3  A    between atoms: C_6  and  O_24
REMARK    4  A    between atoms: C_8  and  C_18
REMARK    5  A    between atoms: C_11  and  C_12
REMARK    6  A    between atoms: C_19  and  C_20
REMARK    7  A    between atoms: C_20  and  C_21
REMARK    8  A    between atoms: C_20  and  C_22
REMARK    9  A    between atoms: C_20  and  O_23
REMARK   10  A    between atoms: O_24  and  C_25
REMARK   11  A    between atoms: C_25  and  C_26
REMARK   12  A    between atoms: C_26  and  C_28
REMARK   13  A    between atoms: C_26  and  N_34
REMARK                            x       y       z     vdW  Elec       q    Type
REMARK                         _______ _______ _______ _____ _____    ______ ____
ROOT
ATOM      1  N   UNL     1      -1.372  -0.511   0.012  0.00  0.00    -0.322 N 
ATOM      2  C   UNL     1      -2.131  -0.795   1.124  0.00  0.00    +0.077 A 
ATOM      3  C   UNL     1      -1.927  -0.724   2.496  0.00  0.00    +0.095 A 
ATOM      4  C   UNL     1      -2.951  -1.105   3.349  0.00  0.00    +0.218 A 
ATOM      5  N   UNL     1      -4.113  -1.532   2.882  0.00  0.00    -0.202 NA
ATOM      6  C   UNL     1      -4.363  -1.620   1.581  0.00  0.00    +0.145 A 
ATOM      7  C   UNL     1      -3.376  -1.252   0.646  0.00  0.00    +0.124 A 
ATOM      8  N   UNL     1      -3.321  -1.227  -0.697  0.00  0.00    -0.223 NA
ATOM      9  C   UNL     1      -2.148  -0.787  -1.085  0.00  0.00    +0.167 A 
ENDROOT
BRANCH   9  10
ATOM     10  C   UNL     1      -1.724  -0.617  -2.491  0.00  0.00    +0.190 A 
ATOM     11  C   UNL     1      -2.543  -0.901  -3.677  0.00  0.00    +0.191 A 
ATOM     12  N   UNL     1      -1.834  -0.631  -4.738  0.00  0.00    -0.033 NA
ATOM     13  O   UNL     1      -0.564  -0.173  -4.311  0.00  0.00    -0.240 OA
ATOM     14  N   UNL     1      -0.558  -0.181  -2.894  0.00  0.00    -0.044 NA
ATOM     15  N   UNL     1      -3.847  -1.377  -3.670  0.00  0.00    -0.339 N 
ATOM     16  H   UNL     1      -4.296  -1.550  -2.827  0.00  0.00    +0.144 HD
ATOM     17  H   UNL     1      -4.310  -1.536  -4.507  0.00  0.00    +0.144 HD
ENDBRANCH   9  10
BRANCH   1  19
ATOM     18  C   UNL     1      -0.019   1.526   0.010  0.00  0.00    +0.027 C 
ATOM     19  C   UNL     1       0.002  -0.004   0.002  0.00  0.00    +0.120 C 
ENDBRANCH   1  19
BRANCH   6  20
ATOM     20  C   UNL     1      -5.638  -2.089   1.128  0.00  0.00    -0.041 C 
ATOM     21  C   UNL     1      -6.683  -2.474   0.756  0.00  0.00    -0.061 C 
BRANCH  21  22
ATOM     22  C   UNL     1      -7.993  -2.956   0.290  0.00  0.00    +0.121 C 
ATOM     23  C   UNL     1      -8.020  -2.961  -1.239  0.00  0.00    +0.055 C 
ATOM     24  C   UNL     1      -8.228  -4.376   0.809  0.00  0.00    +0.055 C 
BRANCH  22  25
ATOM     25  O   UNL     1      -9.021  -2.093   0.782  0.00  0.00    -0.377 OA
ATOM     26  H   UNL     1      -9.062  -2.041   1.747  0.00  0.00    +0.211 HD
ENDBRANCH  22  25
ENDBRANCH  21  22
ENDBRANCH   6  20
BRANCH   4  27
ATOM     27  O   UNL     1      -2.757  -1.038   4.691  0.00  0.00    -0.474 OA
BRANCH  27  28
ATOM     28  C   UNL     1      -3.846  -1.442   5.524  0.00  0.00    +0.254 C 
BRANCH  28  29
ATOM     29  C   UNL     1      -3.444  -1.299   6.994  0.00  0.00    +0.119 C 
BRANCH  29  30
ATOM     30  C   UNL     1      -4.630  -1.608   7.871  0.00  0.00    -0.027 A 
ATOM     31  C   UNL     1      -4.973  -2.921   8.134  0.00  0.00    +0.005 A 
ATOM     32  C   UNL     1      -6.061  -3.204   8.938  0.00  0.00    +0.000 A 
ATOM     33  C   UNL     1      -6.806  -2.173   9.481  0.00  0.00    +0.000 A 
ATOM     34  C   UNL     1      -6.462  -0.860   9.219  0.00  0.00    +0.000 A 
ATOM     35  C   UNL     1      -5.372  -0.577   8.418  0.00  0.00    +0.005 A 
ENDBRANCH  29  30
BRANCH  29  36
ATOM     36  N   UNL     1      -2.354  -2.236   7.297  0.00  0.00    -0.321 NA
ATOM     37  H   UNL     1      -2.640  -3.190   7.131  0.00  0.00    +0.119 HD
ATOM     38  H   UNL     1      -1.525  -2.010   6.768  0.00  0.00    +0.119 HD
ENDBRANCH  29  36
ENDBRANCH  28  29
ENDBRANCH  27  28
ENDBRANCH   4  27
TORSDOF 10
