REMARK  Name = CHEMBL593375
REMARK  10 active torsions:
REMARK  status: ('A' for Active; 'I' for Inactive)
REMARK    1  A    between atoms: C_1  and  C_2
REMARK    2  A    between atoms: C_5  and  C_12
REMARK    3  A    between atoms: C_14  and  O_25
REMARK    4  A    between atoms: C_17  and  C_18
REMARK    5  A    between atoms: C_22  and  C_23
REMARK    6  A    between atoms: O_25  and  C_26
REMARK    7  A    between atoms: C_26  and  C_27
REMARK    8  A    between atoms: C_27  and  C_29
REMARK    9  A    between atoms: C_27  and  N_40
REMARK   10  A    between atoms: C_29  and  C_30
REMARK                            x       y       z     vdW  Elec       q    Type
REMARK                         _______ _______ _______ _____ _____    ______ ____
ROOT
ATOM      1  C   UNL     1      -0.098  -1.669  -4.915  0.00  0.00    +0.013 A 
ATOM      2  C   UNL     1      -1.095  -0.897  -5.520  0.00  0.00    +0.059 A 
ATOM      3  C   UNL     1      -0.966  -0.589  -6.864  0.00  0.00    +0.160 A 
ATOM      4  C   UNL     1       0.146  -1.054  -7.570  0.00  0.00    +0.159 A 
ATOM      5  N   UNL     1       1.074  -1.782  -6.973  0.00  0.00    -0.228 NA
ATOM      6  C   UNL     1       0.993  -2.095  -5.686  0.00  0.00    +0.084 A 
ATOM      7  N   UNL     1       0.279  -0.747  -8.921  0.00  0.00    -0.340 N 
ATOM      8  H   UNL     1      -0.398  -0.213  -9.366  0.00  0.00    +0.144 HD
ATOM      9  H   UNL     1       1.049  -1.066  -9.418  0.00  0.00    +0.144 HD
ENDROOT
BRANCH   1  14
ATOM     10  C   UNL     1      -0.626   0.789   0.257  0.00  0.00    +0.068 C 
ATOM     11  C   UNL     1      -0.536  -0.706   0.089  0.00  0.00    +0.069 A 
ATOM     12  C   UNL     1      -0.400  -1.424  -1.174  0.00  0.00    +0.042 A 
ATOM     13  C   UNL     1      -0.317  -1.031  -2.514  0.00  0.00    +0.023 A 
ATOM     14  C   UNL     1      -0.190  -2.025  -3.479  0.00  0.00    +0.003 A 
ATOM     15  C   UNL     1      -0.151  -3.366  -3.079  0.00  0.00    +0.121 A 
ATOM     16  N   UNL     1      -0.232  -3.704  -1.812  0.00  0.00    -0.235 NA
ATOM     17  C   UNL     1      -0.353  -2.795  -0.851  0.00  0.00    +0.156 A 
ATOM     18  N   UNL     1      -0.455  -2.878   0.511  0.00  0.00    -0.260 N 
ATOM     19  H   UNL     1      -0.451  -3.700   1.026  0.00  0.00    +0.191 HD
ATOM     20  N   UNL     1      -0.559  -1.590   1.045  0.00  0.00    -0.177 NA
ENDBRANCH   1  14
BRANCH   6  21
ATOM     21  C   UNL     1       2.062  -2.908  -5.059  0.00  0.00    +0.042 A 
ATOM     22  C   UNL     1       2.756  -2.635  -3.795  0.00  0.00    +0.051 A 
ATOM     23  C   UNL     1       3.637  -3.637  -3.632  0.00  0.00    +0.196 A 
ATOM     24  O   UNL     1       3.537  -4.480  -4.671  0.00  0.00    -0.467 OA
ATOM     25  C   UNL     1       2.598  -4.064  -5.532  0.00  0.00    +0.111 A 
ATOM     26  C   UNL     1       2.205  -4.760  -6.810  0.00  0.00    +0.087 C 
ENDBRANCH   6  21
BRANCH   3  27
ATOM     27  O   UNL     1      -1.914   0.159  -7.491  0.00  0.00    -0.490 OA
BRANCH  27  28
ATOM     28  C   UNL     1      -3.022   0.597  -6.702  0.00  0.00    +0.213 C 
BRANCH  28  29
ATOM     29  C   UNL     1      -3.975   1.417  -7.572  0.00  0.00    -0.033 C 
BRANCH  29  30
ATOM     30  N   UNL     1      -4.555   0.556  -8.611  0.00  0.00    +0.382 N 
ATOM     31  H   UNL     1      -5.063  -0.200  -8.176  0.00  0.00    -0.089 HD
ATOM     32  H   UNL     1      -5.184   1.097  -9.185  0.00  0.00    -0.089 HD
ATOM     33  H   UNL     1      -3.817   0.178  -9.185  0.00  0.00    -0.089 HD
ENDBRANCH  29  30
BRANCH  29  34
ATOM     34  C   UNL     1      -5.096   1.990  -6.701  0.00  0.00    +0.024 C 
BRANCH  34  35
ATOM     35  C   UNL     1      -5.965   2.898  -7.533  0.00  0.00    -0.024 A 
ATOM     36  C   UNL     1      -5.849   4.230  -7.646  0.00  0.00    +0.087 A 
ATOM     37  N   UNL     1      -6.813   4.712  -8.489  0.00  0.00    -0.360 N 
ATOM     38  H   UNL     1      -6.930   5.646  -8.726  0.00  0.00    +0.165 HD
ATOM     39  C   UNL     1      -7.593   3.675  -8.949  0.00  0.00    +0.047 A 
ATOM     40  C   UNL     1      -7.092   2.493  -8.376  0.00  0.00    +0.003 A 
ATOM     41  C   UNL     1      -7.690   1.267  -8.672  0.00  0.00    +0.010 A 
ATOM     42  C   UNL     1      -8.760   1.222  -9.522  0.00  0.00    +0.001 A 
ATOM     43  C   UNL     1      -9.256   2.385 -10.093  0.00  0.00    +0.002 A 
ATOM     44  C   UNL     1      -8.686   3.607  -9.807  0.00  0.00    +0.026 A 
ENDBRANCH  34  35
ENDBRANCH  29  34
ENDBRANCH  28  29
ENDBRANCH  27  28
ENDBRANCH   3  27
TORSDOF 8
