REMARK  Name = CHEMBL258844
REMARK  5 active torsions:
REMARK  status: ('A' for Active; 'I' for Inactive)
REMARK    1  A    between atoms: C_4  and  C_7
REMARK    2  A    between atoms: C_8  and  C_21
REMARK    3  A    between atoms: C_24  and  C_27
REMARK    4  A    between atoms: C_27  and  N_28
REMARK    5  A    between atoms: C_31  and  N_34
REMARK                            x       y       z     vdW  Elec       q    Type
REMARK                         _______ _______ _______ _____ _____    ______ ____
ROOT
ATOM      1  C   UNL     1       2.741  -2.394   1.590  0.00  0.00    +0.002 A 
ATOM      2  C   UNL     1       1.805  -1.501   2.111  0.00  0.00    +0.010 A 
ATOM      3  C   UNL     1       0.759  -1.972   2.878  0.00  0.00    +0.002 A 
ATOM      4  C   UNL     1       0.638  -3.326   3.131  0.00  0.00    -0.064 A 
ATOM      5  C   UNL     1       1.563  -4.217   2.617  0.00  0.00    +0.002 A 
ATOM      6  C   UNL     1       2.610  -3.759   1.844  0.00  0.00    +0.010 A 
ENDROOT
BRANCH   1   8
ATOM      7  C   UNL     1       3.617  -0.902  -0.277  0.00  0.00    +0.098 A 
ATOM      8  C   UNL     1       3.866  -1.895   0.765  0.00  0.00    +0.098 A 
ATOM      9  N   UNL     1       5.086  -2.351   0.975  0.00  0.00    -0.243 NA
ATOM     10  C   UNL     1       6.102  -1.900   0.229  0.00  0.00    +0.092 A 
ATOM     11  C   UNL     1       7.406  -2.368   0.432  0.00  0.00    +0.059 A 
ATOM     12  C   UNL     1       8.440  -1.885  -0.355  0.00  0.00    +0.091 A 
ATOM     13  C   UNL     1       8.193  -0.923  -1.362  0.00  0.00    +0.068 A 
ATOM     14  C   UNL     1       6.925  -0.440  -1.591  0.00  0.00    +0.057 A 
ATOM     15  C   UNL     1       5.853  -0.904  -0.816  0.00  0.00    +0.092 A 
ATOM     16  N   UNL     1       4.610  -0.454  -1.022  0.00  0.00    -0.243 NA
ATOM     17  N   UNL     1       9.422  -0.664  -1.947  0.00  0.00    -0.344 N 
ATOM     18  H   UNL     1       9.595  -0.046  -2.674  0.00  0.00    +0.167 HD
ATOM     19  C   UNL     1      10.344  -1.438  -1.311  0.00  0.00    +0.197 A 
ATOM     20  N   UNL     1       9.775  -2.150  -0.384  0.00  0.00    -0.236 NA
BRANCH   7  24
ATOM     21  C   UNL     1      -0.328   0.540  -0.922  0.00  0.00    +0.000 A 
ATOM     22  C   UNL     1       0.732   1.428  -0.881  0.00  0.00    +0.001 A 
ATOM     23  C   UNL     1       2.015   0.966  -0.672  0.00  0.00    +0.010 A 
ATOM     24  C   UNL     1       2.242  -0.400  -0.501  0.00  0.00    +0.002 A 
ATOM     25  C   UNL     1       1.169  -1.290  -0.544  0.00  0.00    +0.010 A 
ATOM     26  C   UNL     1      -0.109  -0.816  -0.754  0.00  0.00    +0.001 A 
ENDBRANCH   7  24
ENDBRANCH   1   8
BRANCH   4  27
ATOM     27  C   UNL     1      -0.506  -3.833   3.971  0.00  0.00    -0.043 C 
BRANCH  27  28
ATOM     28  N   UNL     1      -1.651  -4.142   3.103  0.00  0.00    +0.382 N 
ATOM     29  C   UNL     1      -2.135  -2.906   2.477  0.00  0.00    -0.076 C 
ATOM     30  C   UNL     1      -3.276  -3.233   1.510  0.00  0.00    +0.006 C 
ATOM     31  C   UNL     1      -4.418  -3.897   2.283  0.00  0.00    +0.089 C 
ATOM     32  C   UNL     1      -3.884  -5.145   2.993  0.00  0.00    +0.006 C 
ATOM     33  C   UNL     1      -2.721  -4.747   3.905  0.00  0.00    -0.076 C 
ATOM     34  H   UNL     1      -1.362  -4.790   2.385  0.00  0.00    -0.081 HD
BRANCH  31  35
ATOM     35  N   UNL     1      -5.481  -4.282   1.352  0.00  0.00    -0.289 N 
ATOM     36  C   UNL     1      -6.797  -3.826   1.384  0.00  0.00    +0.070 A 
ATOM     37  C   UNL     1      -7.481  -2.950   2.213  0.00  0.00    +0.028 A 
ATOM     38  C   UNL     1      -8.819  -2.691   1.986  0.00  0.00    +0.002 A 
ATOM     39  C   UNL     1      -9.479  -3.302   0.934  0.00  0.00    +0.002 A 
ATOM     40  C   UNL     1      -8.807  -4.176   0.103  0.00  0.00    +0.028 A 
ATOM     41  C   UNL     1      -7.464  -4.442   0.322  0.00  0.00    +0.067 A 
ATOM     42  N   UNL     1      -6.532  -5.253  -0.322  0.00  0.00    -0.306 N 
ATOM     43  H   UNL     1      -6.703  -5.807  -1.099  0.00  0.00    +0.170 HD
ATOM     44  C   UNL     1      -5.352  -5.131   0.315  0.00  0.00    +0.328 A 
ATOM     45  O   UNL     1      -4.325  -5.704   0.003  0.00  0.00    -0.247 OA
ENDBRANCH  31  35
ENDBRANCH  27  28
ENDBRANCH   4  27
TORSDOF 5
