REMARK  Name = CHEMBL226712
REMARK  4 active torsions:
REMARK  status: ('A' for Active; 'I' for Inactive)
REMARK    1  A    between atoms: C_3  and  C_17
REMARK    2  A    between atoms: C_6  and  C_7
REMARK    3  A    between atoms: C_17  and  C_18
REMARK    4  A    between atoms: C_17  and  N_25
REMARK                            x       y       z     vdW  Elec       q    Type
REMARK                         _______ _______ _______ _____ _____    ______ ____
ROOT
ATOM      1  C   UNL     1      -0.017   1.390   0.010  0.00  0.00    +0.010 A 
ATOM      2  C   UNL     1       1.170   2.094   0.002  0.00  0.00    +0.003 A 
ATOM      3  C   UNL     1       2.377   1.418  -0.013  0.00  0.00    -0.058 A 
ATOM      4  C   UNL     1       2.403   0.035  -0.022  0.00  0.00    +0.003 A 
ATOM      5  C   UNL     1       1.222  -0.679  -0.014  0.00  0.00    +0.010 A 
ATOM      6  C   UNL     1       0.002  -0.004   0.002  0.00  0.00    +0.003 A 
ENDROOT
BRANCH   6   7
ATOM      7  C   UNL     1      -1.270  -0.765   0.011  0.00  0.00    +0.100 A 
ATOM      8  C   UNL     1      -1.383  -1.975  -0.679  0.00  0.00    +0.111 A 
ATOM      9  C   UNL     1      -2.612  -2.660  -0.639  0.00  0.00    +0.181 A 
ATOM     10  N   UNL     1      -2.458  -3.779  -1.373  0.00  0.00    -0.216 NA
ATOM     11  H   UNL     1       0.380  -2.544  -1.672  0.00  0.00    +0.167 HD
ATOM     12  C   UNL     1      -1.246  -3.829  -1.850  0.00  0.00    +0.199 A 
ATOM     13  N   UNL     1      -0.543  -2.744  -1.452  0.00  0.00    -0.341 N 
ATOM     14  N   UNL     1      -3.620  -2.127   0.054  0.00  0.00    -0.215 NA
ATOM     15  C   UNL     1      -3.466  -0.984   0.688  0.00  0.00    +0.224 A 
ATOM     16  N   UNL     1      -2.330  -0.315   0.680  0.00  0.00    -0.233 NA
ENDBRANCH   6   7
BRANCH   3  17
ATOM     17  C   UNL     1       3.671   2.192  -0.022  0.00  0.00    -0.013 C 
BRANCH  17  18
ATOM     18  C   UNL     1       4.242   2.231   1.372  0.00  0.00    -0.058 A 
ATOM     19  C   UNL     1       4.942   1.145   1.862  0.00  0.00    +0.004 A 
ATOM     20  C   UNL     1       5.467   1.179   3.140  0.00  0.00    +0.020 A 
ATOM     21  C   UNL     1       5.291   2.302   3.929  0.00  0.00    +0.041 A 
ATOM     22  C   UNL     1       4.590   3.390   3.438  0.00  0.00    +0.020 A 
ATOM     23  C   UNL     1       4.071   3.356   2.158  0.00  0.00    +0.004 A 
ATOM     24 CL   UNL     1       5.949   2.347   5.535  0.00  0.00    -0.084 Cl
ENDBRANCH  17  18
BRANCH  17  25
ATOM     25  N   UNL     1       4.627   1.538  -0.925  0.00  0.00    +0.385 N 
ATOM     26  H   UNL     1       4.801   0.597  -0.607  0.00  0.00    -0.089 HD
ATOM     27  H   UNL     1       4.244   1.512  -1.859  0.00  0.00    -0.089 HD
ATOM     28  H   UNL     1       5.492   2.057  -0.931  0.00  0.00    -0.089 HD
ENDBRANCH  17  25
ENDBRANCH   3  17
TORSDOF 4
