REMARK  Name = CHEMBL1098938
REMARK  14 active torsions:
REMARK  status: ('A' for Active; 'I' for Inactive)
REMARK    1  A    between atoms: C_1  and  C_2
REMARK    2  A    between atoms: C_2  and  N_3
REMARK    3  A    between atoms: C_6  and  O_24
REMARK    4  A    between atoms: C_8  and  C_18
REMARK    5  A    between atoms: C_11  and  C_12
REMARK    6  A    between atoms: C_19  and  C_20
REMARK    7  A    between atoms: C_20  and  C_21
REMARK    8  A    between atoms: C_20  and  C_22
REMARK    9  A    between atoms: C_20  and  O_23
REMARK   10  A    between atoms: O_24  and  C_25
REMARK   11  A    between atoms: C_25  and  C_26
REMARK   12  A    between atoms: C_26  and  C_28
REMARK   13  A    between atoms: C_26  and  N_35
REMARK   14  A    between atoms: C_28  and  C_29
REMARK                            x       y       z     vdW  Elec       q    Type
REMARK                         _______ _______ _______ _____ _____    ______ ____
ROOT
ATOM      1  N   UNL     1       0.711  -0.489   1.189  0.00  0.00    -0.322 N 
ATOM      2  C   UNL     1       2.059  -0.739   1.291  0.00  0.00    +0.077 A 
ATOM      3  C   UNL     1       3.143  -0.644   0.428  0.00  0.00    +0.095 A 
ATOM      4  C   UNL     1       4.404  -0.991   0.889  0.00  0.00    +0.218 A 
ATOM      5  N   UNL     1       4.590  -1.410   2.132  0.00  0.00    -0.202 NA
ATOM      6  C   UNL     1       3.591  -1.520   2.998  0.00  0.00    +0.145 A 
ATOM      7  C   UNL     1       2.279  -1.187   2.610  0.00  0.00    +0.124 A 
ATOM      8  N   UNL     1       1.088  -1.189   3.233  0.00  0.00    -0.223 NA
ATOM      9  C   UNL     1       0.155  -0.775   2.410  0.00  0.00    +0.167 A 
ENDROOT
BRANCH   9  10
ATOM     10  C   UNL     1      -1.278  -0.640   2.746  0.00  0.00    +0.190 A 
ATOM     11  C   UNL     1      -1.889  -0.935   4.048  0.00  0.00    +0.191 A 
ATOM     12  N   UNL     1      -3.169  -0.697   3.965  0.00  0.00    -0.033 NA
ATOM     13  O   UNL     1      -3.445  -0.250   2.649  0.00  0.00    -0.240 OA
ATOM     14  N   UNL     1      -2.221  -0.231   1.936  0.00  0.00    -0.044 NA
ATOM     15  N   UNL     1      -1.219  -1.390   5.176  0.00  0.00    -0.339 N 
ATOM     16  H   UNL     1      -0.261  -1.539   5.144  0.00  0.00    +0.144 HD
ATOM     17  H   UNL     1      -1.709  -1.558   5.997  0.00  0.00    +0.144 HD
ENDBRANCH   9  10
BRANCH   1  19
ATOM     18  C   UNL     1      -0.019   1.526   0.010  0.00  0.00    +0.027 C 
ATOM     19  C   UNL     1       0.002  -0.004   0.002  0.00  0.00    +0.120 C 
ENDBRANCH   1  19
BRANCH   6  20
ATOM     20  C   UNL     1       3.848  -1.978   4.331  0.00  0.00    -0.041 C 
ATOM     21  C   UNL     1       4.058  -2.354   5.423  0.00  0.00    -0.061 C 
BRANCH  21  22
ATOM     22  C   UNL     1       4.321  -2.825   6.792  0.00  0.00    +0.121 C 
ATOM     23  C   UNL     1       3.010  -2.860   7.581  0.00  0.00    +0.055 C 
ATOM     24  C   UNL     1       4.923  -4.230   6.741  0.00  0.00    +0.055 C 
BRANCH  22  25
ATOM     25  O   UNL     1       5.239  -1.936   7.433  0.00  0.00    -0.377 OA
ATOM     26  H   UNL     1       4.922  -1.025   7.501  0.00  0.00    +0.211 HD
ENDBRANCH  22  25
ENDBRANCH  21  22
ENDBRANCH   6  20
BRANCH   4  27
ATOM     27  O   UNL     1       5.467  -0.901   0.051  0.00  0.00    -0.478 OA
BRANCH  27  28
ATOM     28  C   UNL     1       6.742  -1.271   0.579  0.00  0.00    +0.215 C 
BRANCH  28  29
ATOM     29  C   UNL     1       7.810  -1.105  -0.504  0.00  0.00    -0.033 C 
BRANCH  29  30
ATOM     30  N   UNL     1       7.551  -2.053  -1.597  0.00  0.00    +0.382 N 
ATOM     31  H   UNL     1       7.580  -2.996  -1.238  0.00  0.00    -0.089 HD
ATOM     32  H   UNL     1       6.641  -1.871  -1.991  0.00  0.00    -0.089 HD
ATOM     33  H   UNL     1       8.256  -1.944  -2.311  0.00  0.00    -0.089 HD
ENDBRANCH  29  30
BRANCH  29  34
ATOM     34  C   UNL     1       9.191  -1.382   0.094  0.00  0.00    +0.022 C 
BRANCH  34  35
ATOM     35  C   UNL     1      10.252  -1.099  -0.938  0.00  0.00    -0.049 A 
ATOM     36  C   UNL     1      10.670  -2.103  -1.792  0.00  0.00    +0.003 A 
ATOM     37  C   UNL     1      11.643  -1.845  -2.739  0.00  0.00    +0.000 A 
ATOM     38  C   UNL     1      12.197  -0.582  -2.833  0.00  0.00    +0.000 A 
ATOM     39  C   UNL     1      11.778   0.422  -1.980  0.00  0.00    +0.000 A 
ATOM     40  C   UNL     1      10.802   0.165  -1.036  0.00  0.00    +0.003 A 
ENDBRANCH  34  35
ENDBRANCH  29  34
ENDBRANCH  28  29
ENDBRANCH  27  28
ENDBRANCH   4  27
TORSDOF 11
