REMARK  Name = CHEMBL590957
REMARK  3 active torsions:
REMARK  status: ('A' for Active; 'I' for Inactive)
REMARK    1  A    between atoms: C_3  and  C_9
REMARK    2  A    between atoms: C_9  and  C_10
REMARK    3  A    between atoms: C_10  and  N_28
REMARK                            x       y       z     vdW  Elec       q    Type
REMARK                         _______ _______ _______ _____ _____    ______ ____
ROOT
ATOM      1  C   UNL     1       4.163   2.222   1.425  0.00  0.00    -0.064 C 
ATOM      2  C   UNL     1       3.124   2.955   2.277  0.00  0.00    +0.006 C 
ATOM      3  C   UNL     1       2.934   4.375   1.735  0.00  0.00    +0.105 C 
ATOM      4  N   UNL     1       4.244   5.038   1.677  0.00  0.00    -0.314 N 
ATOM      5  C   UNL     1       5.341   4.375   0.959  0.00  0.00    +0.105 C 
ATOM      6  C   UNL     1       5.504   2.955   1.510  0.00  0.00    +0.006 C 
ATOM      7  C   UNL     1       4.442   6.268   2.289  0.00  0.00    +0.150 A 
ATOM      8  C   UNL     1       4.215   7.455   1.593  0.00  0.00    +0.126 A 
ATOM      9  C   UNL     1       4.428   8.666   2.252  0.00  0.00    +0.163 A 
ATOM     10  N   UNL     1       4.135   9.671   1.348  0.00  0.00    -0.291 N 
ATOM     11  H   UNL     1       4.190  10.623   1.523  0.00  0.00    +0.172 HD
ATOM     12  C   UNL     1       3.758   9.106   0.185  0.00  0.00    +0.326 A 
ATOM     13  O   UNL     1       3.433   9.714  -0.818  0.00  0.00    -0.247 OA
ATOM     14  N   UNL     1       3.797   7.764   0.302  0.00  0.00    -0.302 N 
ATOM     15  H   UNL     1       3.573   7.125  -0.393  0.00  0.00    +0.171 HD
ATOM     16  N   UNL     1       4.838   8.649   3.516  0.00  0.00    -0.216 NA
ATOM     17  C   UNL     1       5.041   7.506   4.140  0.00  0.00    +0.225 A 
ATOM     18  N   UNL     1       4.846   6.340   3.556  0.00  0.00    -0.219 NA
ENDROOT
BRANCH   1  19
ATOM     19  N   UNL     1       4.323   0.850   1.922  0.00  0.00    +0.382 N 
ATOM     20  H   UNL     1       5.007   0.366   1.360  0.00  0.00    -0.089 HD
ATOM     21  H   UNL     1       4.632   0.873   2.882  0.00  0.00    -0.089 HD
ATOM     22  H   UNL     1       3.439   0.366   1.866  0.00  0.00    -0.089 HD
ENDBRANCH   1  19
BRANCH   1  23
ATOM     23  C   UNL     1       3.694   2.186  -0.031  0.00  0.00    +0.024 C 
BRANCH  23  26
ATOM     24  C   UNL     1      -0.015   1.523  -0.281  0.00  0.00    +0.020 A 
ATOM     25  C   UNL     1       1.197   2.184  -0.202  0.00  0.00    +0.006 A 
ATOM     26  C   UNL     1       2.373   1.464  -0.115  0.00  0.00    -0.030 A 
ATOM     27  C   UNL     1       2.339   0.081  -0.106  0.00  0.00    +0.045 A 
ATOM     28  C   UNL     1       1.127  -0.581  -0.184  0.00  0.00    +0.040 A 
ATOM     29  C   UNL     1      -0.050   0.140  -0.271  0.00  0.00    +0.042 A 
ATOM     30 CL   UNL     1      -1.572  -0.690  -0.369  0.00  0.00    -0.083 Cl
ATOM     31 CL   UNL     1       3.817  -0.823   0.003  0.00  0.00    -0.083 Cl
ENDBRANCH  23  26
ENDBRANCH   1  23
TORSDOF 3
