REMARK  Name = CHEMBL369506
REMARK  9 active torsions:
REMARK  status: ('A' for Active; 'I' for Inactive)
REMARK    1  A    between atoms: C_1  and  C_2
REMARK    2  A    between atoms: C_2  and  C_3
REMARK    3  A    between atoms: C_2  and  C_4
REMARK    4  A    between atoms: C_7  and  C_35
REMARK    5  A    between atoms: C_8  and  C_12
REMARK    6  A    between atoms: C_15  and  C_18
REMARK    7  A    between atoms: C_18  and  N_19
REMARK    8  A    between atoms: C_22  and  N_25
REMARK    9  A    between atoms: C_33  and  O_34
REMARK                            x       y       z     vdW  Elec       q    Type
REMARK                         _______ _______ _______ _____ _____    ______ ____
ROOT
ATOM      1  C   UNL     1      -2.266  -4.917  -2.791  0.00  0.00    -0.056 A 
ATOM      2  C   UNL     1      -1.741  -5.626  -1.726  0.00  0.00    +0.002 A 
ATOM      3  C   UNL     1      -1.423  -6.963  -1.876  0.00  0.00    +0.002 A 
ATOM      4  C   UNL     1      -1.631  -7.591  -3.089  0.00  0.00    -0.064 A 
ATOM      5  C   UNL     1      -2.157  -6.883  -4.153  0.00  0.00    +0.002 A 
ATOM      6  C   UNL     1      -2.479  -5.547  -4.003  0.00  0.00    +0.002 A 
ENDROOT
BRANCH   1  11
ATOM      7  C   UNL     1      -2.044  -0.379   0.062  0.00  0.00    -0.000 C 
ATOM      8  C   UNL     1      -2.243  -1.256  -0.919  0.00  0.00    +0.052 C 
ATOM      9  N   UNL     1      -1.218  -1.644  -1.729  0.00  0.00    -0.257 NA
ATOM     10  C   UNL     1      -1.346  -2.659  -2.527  0.00  0.00    +0.039 C 
ATOM     11  C   UNL     1      -2.612  -3.460  -2.628  0.00  0.00    +0.014 C 
ATOM     12  N   UNL     1      -3.434  -3.290  -1.424  0.00  0.00    +0.410 N 
ATOM     13  C   UNL     1      -3.611  -1.855  -1.161  0.00  0.00    +0.152 C 
ATOM     14  O   UNL     1      -4.220  -1.230  -2.294  0.00  0.00    -0.245 OA
ATOM     15  H   UNL     1      -4.335  -3.722  -1.566  0.00  0.00    -0.080 HD
ATOM     16  H   UNL     1      -2.972  -3.720  -0.636  0.00  0.00    -0.080 HD
BRANCH  10  17
ATOM     17  C   UNL     1      -0.201  -3.043  -3.369  0.00  0.00    -0.005 A 
ATOM     18  C   UNL     1      -0.413  -3.553  -4.653  0.00  0.00    +0.009 A 
ATOM     19  C   UNL     1       0.665  -3.910  -5.436  0.00  0.00    +0.001 A 
ATOM     20  C   UNL     1       1.953  -3.765  -4.953  0.00  0.00    +0.000 A 
ATOM     21  C   UNL     1       2.171  -3.261  -3.682  0.00  0.00    +0.001 A 
ATOM     22  C   UNL     1       1.104  -2.894  -2.890  0.00  0.00    +0.009 A 
ENDBRANCH  10  17
BRANCH   7  24
ATOM     23  C   UNL     1      -0.727   1.721   0.134  0.00  0.00    +0.011 C 
ATOM     24  C   UNL     1      -0.671   0.200   0.289  0.00  0.00    +0.007 C 
ATOM     25  C   UNL     1      -0.197  -0.152   1.700  0.00  0.00    +0.011 C 
ENDBRANCH   7  24
ENDBRANCH   1  11
BRANCH   4  26
ATOM     26  C   UNL     1      -1.284  -9.049  -3.253  0.00  0.00    -0.043 C 
BRANCH  26  27
ATOM     27  N   UNL     1      -2.450  -9.872  -2.905  0.00  0.00    +0.382 N 
ATOM     28  C   UNL     1      -2.765  -9.696  -1.482  0.00  0.00    -0.076 C 
ATOM     29  C   UNL     1      -4.028 -10.488  -1.134  0.00  0.00    +0.006 C 
ATOM     30  C   UNL     1      -3.789 -11.972  -1.426  0.00  0.00    +0.089 C 
ATOM     31  C   UNL     1      -3.389 -12.135  -2.895  0.00  0.00    +0.006 C 
ATOM     32  C   UNL     1      -2.151 -11.283  -3.178  0.00  0.00    -0.076 C 
ATOM     33  H   UNL     1      -3.242  -9.584  -3.461  0.00  0.00    -0.081 HD
BRANCH  30  34
ATOM     34  N   UNL     1      -5.019 -12.726  -1.167  0.00  0.00    -0.291 N 
ATOM     35  C   UNL     1      -5.175 -13.751  -0.250  0.00  0.00    +0.072 A 
ATOM     36  C   UNL     1      -4.325 -14.372   0.654  0.00  0.00    +0.028 A 
ATOM     37  C   UNL     1      -4.798 -15.395   1.450  0.00  0.00    +0.002 A 
ATOM     38  C   UNL     1      -6.119 -15.808   1.352  0.00  0.00    +0.002 A 
ATOM     39  C   UNL     1      -6.976 -15.204   0.460  0.00  0.00    +0.030 A 
ATOM     40  C   UNL     1      -6.513 -14.166  -0.353  0.00  0.00    +0.093 A 
ATOM     41  N   UNL     1      -7.098 -13.392  -1.305  0.00  0.00    -0.195 NA
ATOM     42  C   UNL     1      -6.224 -12.543  -1.779  0.00  0.00    +0.297 A 
BRANCH  42  43
ATOM     43  O   UNL     1      -6.476 -11.622  -2.737  0.00  0.00    -0.480 OA
ATOM     44  H   UNL     1      -6.322 -11.939  -3.638  0.00  0.00    +0.295 HD
ENDBRANCH  42  43
ENDBRANCH  30  34
ENDBRANCH  26  27
ENDBRANCH   4  26
TORSDOF 7
