REMARK  Name = CHEMBL259967
REMARK  6 active torsions:
REMARK  status: ('A' for Active; 'I' for Inactive)
REMARK    1  A    between atoms: C_4  and  C_7
REMARK    2  A    between atoms: C_16  and  C_17
REMARK    3  A    between atoms: C_20  and  C_23
REMARK    4  A    between atoms: C_23  and  N_24
REMARK    5  A    between atoms: C_27  and  C_30
REMARK    6  A    between atoms: C_32  and  C_36
REMARK                            x       y       z     vdW  Elec       q    Type
REMARK                         _______ _______ _______ _____ _____    ______ ____
ROOT
ATOM      1  C   UNL     1       2.903  -2.083   1.877  0.00  0.00    +0.001 A 
ATOM      2  C   UNL     1       2.076  -1.094   2.410  0.00  0.00    +0.010 A 
ATOM      3  C   UNL     1       1.105  -1.434   3.329  0.00  0.00    +0.002 A 
ATOM      4  C   UNL     1       0.951  -2.751   3.723  0.00  0.00    -0.064 A 
ATOM      5  C   UNL     1       1.768  -3.736   3.197  0.00  0.00    +0.002 A 
ATOM      6  C   UNL     1       2.739  -3.410   2.272  0.00  0.00    +0.010 A 
ENDROOT
BRANCH   1  16
ATOM      7  C   UNL     1       3.698  -0.688  -0.038  0.00  0.00    +0.009 A 
ATOM      8  C   UNL     1       4.675  -0.346  -0.960  0.00  0.00    +0.022 A 
ATOM      9  C   UNL     1       5.884  -1.060  -0.934  0.00  0.00    +0.019 A 
ATOM     10  C   UNL     1       6.929  -0.782  -1.829  0.00  0.00    +0.120 A 
ATOM     11  N   UNL     1       8.043  -1.474  -1.770  0.00  0.00    -0.263 NA
ATOM     12  C   UNL     1       8.236  -2.444  -0.887  0.00  0.00    +0.113 A 
ATOM     13  C   UNL     1       7.285  -2.790   0.023  0.00  0.00    +0.048 A 
ATOM     14  C   UNL     1       6.060  -2.094   0.024  0.00  0.00    +0.075 A 
ATOM     15  N   UNL     1       5.090  -2.385   0.890  0.00  0.00    -0.246 NA
ATOM     16  C   UNL     1       3.948  -1.725   0.889  0.00  0.00    +0.079 A 
BRANCH   7  20
ATOM     17  C   UNL     1      -0.017   1.379   0.010  0.00  0.00    +0.000 A 
ATOM     18  C   UNL     1       1.169   2.092   0.002  0.00  0.00    +0.001 A 
ATOM     19  C   UNL     1       2.377   1.427  -0.013  0.00  0.00    +0.008 A 
ATOM     20  C   UNL     1       2.403   0.033  -0.021  0.00  0.00    -0.016 A 
ATOM     21  C   UNL     1       1.205  -0.680  -0.013  0.00  0.00    +0.008 A 
ATOM     22  C   UNL     1       0.002  -0.004   0.002  0.00  0.00    +0.001 A 
ENDBRANCH   7  20
ENDBRANCH   1  16
BRANCH   4  23
ATOM     23  C   UNL     1      -0.112  -3.115   4.728  0.00  0.00    -0.043 C 
BRANCH  23  24
ATOM     24  N   UNL     1      -1.362  -3.434   4.026  0.00  0.00    +0.382 N 
ATOM     25  C   UNL     1      -1.857  -2.234   3.341  0.00  0.00    -0.078 C 
ATOM     26  C   UNL     1      -3.115  -2.581   2.542  0.00  0.00    -0.008 C 
ATOM     27  C   UNL     1      -4.191  -3.107   3.496  0.00  0.00    +0.053 C 
ATOM     28  C   UNL     1      -3.637  -4.314   4.259  0.00  0.00    -0.008 C 
ATOM     29  C   UNL     1      -2.360  -3.903   4.994  0.00  0.00    -0.078 C 
ATOM     30  H   UNL     1      -1.188  -4.159   3.345  0.00  0.00    -0.081 HD
BRANCH  27  31
ATOM     31  C   UNL     1      -5.405  -3.524   2.707  0.00  0.00    +0.129 A 
ATOM     32  N   UNL     1      -6.458  -2.787   2.476  0.00  0.00    -0.210 NA
ATOM     33  C   UNL     1      -7.342  -3.475   1.742  0.00  0.00    +0.200 A 
ATOM     34  N   UNL     1      -6.849  -4.670   1.499  0.00  0.00    -0.151 NA
ATOM     35  H   UNL     1      -4.970  -5.466   2.112  0.00  0.00    +0.190 HD
ATOM     36  N   UNL     1      -5.587  -4.718   2.113  0.00  0.00    -0.262 N 
BRANCH  33  37
ATOM     37  C   UNL     1      -8.660  -2.974   1.280  0.00  0.00    +0.110 A 
ATOM     38  C   UNL     1      -9.488  -3.801   0.523  0.00  0.00    +0.031 A 
ATOM     39  C   UNL     1     -10.714  -3.319   0.100  0.00  0.00    +0.004 A 
ATOM     40  C   UNL     1     -11.073  -2.024   0.447  0.00  0.00    +0.020 A 
ATOM     41  C   UNL     1     -10.202  -1.258   1.200  0.00  0.00    +0.111 A 
ATOM     42  N   UNL     1      -9.042  -1.743   1.594  0.00  0.00    -0.252 NA
ENDBRANCH  33  37
ENDBRANCH  27  31
ENDBRANCH  23  24
ENDBRANCH   4  23
TORSDOF 6
