REMARK  Name = CHEMBL207544
REMARK  8 active torsions:
REMARK  status: ('A' for Active; 'I' for Inactive)
REMARK    1  A    between atoms: C_2  and  C_3
REMARK    2  A    between atoms: C_4  and  C_25
REMARK    3  A    between atoms: C_6  and  O_9
REMARK    4  A    between atoms: O_9  and  C_10
REMARK    5  A    between atoms: C_10  and  C_11
REMARK    6  A    between atoms: C_11  and  C_13
REMARK    7  A    between atoms: C_11  and  N_24
REMARK    8  A    between atoms: C_13  and  C_14
REMARK                            x       y       z     vdW  Elec       q    Type
REMARK                         _______ _______ _______ _____ _____    ______ ____
ROOT
ATOM      1  C   UNL     1      -0.017   1.428   0.010  0.00  0.00    +0.121 A 
ATOM      2  C   UNL     1      -1.247   2.110   0.031  0.00  0.00    +0.019 A 
ATOM      3  C   UNL     1      -1.244   3.504   0.038  0.00  0.00    +0.058 A 
ATOM      4  C   UNL     1      -0.020   4.162   0.024  0.00  0.00    +0.139 A 
ATOM      5  C   UNL     1       1.154   3.419   0.004  0.00  0.00    +0.157 A 
ATOM      6  N   UNL     1       1.126   2.103   0.003  0.00  0.00    -0.242 NA
ENDROOT
BRANCH   2   7
ATOM      7  C   UNL     1      -2.525   1.359   0.045  0.00  0.00    -0.015 A 
ATOM      8  C   UNL     1      -3.511   1.681   0.992  0.00  0.00    +0.009 A 
ATOM      9  C   UNL     1      -4.692   1.009   1.027  0.00  0.00    +0.010 A 
ATOM     10  C   UNL     1      -4.936  -0.024   0.107  0.00  0.00    +0.000 A 
ATOM     11  C   UNL     1      -6.141  -0.745   0.105  0.00  0.00    +0.119 A 
ATOM     12  N   UNL     1      -6.330  -1.703  -0.772  0.00  0.00    -0.263 NA
ATOM     13  C   UNL     1      -5.423  -2.035  -1.680  0.00  0.00    +0.111 A 
ATOM     14  C   UNL     1      -4.222  -1.397  -1.762  0.00  0.00    +0.028 A 
ATOM     15  C   UNL     1      -3.946  -0.357  -0.854  0.00  0.00    -0.014 A 
ATOM     16  C   UNL     1      -2.738   0.350  -0.879  0.00  0.00    +0.017 A 
ENDBRANCH   2   7
BRANCH   1  18
ATOM     17  C   UNL     1       0.018  -1.178  -0.004  0.00  0.00    +0.011 C 
ATOM     18  C   UNL     1       0.002  -0.004   0.002  0.00  0.00    -0.049 C 
ENDBRANCH   1  18
BRANCH   4  19
ATOM     19  O   UNL     1       0.029   5.520   0.030  0.00  0.00    -0.492 OA
BRANCH  19  20
ATOM     20  C   UNL     1       1.324   6.123   0.015  0.00  0.00    +0.213 C 
BRANCH  20  21
ATOM     21  C   UNL     1       1.178   7.646   0.025  0.00  0.00    -0.033 C 
BRANCH  21  22
ATOM     22  N   UNL     1       0.567   8.071   1.291  0.00  0.00    +0.382 N 
ATOM     23  H   UNL     1       1.153   7.785   2.061  0.00  0.00    -0.089 HD
ATOM     24  H   UNL     1       0.470   9.076   1.297  0.00  0.00    -0.089 HD
ATOM     25  H   UNL     1      -0.343   7.646   1.385  0.00  0.00    -0.089 HD
ENDBRANCH  21  22
BRANCH  21  26
ATOM     26  C   UNL     1       2.558   8.291  -0.117  0.00  0.00    +0.024 C 
BRANCH  26  27
ATOM     27  C   UNL     1       2.404   9.786  -0.231  0.00  0.00    -0.024 A 
ATOM     28  C   UNL     1       2.341  10.498  -1.367  0.00  0.00    +0.087 A 
ATOM     29  N   UNL     1       2.201  11.828  -1.078  0.00  0.00    -0.360 N 
ATOM     30  H   UNL     1       2.133  12.538  -1.736  0.00  0.00    +0.165 HD
ATOM     31  C   UNL     1       2.168  12.009   0.287  0.00  0.00    +0.047 A 
ATOM     32  C   UNL     1       2.288  10.737   0.877  0.00  0.00    +0.003 A 
ATOM     33  C   UNL     1       2.280  10.611   2.267  0.00  0.00    +0.010 A 
ATOM     34  C   UNL     1       2.153  11.725   3.049  0.00  0.00    +0.001 A 
ATOM     35  C   UNL     1       2.030  12.981   2.472  0.00  0.00    +0.002 A 
ATOM     36  C   UNL     1       2.045  13.129   1.102  0.00  0.00    +0.026 A 
ENDBRANCH  26  27
ENDBRANCH  21  26
ENDBRANCH  20  21
ENDBRANCH  19  20
ENDBRANCH   4  19
TORSDOF 8
