REMARK  Name = CHEMBL536485
REMARK  10 active torsions:
REMARK  status: ('A' for Active; 'I' for Inactive)
REMARK    1  A    between atoms: C_1  and  C_2
REMARK    2  A    between atoms: C_2  and  C_45
REMARK    3  A    between atoms: C_7  and  C_8
REMARK    4  A    between atoms: C_11  and  O_44
REMARK    5  A    between atoms: C_12  and  C_15
REMARK    6  A    between atoms: C_15  and  C_17
REMARK    7  A    between atoms: C_20  and  C_23
REMARK    8  A    between atoms: N_25  and  C_26
REMARK    9  A    between atoms: C_33  and  N_35
REMARK   10  A    between atoms: C_36  and  C_38
REMARK                            x       y       z     vdW  Elec       q    Type
REMARK                         _______ _______ _______ _____ _____    ______ ____
ROOT
ATOM      1  C   UNL     1       5.425   3.623   2.170  0.00  0.00    +0.023 A 
ATOM      2  C   UNL     1       6.398   2.930   1.448  0.00  0.00    +0.012 A 
ATOM      3  C   UNL     1       7.673   3.442   1.342  0.00  0.00    +0.014 A 
ATOM      4  C   UNL     1       7.991   4.654   1.957  0.00  0.00    +0.037 A 
ATOM      5  C   UNL     1       7.018   5.348   2.679  0.00  0.00    +0.014 A 
ATOM      6  C   UNL     1       5.742   4.839   2.780  0.00  0.00    +0.012 A 
ENDROOT
BRANCH   4   7
ATOM      7  C   UNL     1       9.360   5.205   1.843  0.00  0.00    +0.244 C 
ATOM      8  O   UNL     1      10.207   4.601   1.214  0.00  0.00    -0.270 OA
ATOM      9  N   UNL     1       9.668   6.375   2.436  0.00  0.00    -0.307 N 
ATOM     10  H   UNL     1       8.992   6.857   2.938  0.00  0.00    +0.149 HD
BRANCH   9  11
ATOM     11  C   UNL     1      11.023   6.920   2.323  0.00  0.00    +0.092 C 
ATOM     12  C   UNL     1      11.921   6.279   3.412  0.00  0.00    +0.022 C 
ATOM     13  C   UNL     1      13.363   6.526   3.058  0.00  0.00    -0.017 C 
ATOM     14  C   UNL     1      13.936   7.813   3.679  0.00  0.00    -0.082 C 
ATOM     15  N   UNL     1      13.013   8.966   3.606  0.00  0.00    +0.380 N 
ATOM     16  C   UNL     1      12.345   9.041   2.329  0.00  0.00    -0.058 C 
ATOM     17  C   UNL     1      10.971   8.369   2.476  0.00  0.00    +0.076 C 
ATOM     18  H   UNL     1      12.320   8.879   4.334  0.00  0.00    -0.086 HD
ATOM     19  H   UNL     1      13.537   9.815   3.753  0.00  0.00    -0.086 HD
BRANCH  17  20
ATOM     20  N   UNL     1      10.068   8.917   1.460  0.00  0.00    -0.309 N 
ATOM     21  C   UNL     1       9.455  10.098   1.671  0.00  0.00    +0.244 C 
ATOM     22  O   UNL     1       9.651  10.709   2.703  0.00  0.00    -0.270 OA
ATOM     23  H   UNL     1       9.912   8.429   0.636  0.00  0.00    +0.149 HD
BRANCH  21  24
ATOM     24  C   UNL     1       8.543  10.653   0.644  0.00  0.00    +0.040 A 
ATOM     25  C   UNL     1       8.299   9.964  -0.548  0.00  0.00    +0.033 A 
ATOM     26  C   UNL     1       7.440  10.517  -1.478  0.00  0.00    +0.111 A 
ATOM     27  N   UNL     1       6.856  11.677  -1.253  0.00  0.00    -0.263 NA
ATOM     28  C   UNL     1       7.058  12.359  -0.143  0.00  0.00    +0.111 A 
ATOM     29  C   UNL     1       7.897  11.877   0.843  0.00  0.00    +0.033 A 
ENDBRANCH  21  24
ENDBRANCH  17  20
ENDBRANCH   9  11
ENDBRANCH   4   7
BRANCH   1  30
ATOM     30  C   UNL     1       4.055   3.074   2.283  0.00  0.00    +0.199 C 
ATOM     31  O   UNL     1       3.182   3.723   2.826  0.00  0.00    -0.286 OA
BRANCH  30  36
ATOM     32  C   UNL     1       3.640  -0.649   2.011  0.00  0.00    -0.025 A 
ATOM     33  C   UNL     1       3.175  -0.774   0.713  0.00  0.00    +0.008 A 
ATOM     34  C   UNL     1       2.994   0.344  -0.077  0.00  0.00    +0.046 A 
ATOM     35  C   UNL     1       3.278   1.605   0.424  0.00  0.00    +0.130 A 
ATOM     36  C   UNL     1       3.750   1.740   1.739  0.00  0.00    +0.099 A 
ATOM     37  C   UNL     1       3.924   0.598   2.532  0.00  0.00    +0.139 A 
ATOM     38  F   UNL     1       4.373   0.716   3.800  0.00  0.00    -0.204 F 
BRANCH  32  45
ATOM     39  C   UNL     1       2.349  -0.898   4.616  0.00  0.00    +0.009 C 
ATOM     40  C   UNL     1       2.583  -2.110   3.712  0.00  0.00    -0.043 C 
ATOM     41  C   UNL     1       2.783  -3.360   4.574  0.00  0.00    +0.003 C 
ATOM     42  C   UNL     1       3.094  -4.551   3.664  0.00  0.00    -0.019 C 
ATOM     43  C   UNL     1       4.325  -4.230   2.814  0.00  0.00    -0.082 C 
ATOM     44  N   UNL     1       4.061  -3.041   1.994  0.00  0.00    +0.384 N 
ATOM     45  C   UNL     1       3.833  -1.879   2.861  0.00  0.00    -0.032 C 
ATOM     46  C   UNL     1       1.372  -2.307   2.799  0.00  0.00    +0.009 C 
ATOM     47  H   UNL     1       4.854  -2.863   1.396  0.00  0.00    -0.085 HD
ATOM     48  H   UNL     1       3.243  -3.201   1.425  0.00  0.00    -0.085 HD
ENDBRANCH  32  45
BRANCH  35  49
ATOM     49  O   UNL     1       3.101   2.703  -0.352  0.00  0.00    -0.506 OA
ATOM     50  H   UNL     1       2.197   3.047  -0.346  0.00  0.00    +0.292 HD
ENDBRANCH  35  49
ENDBRANCH  30  36
ENDBRANCH   1  30
TORSDOF 8
