REMARK  Name = CHEMBL425650
REMARK  7 active torsions:
REMARK  status: ('A' for Active; 'I' for Inactive)
REMARK    1  A    between atoms: C_3  and  C_18
REMARK    2  A    between atoms: C_5  and  C_7
REMARK    3  A    between atoms: N_9  and  C_10
REMARK    4  A    between atoms: C_10  and  C_11
REMARK    5  A    between atoms: C_11  and  N_12
REMARK    6  A    between atoms: C_20  and  C_24
REMARK    7  A    between atoms: C_28  and  N_35
REMARK                            x       y       z     vdW  Elec       q    Type
REMARK                         _______ _______ _______ _____ _____    ______ ____
ROOT
ATOM      1  C   UNL     1       4.038   2.209  -1.634  0.00  0.00    -0.000 A 
ATOM      2  C   UNL     1       4.584   3.141  -0.734  0.00  0.00    +0.035 A 
ATOM      3  C   UNL     1       4.946   4.252  -1.475  0.00  0.00    +0.041 A 
ATOM      4  N   UNL     1       4.628   4.003  -2.793  0.00  0.00    -0.361 N 
ATOM      5  H   UNL     1       4.774   4.614  -3.533  0.00  0.00    +0.165 HD
ATOM      6  C   UNL     1       4.086   2.771  -2.891  0.00  0.00    +0.091 A 
ENDROOT
BRANCH   3   7
ATOM      7  C   UNL     1       5.534   5.431  -0.971  0.00  0.00    +0.039 C 
ATOM      8  C   UNL     1       6.885   5.460  -0.683  0.00  0.00    +0.048 C 
ATOM      9  C   UNL     1       7.697   6.635  -0.296  0.00  0.00    +0.010 A 
ATOM     10  C   UNL     1       7.399   7.981  -0.112  0.00  0.00    +0.033 A 
ATOM     11  C   UNL     1       8.402   8.862   0.260  0.00  0.00    +0.035 A 
ATOM     12  C   UNL     1       9.699   8.398   0.447  0.00  0.00    +0.025 A 
ATOM     13  C   UNL     1      10.000   7.064   0.265  0.00  0.00    +0.026 A 
ATOM     14  C   UNL     1       9.005   6.167  -0.108  0.00  0.00    +0.042 A 
ATOM     15  N   UNL     1       9.038   4.797  -0.353  0.00  0.00    -0.281 N 
ATOM     16  C   UNL     1       7.823   4.331  -0.688  0.00  0.00    +0.249 C 
ATOM     17  O   UNL     1       7.549   3.173  -0.951  0.00  0.00    -0.270 OA
ATOM     18  H   UNL     1       9.836   4.249  -0.286  0.00  0.00    +0.155 HD
BRANCH  11  19
ATOM     19  N   UNL     1       8.109  10.220   0.447  0.00  0.00    -0.270 N 
ATOM     20  C   UNL     1       6.973  10.584   1.075  0.00  0.00    +0.301 C 
ATOM     21  O   UNL     1       6.217   9.734   1.505  0.00  0.00    -0.253 OA
ATOM     22  N   UNL     1       6.676  11.890   1.226  0.00  0.00    -0.313 N 
ATOM     23  H   UNL     1       8.723  10.897   0.124  0.00  0.00    +0.156 HD
ATOM     24  H   UNL     1       7.279  12.568   0.882  0.00  0.00    +0.146 HD
ATOM     25  H   UNL     1       5.859  12.152   1.678  0.00  0.00    +0.146 HD
ENDBRANCH  11  19
ENDBRANCH   3   7
BRANCH   1  28
ATOM     26  C   UNL     1       3.037  -0.830   0.348  0.00  0.00    +0.001 A 
ATOM     27  C   UNL     1       3.526   0.421   0.028  0.00  0.00    +0.008 A 
ATOM     28  C   UNL     1       3.512   0.863  -1.294  0.00  0.00    -0.016 A 
ATOM     29  C   UNL     1       3.003   0.040  -2.294  0.00  0.00    +0.021 A 
ATOM     30  C   UNL     1       2.511  -1.222  -1.967  0.00  0.00    +0.037 A 
ATOM     31  C   UNL     1       2.531  -1.652  -0.638  0.00  0.00    +0.013 A 
BRANCH  30  32
ATOM     32  C   UNL     1       1.968  -2.102  -3.023  0.00  0.00    +0.244 C 
ATOM     33  O   UNL     1       1.951  -1.726  -4.179  0.00  0.00    -0.270 OA
ATOM     34  N   UNL     1       1.492  -3.322  -2.705  0.00  0.00    -0.313 N 
ATOM     35  H   UNL     1       1.506  -3.623  -1.783  0.00  0.00    +0.149 HD
BRANCH  34  36
ATOM     36  C   UNL     1       0.954  -4.195  -3.752  0.00  0.00    +0.086 C 
BRANCH  36  37
ATOM     37  C   UNL     1       0.484  -5.510  -3.128  0.00  0.00    -0.060 C 
BRANCH  37  38
ATOM     38  N   UNL     1      -0.055  -6.385  -4.178  0.00  0.00    +0.381 N 
ATOM     39  C   UNL     1      -1.255  -5.770  -4.756  0.00  0.00    -0.079 C 
ATOM     40  C   UNL     1      -1.774  -6.637  -5.905  0.00  0.00    -0.019 C 
ATOM     41  C   UNL     1      -2.120  -8.030  -5.370  0.00  0.00    -0.004 C 
ATOM     42  C   UNL     1      -0.880  -8.632  -4.702  0.00  0.00    -0.019 C 
ATOM     43  C   UNL     1      -0.394  -7.690  -3.598  0.00  0.00    -0.079 C 
ATOM     44  H   UNL     1       0.639  -6.509  -4.900  0.00  0.00    -0.082 HD
ENDBRANCH  37  38
ENDBRANCH  36  37
ENDBRANCH  34  36
ENDBRANCH  30  32
ENDBRANCH   1  28
TORSDOF 7
