REMARK  Name = CHEMBL369506
REMARK  9 active torsions:
REMARK  status: ('A' for Active; 'I' for Inactive)
REMARK    1  A    between atoms: C_1  and  C_2
REMARK    2  A    between atoms: C_2  and  C_3
REMARK    3  A    between atoms: C_2  and  C_4
REMARK    4  A    between atoms: C_7  and  C_35
REMARK    5  A    between atoms: C_8  and  C_12
REMARK    6  A    between atoms: C_15  and  C_18
REMARK    7  A    between atoms: C_18  and  N_19
REMARK    8  A    between atoms: C_22  and  N_25
REMARK    9  A    between atoms: C_33  and  O_34
REMARK                            x       y       z     vdW  Elec       q    Type
REMARK                         _______ _______ _______ _____ _____    ______ ____
ROOT
ATOM      1  C   UNL     1      -3.456  -2.197  -4.673  0.00  0.00    -0.056 A 
ATOM      2  C   UNL     1      -3.659  -0.888  -5.070  0.00  0.00    +0.002 A 
ATOM      3  C   UNL     1      -4.080  -0.613  -6.357  0.00  0.00    +0.002 A 
ATOM      4  C   UNL     1      -4.298  -1.647  -7.249  0.00  0.00    -0.064 A 
ATOM      5  C   UNL     1      -4.094  -2.955  -6.853  0.00  0.00    +0.002 A 
ATOM      6  C   UNL     1      -3.669  -3.230  -5.566  0.00  0.00    +0.002 A 
ENDROOT
BRANCH   1  11
ATOM      7  C   UNL     1      -1.547  -0.515   0.051  0.00  0.00    -0.000 C 
ATOM      8  C   UNL     1      -1.937  -1.286  -0.963  0.00  0.00    +0.052 C 
ATOM      9  N   UNL     1      -1.117  -1.509  -2.028  0.00  0.00    -0.257 NA
ATOM     10  C   UNL     1      -1.569  -2.059  -3.113  0.00  0.00    +0.039 C 
ATOM     11  C   UNL     1      -2.997  -2.496  -3.269  0.00  0.00    +0.014 C 
ATOM     12  N   UNL     1      -3.865  -1.794  -2.317  0.00  0.00    +0.410 N 
ATOM     13  C   UNL     1      -3.301  -1.941  -0.960  0.00  0.00    +0.152 C 
ATOM     14  O   UNL     1      -3.172  -3.326  -0.631  0.00  0.00    -0.245 OA
ATOM     15  H   UNL     1      -3.913  -0.816  -2.562  0.00  0.00    -0.080 HD
ATOM     16  H   UNL     1      -4.790  -2.196  -2.343  0.00  0.00    -0.080 HD
BRANCH  10  17
ATOM     17  C   UNL     1      -0.643  -2.262  -4.238  0.00  0.00    -0.005 A 
ATOM     18  C   UNL     1       0.379  -1.339  -4.483  0.00  0.00    +0.009 A 
ATOM     19  C   UNL     1       1.243  -1.536  -5.540  0.00  0.00    +0.001 A 
ATOM     20  C   UNL     1       1.101  -2.644  -6.356  0.00  0.00    +0.000 A 
ATOM     21  C   UNL     1       0.093  -3.562  -6.120  0.00  0.00    +0.001 A 
ATOM     22  C   UNL     1      -0.775  -3.382  -5.065  0.00  0.00    +0.009 A 
ENDBRANCH  10  17
BRANCH   7  24
ATOM     23  C   UNL     1      -0.329   1.645   0.086  0.00  0.00    +0.011 C 
ATOM     24  C   UNL     1      -0.182   0.123   0.030  0.00  0.00    +0.007 C 
ATOM     25  C   UNL     1       0.624  -0.356   1.239  0.00  0.00    +0.011 C 
ENDBRANCH   7  24
ENDBRANCH   1  11
BRANCH   4  26
ATOM     26  C   UNL     1      -4.758  -1.347  -8.652  0.00  0.00    -0.043 C 
BRANCH  26  27
ATOM     27  N   UNL     1      -3.588  -1.170  -9.523  0.00  0.00    +0.382 N 
ATOM     28  C   UNL     1      -2.834   0.013  -9.092  0.00  0.00    -0.076 C 
ATOM     29  C   UNL     1      -1.571   0.156  -9.945  0.00  0.00    +0.006 C 
ATOM     30  C   UNL     1      -1.970   0.310 -11.415  0.00  0.00    +0.089 C 
ATOM     31  C   UNL     1      -2.819  -0.893 -11.833  0.00  0.00    +0.006 C 
ATOM     32  C   UNL     1      -4.036  -0.997 -10.911  0.00  0.00    -0.076 C 
ATOM     33  H   UNL     1      -2.997  -1.985  -9.461  0.00  0.00    -0.081 HD
BRANCH  30  34
ATOM     34  N   UNL     1      -0.764   0.371 -12.246  0.00  0.00    -0.291 N 
ATOM     35  C   UNL     1      -0.385   1.420 -13.067  0.00  0.00    +0.072 A 
ATOM     36  C   UNL     1      -0.941   2.654 -13.370  0.00  0.00    +0.028 A 
ATOM     37  C   UNL     1      -0.299   3.497 -14.254  0.00  0.00    +0.002 A 
ATOM     38  C   UNL     1       0.900   3.119 -14.841  0.00  0.00    +0.002 A 
ATOM     39  C   UNL     1       1.465   1.897 -14.551  0.00  0.00    +0.030 A 
ATOM     40  C   UNL     1       0.828   1.032 -13.659  0.00  0.00    +0.093 A 
ATOM     41  N   UNL     1       1.126  -0.206 -13.183  0.00  0.00    -0.195 NA
ATOM     42  C   UNL     1       0.196  -0.592 -12.350  0.00  0.00    +0.297 A 
BRANCH  42  43
ATOM     43  O   UNL     1       0.184  -1.773 -11.691  0.00  0.00    -0.480 OA
ATOM     44  H   UNL     1      -0.261  -2.486 -12.169  0.00  0.00    +0.295 HD
ENDBRANCH  42  43
ENDBRANCH  30  34
ENDBRANCH  26  27
ENDBRANCH   4  26
TORSDOF 7
