REMARK  Name = CHEMBL402579
REMARK  6 active torsions:
REMARK  status: ('A' for Active; 'I' for Inactive)
REMARK    1  A    between atoms: C_1  and  C_2
REMARK    2  A    between atoms: N_10  and  C_11
REMARK    3  A    between atoms: N_14  and  C_17
REMARK    4  A    between atoms: C_17  and  C_18
REMARK    5  A    between atoms: C_21  and  C_24
REMARK    6  A    between atoms: C_25  and  C_35
REMARK                            x       y       z     vdW  Elec       q    Type
REMARK                         _______ _______ _______ _____ _____    ______ ____
ROOT
ATOM      1  C   UNL     1       0.310   3.542   5.863  0.00  0.00    -0.064 A 
ATOM      2  C   UNL     1       1.570   3.251   6.355  0.00  0.00    +0.002 A 
ATOM      3  C   UNL     1       2.500   4.257   6.515  0.00  0.00    +0.010 A 
ATOM      4  C   UNL     1       2.169   5.569   6.180  0.00  0.00    +0.001 A 
ATOM      5  C   UNL     1       0.897   5.857   5.685  0.00  0.00    +0.010 A 
ATOM      6  C   UNL     1      -0.023   4.841   5.524  0.00  0.00    +0.002 A 
ENDROOT
BRANCH   4   7
ATOM      7  C   UNL     1       3.163   6.654   6.351  0.00  0.00    +0.081 A 
ATOM      8  C   UNL     1       3.185   7.723   5.428  0.00  0.00    +0.009 A 
ATOM      9  C   UNL     1       4.117   8.740   5.587  0.00  0.00    +0.025 A 
ATOM     10  C   UNL     1       5.002   8.656   6.669  0.00  0.00    +0.059 A 
ATOM     11  C   UNL     1       5.985   9.646   6.911  0.00  0.00    +0.129 A 
ATOM     12  N   UNL     1       6.785   9.492   7.959  0.00  0.00    -0.220 NA
ATOM     13  C   UNL     1       6.674   8.446   8.761  0.00  0.00    +0.225 A 
ATOM     14  N   UNL     1       5.783   7.499   8.584  0.00  0.00    -0.216 NA
ATOM     15  C   UNL     1       4.922   7.553   7.556  0.00  0.00    +0.165 A 
ATOM     16  N   UNL     1       4.007   6.604   7.365  0.00  0.00    -0.227 NA
ATOM     17  N   UNL     1       6.107  10.739   6.081  0.00  0.00    -0.343 N 
ATOM     18  H   UNL     1       5.516  10.839   5.319  0.00  0.00    +0.144 HD
ATOM     19  H   UNL     1       6.785  11.410   6.260  0.00  0.00    +0.144 HD
BRANCH   8  20
ATOM     20  C   UNL     1       2.223   7.758   4.301  0.00  0.00    -0.016 A 
ATOM     21  C   UNL     1       2.056   6.638   3.488  0.00  0.00    +0.008 A 
ATOM     22  C   UNL     1       1.159   6.677   2.440  0.00  0.00    +0.001 A 
ATOM     23  C   UNL     1       0.427   7.825   2.195  0.00  0.00    +0.000 A 
ATOM     24  C   UNL     1       0.589   8.940   2.998  0.00  0.00    +0.001 A 
ATOM     25  C   UNL     1       1.478   8.910   4.053  0.00  0.00    +0.008 A 
ENDBRANCH   8  20
ENDBRANCH   4   7
BRANCH   1  26
ATOM     26  C   UNL     1      -0.702   2.439   5.690  0.00  0.00    -0.043 C 
BRANCH  26  30
ATOM     27  C   UNL     1      -0.188  -0.336   2.497  0.00  0.00    +0.085 C 
ATOM     28  C   UNL     1      -1.553   0.324   2.709  0.00  0.00    +0.006 C 
ATOM     29  C   UNL     1      -1.634   0.870   4.136  0.00  0.00    -0.076 C 
ATOM     30  N   UNL     1      -0.572   1.861   4.346  0.00  0.00    +0.382 N 
ATOM     31  C   UNL     1       0.741   1.219   4.215  0.00  0.00    -0.076 C 
ATOM     32  C   UNL     1       0.914   0.687   2.791  0.00  0.00    +0.006 C 
ATOM     33  H   UNL     1      -0.657   2.594   3.658  0.00  0.00    -0.081 HD
BRANCH  27  43
ATOM     34  C   UNL     1       0.286  -3.261   1.612  0.00  0.00    +0.084 C 
ATOM     35  C   UNL     1       0.134  -2.073   0.698  0.00  0.00    +0.085 A 
ATOM     36  N   UNL     1       0.176  -2.122  -0.602  0.00  0.00    -0.343 N 
ATOM     37  C   UNL     1       0.005  -0.875  -1.112  0.00  0.00    +0.064 A 
ATOM     38  C   UNL     1      -0.036  -0.363  -2.411  0.00  0.00    +0.028 A 
ATOM     39  C   UNL     1      -0.229   0.975  -2.610  0.00  0.00    +0.002 A 
ATOM     40  C   UNL     1      -0.386   1.835  -1.532  0.00  0.00    +0.002 A 
ATOM     41  C   UNL     1      -0.350   1.352  -0.241  0.00  0.00    +0.028 A 
ATOM     42  C   UNL     1      -0.154  -0.005  -0.020  0.00  0.00    +0.067 A 
ATOM     43  N   UNL     1      -0.074  -0.793   1.110  0.00  0.00    -0.326 N 
ATOM     44  H   UNL     1       0.310  -2.927  -1.126  0.00  0.00    +0.167 HD
ENDBRANCH  27  43
ENDBRANCH  26  30
ENDBRANCH   1  26
TORSDOF 5
