REMARK  Name = CHEMBL367601
REMARK  7 active torsions:
REMARK  status: ('A' for Active; 'I' for Inactive)
REMARK    1  A    between atoms: C_1  and  C_2
REMARK    2  A    between atoms: C_9  and  C_11
REMARK    3  A    between atoms: N_14  and  C_17
REMARK    4  A    between atoms: C_17  and  C_18
REMARK    5  A    between atoms: C_21  and  C_24
REMARK    6  A    between atoms: C_25  and  C_35
REMARK    7  A    between atoms: C_27  and  C_30
REMARK                            x       y       z     vdW  Elec       q    Type
REMARK                         _______ _______ _______ _____ _____    ______ ____
ROOT
ATOM      1  C   UNL     1       2.271  -8.595   5.834  0.00  0.00    -0.064 A 
ATOM      2  C   UNL     1       3.129  -9.320   5.026  0.00  0.00    +0.002 A 
ATOM      3  C   UNL     1       4.434  -9.537   5.419  0.00  0.00    +0.010 A 
ATOM      4  C   UNL     1       4.888  -9.022   6.633  0.00  0.00    +0.001 A 
ATOM      5  C   UNL     1       4.018  -8.292   7.444  0.00  0.00    +0.010 A 
ATOM      6  C   UNL     1       2.717  -8.078   7.037  0.00  0.00    +0.002 A 
ENDROOT
BRANCH   4   7
ATOM      7  C   UNL     1       6.287  -9.251   7.061  0.00  0.00    +0.079 A 
ATOM      8  C   UNL     1       6.965  -8.255   7.784  0.00  0.00    +0.009 A 
ATOM      9  C   UNL     1       8.280  -8.486   8.180  0.00  0.00    +0.023 A 
ATOM     10  C   UNL     1       8.870  -9.706   7.838  0.00  0.00    +0.041 A 
ATOM     11  C   UNL     1       8.128 -10.644   7.118  0.00  0.00    +0.123 A 
ATOM     12  N   UNL     1       6.886 -10.397   6.764  0.00  0.00    -0.254 NA
BRANCH   8  13
ATOM     13  C   UNL     1       6.291  -6.978   8.120  0.00  0.00    -0.016 A 
ATOM     14  C   UNL     1       5.629  -6.254   7.129  0.00  0.00    +0.008 A 
ATOM     15  C   UNL     1       5.003  -5.066   7.447  0.00  0.00    +0.001 A 
ATOM     16  C   UNL     1       5.032  -4.593   8.746  0.00  0.00    +0.000 A 
ATOM     17  C   UNL     1       5.687  -5.306   9.734  0.00  0.00    +0.001 A 
ATOM     18  C   UNL     1       6.312  -6.498   9.428  0.00  0.00    +0.008 A 
ENDBRANCH   8  13
BRANCH  10  19
ATOM     19  C   UNL     1      10.265 -10.000   8.234  0.00  0.00    +0.208 A 
ATOM     20  N   UNL     1      10.950 -11.116   7.977  0.00  0.00    -0.106 NA
ATOM     21  N   UNL     1      12.124 -10.977   8.490  0.00  0.00    -0.021 NA
ATOM     22  N   UNL     1      12.206  -9.824   9.057  0.00  0.00    -0.021 NA
ATOM     23  N   UNL     1      11.088  -9.199   8.914  0.00  0.00    -0.106 NA
ENDBRANCH  10  19
ENDBRANCH   4   7
BRANCH   1  24
ATOM     24  C   UNL     1       0.847  -8.363   5.398  0.00  0.00    -0.043 C 
BRANCH  24  28
ATOM     25  C   UNL     1       0.090  -5.594   2.249  0.00  0.00    +0.052 C 
ATOM     26  C   UNL     1      -0.724  -5.503   3.543  0.00  0.00    -0.008 C 
ATOM     27  C   UNL     1      -0.631  -6.835   4.292  0.00  0.00    -0.078 C 
ATOM     28  N   UNL     1       0.771  -7.124   4.613  0.00  0.00    +0.382 N 
ATOM     29  C   UNL     1       1.544  -7.282   3.375  0.00  0.00    -0.078 C 
ATOM     30  C   UNL     1       1.535  -5.968   2.592  0.00  0.00    -0.008 C 
ATOM     31  H   UNL     1       1.155  -6.362   5.152  0.00  0.00    -0.081 HD
BRANCH  25  40
ATOM     32  C   UNL     1      -0.018   1.503   0.010  0.00  0.00    +0.044 C 
ATOM     33  C   UNL     1       0.002  -0.004   0.002  0.00  0.00    -0.048 A 
ATOM     34  C   UNL     1       0.006  -0.687  -1.206  0.00  0.00    +0.005 A 
ATOM     35  C   UNL     1       0.024  -2.052  -1.235  0.00  0.00    +0.030 A 
ATOM     36  C   UNL     1       0.040  -2.774  -0.039  0.00  0.00    +0.089 A 
ATOM     37  C   UNL     1       0.037  -2.083   1.185  0.00  0.00    +0.066 A 
ATOM     38  C   UNL     1       0.023  -0.695   1.195  0.00  0.00    +0.031 A 
ATOM     39  N   UNL     1       0.055  -3.051   2.169  0.00  0.00    -0.342 N 
ATOM     40  C   UNL     1       0.068  -4.261   1.546  0.00  0.00    +0.111 A 
ATOM     41  N   UNL     1       0.059  -4.099   0.255  0.00  0.00    -0.232 NA
ATOM     42  H   UNL     1       0.058  -2.898   3.127  0.00  0.00    +0.167 HD
ENDBRANCH  25  40
ENDBRANCH  24  28
ENDBRANCH   1  24
TORSDOF 6
