REMARK  Name = CHEMBL446966
REMARK  8 active torsions:
REMARK  status: ('A' for Active; 'I' for Inactive)
REMARK    1  A    between atoms: C_1  and  O_2
REMARK    2  A    between atoms: O_2  and  C_3
REMARK    3  A    between atoms: C_6  and  C_9
REMARK    4  A    between atoms: C_12  and  C_15
REMARK    5  A    between atoms: N_18  and  C_21
REMARK    6  A    between atoms: C_21  and  C_22
REMARK    7  A    between atoms: C_25  and  C_28
REMARK    8  A    between atoms: C_29  and  C_40
REMARK                            x       y       z     vdW  Elec       q    Type
REMARK                         _______ _______ _______ _____ _____    ______ ____
ROOT
ATOM      1  C   UNL     1     -13.248  -3.134  -2.025  0.00  0.00    -0.064 A 
ATOM      2  C   UNL     1     -13.289  -2.043  -2.875  0.00  0.00    +0.002 A 
ATOM      3  C   UNL     1     -13.737  -2.192  -4.172  0.00  0.00    +0.010 A 
ATOM      4  C   UNL     1     -14.149  -3.445  -4.624  0.00  0.00    +0.001 A 
ATOM      5  C   UNL     1     -14.106  -4.541  -3.763  0.00  0.00    +0.010 A 
ATOM      6  C   UNL     1     -13.650  -4.381  -2.470  0.00  0.00    +0.002 A 
ENDROOT
BRANCH   4   7
ATOM      7  C   UNL     1     -14.632  -3.612  -6.015  0.00  0.00    +0.079 A 
ATOM      8  C   UNL     1     -14.358  -4.811  -6.703  0.00  0.00    +0.009 A 
ATOM      9  C   UNL     1     -14.812  -4.967  -8.009  0.00  0.00    +0.026 A 
ATOM     10  C   UNL     1     -15.526  -3.914  -8.584  0.00  0.00    +0.065 A 
ATOM     11  C   UNL     1     -15.763  -2.738  -7.832  0.00  0.00    +0.078 A 
ATOM     12  N   UNL     1     -15.316  -2.634  -6.586  0.00  0.00    -0.246 NA
ATOM     13  C   UNL     1     -16.515  -1.655  -8.469  0.00  0.00    +0.046 A 
ATOM     14  C   UNL     1     -16.953  -1.805  -9.730  0.00  0.00    +0.088 A 
ATOM     15  N   UNL     1     -16.725  -2.937 -10.456  0.00  0.00    -0.328 N 
ATOM     16  H   UNL     1     -17.065  -2.989 -11.363  0.00  0.00    +0.168 HD
ATOM     17  C   UNL     1     -16.043  -3.986  -9.954  0.00  0.00    +0.258 A 
ATOM     18  O   UNL     1     -15.859  -4.981 -10.631  0.00  0.00    -0.267 OA
BRANCH   8  19
ATOM     19  C   UNL     1     -13.595  -5.896  -6.042  0.00  0.00    -0.016 A 
ATOM     20  C   UNL     1     -12.389  -5.612  -5.401  0.00  0.00    +0.008 A 
ATOM     21  C   UNL     1     -11.682  -6.626  -4.787  0.00  0.00    +0.001 A 
ATOM     22  C   UNL     1     -12.168  -7.922  -4.807  0.00  0.00    +0.000 A 
ATOM     23  C   UNL     1     -13.363  -8.209  -5.441  0.00  0.00    +0.001 A 
ATOM     24  C   UNL     1     -14.082  -7.202  -6.053  0.00  0.00    +0.008 A 
ENDBRANCH   8  19
ENDBRANCH   4   7
BRANCH   1  25
ATOM     25  C   UNL     1     -12.757  -2.965  -0.610  0.00  0.00    -0.043 C 
BRANCH  25  29
ATOM     26  C   UNL     1      -8.589  -2.389   0.061  0.00  0.00    +0.053 C 
ATOM     27  C   UNL     1      -9.347  -3.434   0.885  0.00  0.00    -0.008 C 
ATOM     28  C   UNL     1     -10.846  -3.131   0.827  0.00  0.00    -0.078 C 
ATOM     29  N   UNL     1     -11.305  -3.178  -0.567  0.00  0.00    +0.382 N 
ATOM     30  C   UNL     1     -10.634  -2.131  -1.347  0.00  0.00    -0.078 C 
ATOM     31  C   UNL     1      -9.127  -2.395  -1.372  0.00  0.00    -0.008 C 
ATOM     32  H   UNL     1     -11.088  -4.081  -0.961  0.00  0.00    -0.081 HD
BRANCH  26  36
ATOM     33  C   UNL     1      -4.965  -2.513   0.035  0.00  0.00    +0.183 A 
ATOM     34  N   UNL     1      -6.138  -1.864   0.044  0.00  0.00    -0.211 NA
ATOM     35  H   UNL     1      -7.085  -4.801   0.047  0.00  0.00    +0.190 HD
ATOM     36  C   UNL     1      -7.120  -2.725   0.050  0.00  0.00    +0.128 A 
ATOM     37  N   UNL     1      -6.596  -3.964   0.044  0.00  0.00    -0.262 N 
ATOM     38  N   UNL     1      -5.200  -3.807   0.029  0.00  0.00    -0.152 NA
BRANCH  33  42
ATOM     39  C   UNL     1      -1.198  -0.636   0.010  0.00  0.00    +0.214 A 
ATOM     40  C   UNL     1      -1.241  -2.026   0.009  0.00  0.00    +0.068 A 
ATOM     41  C   UNL     1      -2.467  -2.663   0.017  0.00  0.00    +0.018 A 
ATOM     42  C   UNL     1      -3.625  -1.877   0.026  0.00  0.00    +0.039 A 
ATOM     43  C   UNL     1      -3.501  -0.491   0.027  0.00  0.00    +0.126 A 
ATOM     44  N   UNL     1      -2.312   0.078   0.025  0.00  0.00    -0.221 NA
BRANCH  39  46
ATOM     45  C   UNL     1      -0.017   1.425   0.010  0.00  0.00    +0.279 C 
ATOM     46  O   UNL     1       0.002  -0.004   0.002  0.00  0.00    -0.480 OA
ENDBRANCH  39  46
ENDBRANCH  33  42
ENDBRANCH  26  36
ENDBRANCH  25  29
ENDBRANCH   1  25
TORSDOF 7
