REMARK  Name = CHEMBL446134
REMARK  6 active torsions:
REMARK  status: ('A' for Active; 'I' for Inactive)
REMARK    1  A    between atoms: C_4  and  C_7
REMARK    2  A    between atoms: C_12  and  C_13
REMARK    3  A    between atoms: C_16  and  C_19
REMARK    4  A    between atoms: C_19  and  N_20
REMARK    5  A    between atoms: C_23  and  C_26
REMARK    6  A    between atoms: C_29  and  C_32
REMARK                            x       y       z     vdW  Elec       q    Type
REMARK                         _______ _______ _______ _____ _____    ______ ____
ROOT
ATOM      1  C   UNL     1       2.917  -2.088   1.871  0.00  0.00    +0.001 A 
ATOM      2  C   UNL     1       2.086  -1.108   2.413  0.00  0.00    +0.010 A 
ATOM      3  C   UNL     1       1.121  -1.457   3.336  0.00  0.00    +0.002 A 
ATOM      4  C   UNL     1       0.979  -2.777   3.725  0.00  0.00    -0.064 A 
ATOM      5  C   UNL     1       1.800  -3.754   3.191  0.00  0.00    +0.002 A 
ATOM      6  C   UNL     1       2.764  -3.418   2.263  0.00  0.00    +0.010 A 
ENDROOT
BRANCH   1  12
ATOM      7  C   UNL     1       3.698  -0.688  -0.038  0.00  0.00    +0.009 A 
ATOM      8  C   UNL     1       4.686  -0.349  -0.963  0.00  0.00    +0.025 A 
ATOM      9  C   UNL     1       5.884  -1.061  -0.931  0.00  0.00    +0.059 A 
ATOM     10  C   UNL     1       6.063  -2.079   0.013  0.00  0.00    +0.056 A 
ATOM     11  N   UNL     1       5.109  -2.372   0.869  0.00  0.00    -0.250 NA
ATOM     12  C   UNL     1       3.954  -1.720   0.880  0.00  0.00    +0.079 A 
ATOM     13  C   UNL     1       7.368  -2.833   0.031  0.00  0.00    +0.075 C 
ATOM     14  C   UNL     1       7.909  -2.971  -1.391  0.00  0.00    +0.110 C 
ATOM     15  N   UNL     1       7.951  -1.676  -2.064  0.00  0.00    -0.311 N 
ATOM     16  C   UNL     1       6.977  -0.763  -1.878  0.00  0.00    +0.246 C 
ATOM     17  O   UNL     1       6.998   0.292  -2.482  0.00  0.00    -0.270 OA
ATOM     18  H   UNL     1       8.692  -1.470  -2.656  0.00  0.00    +0.149 HD
BRANCH   7  22
ATOM     19  C   UNL     1      -0.017   1.379   0.010  0.00  0.00    +0.000 A 
ATOM     20  C   UNL     1       1.169   2.092   0.002  0.00  0.00    +0.001 A 
ATOM     21  C   UNL     1       2.377   1.427  -0.013  0.00  0.00    +0.008 A 
ATOM     22  C   UNL     1       2.402   0.033  -0.021  0.00  0.00    -0.016 A 
ATOM     23  C   UNL     1       1.205  -0.680  -0.013  0.00  0.00    +0.008 A 
ATOM     24  C   UNL     1       0.002  -0.004   0.002  0.00  0.00    +0.001 A 
ENDBRANCH   7  22
ENDBRANCH   1  12
BRANCH   4  25
ATOM     25  C   UNL     1      -0.076  -3.152   4.734  0.00  0.00    -0.043 C 
BRANCH  25  26
ATOM     26  N   UNL     1      -1.327  -3.478   4.037  0.00  0.00    +0.382 N 
ATOM     27  C   UNL     1      -1.835  -2.278   3.360  0.00  0.00    -0.078 C 
ATOM     28  C   UNL     1      -3.094  -2.631   2.566  0.00  0.00    -0.007 C 
ATOM     29  C   UNL     1      -4.161  -3.168   3.524  0.00  0.00    +0.055 C 
ATOM     30  C   UNL     1      -3.595  -4.374   4.279  0.00  0.00    -0.007 C 
ATOM     31  C   UNL     1      -2.317  -3.957   5.009  0.00  0.00    -0.078 C 
ATOM     32  H   UNL     1      -1.152  -4.199   3.353  0.00  0.00    -0.081 HD
BRANCH  29  33
ATOM     33  C   UNL     1      -5.377  -3.590   2.739  0.00  0.00    +0.154 A 
ATOM     34  N   UNL     1      -6.599  -3.090   2.885  0.00  0.00    -0.210 NA
ATOM     35  H   UNL     1      -7.052  -5.174   0.640  0.00  0.00    +0.191 HD
ATOM     36  C   UNL     1      -7.425  -3.679   2.044  0.00  0.00    +0.175 A 
ATOM     37  N   UNL     1      -6.716  -4.586   1.335  0.00  0.00    -0.257 N 
ATOM     38  N   UNL     1      -5.394  -4.503   1.802  0.00  0.00    -0.157 NA
BRANCH  36  39
ATOM     39  C   UNL     1      -8.872  -3.400   1.903  0.00  0.00    +0.107 A 
ATOM     40  C   UNL     1      -9.470  -2.428   2.704  0.00  0.00    +0.031 A 
ATOM     41  C   UNL     1     -10.823  -2.177   2.559  0.00  0.00    +0.004 A 
ATOM     42  C   UNL     1     -11.536  -2.907   1.618  0.00  0.00    +0.020 A 
ATOM     43  C   UNL     1     -10.878  -3.856   0.856  0.00  0.00    +0.111 A 
ATOM     44  N   UNL     1      -9.588  -4.072   1.010  0.00  0.00    -0.252 NA
ENDBRANCH  36  39
ENDBRANCH  29  33
ENDBRANCH  25  26
ENDBRANCH   4  25
TORSDOF 6
