REMARK  Name = CHEMBL590957
REMARK  3 active torsions:
REMARK  status: ('A' for Active; 'I' for Inactive)
REMARK    1  A    between atoms: C_3  and  C_9
REMARK    2  A    between atoms: C_9  and  C_10
REMARK    3  A    between atoms: C_10  and  N_27
REMARK                            x       y       z     vdW  Elec       q    Type
REMARK                         _______ _______ _______ _____ _____    ______ ____
ROOT
ATOM      1  C   UNL     1       4.163   2.222   1.425  0.00  0.00    -0.064 C 
ATOM      2  C   UNL     1       3.124   2.955   2.277  0.00  0.00    +0.006 C 
ATOM      3  C   UNL     1       2.934   4.375   1.734  0.00  0.00    +0.105 C 
ATOM      4  N   UNL     1       4.244   5.038   1.677  0.00  0.00    -0.314 N 
ATOM      5  C   UNL     1       5.341   4.375   0.959  0.00  0.00    +0.105 C 
ATOM      6  C   UNL     1       5.504   2.955   1.510  0.00  0.00    +0.006 C 
ATOM      7  C   UNL     1       4.441   6.267   2.289  0.00  0.00    +0.150 A 
ATOM      8  C   UNL     1       4.215   7.453   1.593  0.00  0.00    +0.128 A 
ATOM      9  C   UNL     1       4.428   8.674   2.255  0.00  0.00    +0.186 A 
ATOM     10  N   UNL     1       4.144   9.654   1.378  0.00  0.00    -0.172 NA
ATOM     11  H   UNL     1       3.573   7.151  -0.394  0.00  0.00    +0.171 HD
ATOM     12  C   UNL     1       3.775   9.134   0.233  0.00  0.00    +0.348 A 
ATOM     13  O   UNL     1       3.420   9.841  -0.864  0.00  0.00    -0.245 OA
ATOM     14  N   UNL     1       3.801   7.775   0.313  0.00  0.00    -0.300 N 
ATOM     15  N   UNL     1       4.839   8.650   3.527  0.00  0.00    -0.214 NA
ATOM     16  C   UNL     1       5.039   7.505   4.144  0.00  0.00    +0.225 A 
ATOM     17  N   UNL     1       4.845   6.339   3.555  0.00  0.00    -0.219 NA
ENDROOT
BRANCH   1  18
ATOM     18  N   UNL     1       4.323   0.850   1.922  0.00  0.00    +0.382 N 
ATOM     19  H   UNL     1       5.007   0.366   1.360  0.00  0.00    -0.089 HD
ATOM     20  H   UNL     1       4.632   0.873   2.882  0.00  0.00    -0.089 HD
ATOM     21  H   UNL     1       3.439   0.366   1.866  0.00  0.00    -0.089 HD
ENDBRANCH   1  18
BRANCH   1  22
ATOM     22  C   UNL     1       3.694   2.186  -0.031  0.00  0.00    +0.024 C 
BRANCH  22  25
ATOM     23  C   UNL     1      -0.015   1.523  -0.281  0.00  0.00    +0.020 A 
ATOM     24  C   UNL     1       1.197   2.184  -0.202  0.00  0.00    +0.006 A 
ATOM     25  C   UNL     1       2.373   1.464  -0.115  0.00  0.00    -0.030 A 
ATOM     26  C   UNL     1       2.339   0.081  -0.106  0.00  0.00    +0.045 A 
ATOM     27  C   UNL     1       1.127  -0.581  -0.184  0.00  0.00    +0.040 A 
ATOM     28  C   UNL     1      -0.050   0.141  -0.272  0.00  0.00    +0.042 A 
ATOM     29 CL   UNL     1      -1.572  -0.690  -0.369  0.00  0.00    -0.083 Cl
ATOM     30 CL   UNL     1       3.817  -0.823   0.003  0.00  0.00    -0.083 Cl
ENDBRANCH  22  25
ENDBRANCH   1  22
TORSDOF 3
