REMARK  Name = CHEMBL598842
REMARK  4 active torsions:
REMARK  status: ('A' for Active; 'I' for Inactive)
REMARK    1  A    between atoms: C_6  and  C_7
REMARK    2  A    between atoms: C_7  and  N_8
REMARK    3  A    between atoms: C_9  and  C_11
REMARK    4  A    between atoms: C_11  and  N_27
REMARK                            x       y       z     vdW  Elec       q    Type
REMARK                         _______ _______ _______ _____ _____    ______ ____
ROOT
ATOM      1  C   UNL     1      -3.310  -2.033  -3.006  0.00  0.00    +0.010 C 
ATOM      2  C   UNL     1      -4.175  -0.905  -3.573  0.00  0.00    +0.015 C 
ATOM      3  C   UNL     1      -5.387  -0.689  -2.661  0.00  0.00    +0.105 C 
ATOM      4  N   UNL     1      -6.092  -1.967  -2.500  0.00  0.00    -0.313 N 
ATOM      5  C   UNL     1      -5.333  -3.140  -2.046  0.00  0.00    +0.105 C 
ATOM      6  C   UNL     1      -4.122  -3.330  -2.965  0.00  0.00    +0.015 C 
ATOM      7  C   UNL     1      -7.448  -2.065  -2.770  0.00  0.00    +0.150 A 
ATOM      8  C   UNL     1      -8.392  -1.833  -1.771  0.00  0.00    +0.128 A 
ATOM      9  C   UNL     1      -9.755  -1.944  -2.093  0.00  0.00    +0.186 A 
ATOM     10  N   UNL     1     -10.450  -1.676  -0.971  0.00  0.00    -0.172 NA
ATOM     11  C   UNL     1      -9.623  -1.411   0.011  0.00  0.00    +0.348 A 
ATOM     12  O   UNL     1      -9.992  -1.100   1.274  0.00  0.00    -0.245 OA
ATOM     13  N   UNL     1      -8.338  -1.494  -0.431  0.00  0.00    -0.300 N 
ATOM     14  N   UNL     1     -10.093  -2.267  -3.346  0.00  0.00    -0.214 NA
ATOM     15  C   UNL     1      -9.167  -2.476  -4.256  0.00  0.00    +0.225 A 
ATOM     16  N   UNL     1      -7.878  -2.377  -3.991  0.00  0.00    -0.219 NA
ATOM     17  H   UNL     1      -7.536  -1.345   0.094  0.00  0.00    +0.171 HD
ENDROOT
BRANCH   1  19
ATOM     18  N   UNL     1      -1.819  -0.847  -1.428  0.00  0.00    -0.312 N 
ATOM     19  C   UNL     1      -2.868  -1.673  -1.611  0.00  0.00    +0.202 C 
ATOM     20  O   UNL     1      -3.456  -2.127  -0.652  0.00  0.00    -0.277 OA
ATOM     21  H   UNL     1      -1.349  -0.483  -2.195  0.00  0.00    +0.149 HD
BRANCH  18  22
ATOM     22  C   UNL     1      -1.389  -0.497  -0.072  0.00  0.00    +0.139 C 
BRANCH  22  28
ATOM     23  C   UNL     1      -0.403   1.801  -0.186  0.00  0.00    +0.006 A 
ATOM     24  C   UNL     1       0.682   2.654  -0.252  0.00  0.00    +0.020 A 
ATOM     25  C   UNL     1       1.966   2.140  -0.277  0.00  0.00    +0.041 A 
ATOM     26  C   UNL     1       2.163   0.771  -0.235  0.00  0.00    +0.020 A 
ATOM     27  C   UNL     1       1.077  -0.082  -0.169  0.00  0.00    +0.006 A 
ATOM     28  C   UNL     1      -0.205   0.433  -0.145  0.00  0.00    -0.030 A 
ATOM     29 CL   UNL     1       3.330   3.211  -0.360  0.00  0.00    -0.084 Cl
ENDBRANCH  22  28
ENDBRANCH  18  22
ENDBRANCH   1  19
BRANCH   1  30
ATOM     30  N   UNL     1      -2.130  -2.221  -3.860  0.00  0.00    +0.388 N 
ATOM     31  H   UNL     1      -1.559  -2.964  -3.486  0.00  0.00    -0.089 HD
ATOM     32  H   UNL     1      -2.426  -2.462  -4.794  0.00  0.00    -0.089 HD
ATOM     33  H   UNL     1      -1.594  -1.366  -3.887  0.00  0.00    -0.089 HD
ENDBRANCH   1  30
TORSDOF 4
