REMARK  Name = CHEMBL596991
REMARK  4 active torsions:
REMARK  status: ('A' for Active; 'I' for Inactive)
REMARK    1  A    between atoms: C_6  and  C_7
REMARK    2  A    between atoms: C_7  and  C_8
REMARK    3  A    between atoms: C_8  and  N_24
REMARK    4  A    between atoms: N_11  and  C_14
REMARK                            x       y       z     vdW  Elec       q    Type
REMARK                         _______ _______ _______ _____ _____    ______ ____
ROOT
ATOM      1  C   UNL     1      -1.745  -1.028  -1.429  0.00  0.00    -0.064 C 
ATOM      2  C   UNL     1      -1.952   0.310  -2.141  0.00  0.00    +0.006 C 
ATOM      3  C   UNL     1      -2.998   1.132  -1.383  0.00  0.00    +0.104 C 
ATOM      4  N   UNL     1      -4.220   0.329  -1.243  0.00  0.00    -0.329 N 
ATOM      5  C   UNL     1      -4.120  -1.013  -0.653  0.00  0.00    +0.104 C 
ATOM      6  C   UNL     1      -3.060  -1.811  -1.420  0.00  0.00    +0.006 C 
ENDROOT
BRANCH   4   7
ATOM      7  C   UNL     1      -5.448   0.828  -1.661  0.00  0.00    +0.042 A 
ATOM      8  C   UNL     1      -5.904   0.619  -2.958  0.00  0.00    +0.043 A 
ATOM      9  C   UNL     1      -7.132   1.132  -3.336  0.00  0.00    +0.115 A 
ATOM     10  N   UNL     1      -7.882   1.817  -2.497  0.00  0.00    -0.237 NA
ATOM     11  C   UNL     1      -7.502   2.050  -1.246  0.00  0.00    +0.140 A 
ATOM     12  C   UNL     1      -6.270   1.555  -0.785  0.00  0.00    +0.040 A 
ATOM     13  C   UNL     1      -6.157   1.972   0.613  0.00  0.00    +0.031 A 
ATOM     14  C   UNL     1      -7.274   2.655   0.907  0.00  0.00    +0.085 A 
ATOM     15  N   UNL     1      -8.084   2.719  -0.197  0.00  0.00    -0.346 N 
ATOM     16  H   UNL     1      -8.947   3.161  -0.229  0.00  0.00    +0.167 HD
ENDBRANCH   4   7
BRANCH   1  17
ATOM     17  N   UNL     1      -0.718  -1.805  -2.135  0.00  0.00    +0.382 N 
ATOM     18  H   UNL     1      -0.581  -2.688  -1.665  0.00  0.00    -0.089 HD
ATOM     19  H   UNL     1      -1.016  -1.972  -3.085  0.00  0.00    -0.089 HD
ATOM     20  H   UNL     1       0.149  -1.289  -2.141  0.00  0.00    -0.089 HD
ENDBRANCH   1  17
BRANCH   1  21
ATOM     21  C   UNL     1      -1.293  -0.775   0.011  0.00  0.00    +0.022 C 
BRANCH  21  27
ATOM     22  C   UNL     1      -0.017   1.378   0.010  0.00  0.00    +0.005 A 
ATOM     23  C   UNL     1       1.171   2.086   0.002  0.00  0.00    +0.020 A 
ATOM     24  C   UNL     1       2.378   1.410  -0.013  0.00  0.00    +0.041 A 
ATOM     25  C   UNL     1       2.396   0.027  -0.021  0.00  0.00    +0.020 A 
ATOM     26  C   UNL     1       1.208  -0.679  -0.013  0.00  0.00    +0.005 A 
ATOM     27  C   UNL     1       0.002  -0.004   0.002  0.00  0.00    -0.049 A 
ATOM     28 CL   UNL     1       3.870   2.298  -0.023  0.00  0.00    -0.084 Cl
ENDBRANCH  21  27
ENDBRANCH   1  21
TORSDOF 4
