REMARK  Name = CHEMBL259753
REMARK  6 active torsions:
REMARK  status: ('A' for Active; 'I' for Inactive)
REMARK    1  A    between atoms: C_4  and  C_7
REMARK    2  A    between atoms: C_16  and  C_17
REMARK    3  A    between atoms: C_20  and  C_23
REMARK    4  A    between atoms: C_23  and  N_24
REMARK    5  A    between atoms: C_27  and  C_30
REMARK    6  A    between atoms: C_32  and  C_36
REMARK                            x       y       z     vdW  Elec       q    Type
REMARK                         _______ _______ _______ _____ _____    ______ ____
ROOT
ATOM      1  C   UNL     1       2.905  -2.085   1.878  0.00  0.00    +0.001 A 
ATOM      2  C   UNL     1       2.077  -1.098   2.412  0.00  0.00    +0.010 A 
ATOM      3  C   UNL     1       1.107  -1.439   3.333  0.00  0.00    +0.002 A 
ATOM      4  C   UNL     1       0.955  -2.756   3.725  0.00  0.00    -0.064 A 
ATOM      5  C   UNL     1       1.773  -3.740   3.199  0.00  0.00    +0.002 A 
ATOM      6  C   UNL     1       2.742  -3.412   2.273  0.00  0.00    +0.010 A 
ENDROOT
BRANCH   1  16
ATOM      7  C   UNL     1       3.698  -0.688  -0.038  0.00  0.00    +0.010 A 
ATOM      8  C   UNL     1       4.674  -0.346  -0.959  0.00  0.00    +0.040 A 
ATOM      9  C   UNL     1       5.888  -1.059  -0.936  0.00  0.00    +0.090 A 
ATOM     10  C   UNL     1       6.062  -2.090   0.021  0.00  0.00    +0.090 A 
ATOM     11  C   UNL     1       7.281  -2.798   0.036  0.00  0.00    +0.031 A 
ATOM     12  C   UNL     1       8.240  -2.457  -0.874  0.00  0.00    +0.022 A 
ATOM     13  C   UNL     1       8.000  -1.431  -1.787  0.00  0.00    +0.111 A 
ATOM     14  N   UNL     1       6.866  -0.774  -1.801  0.00  0.00    -0.253 NA
ATOM     15  N   UNL     1       5.091  -2.382   0.887  0.00  0.00    -0.245 NA
ATOM     16  C   UNL     1       3.948  -1.725   0.889  0.00  0.00    +0.079 A 
BRANCH   7  20
ATOM     17  C   UNL     1      -0.017   1.379   0.010  0.00  0.00    +0.000 A 
ATOM     18  C   UNL     1       1.169   2.092   0.002  0.00  0.00    +0.001 A 
ATOM     19  C   UNL     1       2.377   1.427  -0.013  0.00  0.00    +0.008 A 
ATOM     20  C   UNL     1       2.403   0.033  -0.021  0.00  0.00    -0.016 A 
ATOM     21  C   UNL     1       1.205  -0.680  -0.013  0.00  0.00    +0.008 A 
ATOM     22  C   UNL     1       0.002  -0.004   0.002  0.00  0.00    +0.001 A 
ENDBRANCH   7  20
ENDBRANCH   1  16
BRANCH   4  23
ATOM     23  C   UNL     1      -0.106  -3.122   4.731  0.00  0.00    -0.043 C 
BRANCH  23  24
ATOM     24  N   UNL     1      -1.356  -3.442   4.030  0.00  0.00    +0.382 N 
ATOM     25  C   UNL     1      -1.854  -2.242   3.347  0.00  0.00    -0.078 C 
ATOM     26  C   UNL     1      -3.112  -2.590   2.549  0.00  0.00    -0.007 C 
ATOM     27  C   UNL     1      -4.187  -3.118   3.504  0.00  0.00    +0.055 C 
ATOM     28  C   UNL     1      -3.630  -4.325   4.265  0.00  0.00    -0.007 C 
ATOM     29  C   UNL     1      -2.353  -3.913   5.000  0.00  0.00    -0.078 C 
ATOM     30  H   UNL     1      -1.183  -4.167   3.349  0.00  0.00    -0.081 HD
BRANCH  27  31
ATOM     31  C   UNL     1      -5.401  -3.536   2.715  0.00  0.00    +0.154 A 
ATOM     32  N   UNL     1      -6.620  -3.025   2.851  0.00  0.00    -0.210 NA
ATOM     33  C   UNL     1      -7.446  -3.613   2.010  0.00  0.00    +0.175 A 
ATOM     34  N   UNL     1      -6.741  -4.531   1.311  0.00  0.00    -0.257 N 
ATOM     35  H   UNL     1      -7.078  -5.121   0.619  0.00  0.00    +0.191 HD
ATOM     36  N   UNL     1      -5.421  -4.455   1.784  0.00  0.00    -0.157 NA
BRANCH  33  37
ATOM     37  C   UNL     1      -8.890  -3.322   1.858  0.00  0.00    +0.107 A 
ATOM     38  C   UNL     1      -9.484  -2.340   2.649  0.00  0.00    +0.031 A 
ATOM     39  C   UNL     1     -10.835  -2.079   2.495  0.00  0.00    +0.004 A 
ATOM     40  C   UNL     1     -11.547  -2.809   1.555  0.00  0.00    +0.020 A 
ATOM     41  C   UNL     1     -10.894  -3.770   0.804  0.00  0.00    +0.111 A 
ATOM     42  N   UNL     1      -9.607  -3.995   0.966  0.00  0.00    -0.252 NA
ENDBRANCH  33  37
ENDBRANCH  27  31
ENDBRANCH  23  24
ENDBRANCH   4  23
TORSDOF 6
