REMARK  Name = CHEMBL446966
REMARK  8 active torsions:
REMARK  status: ('A' for Active; 'I' for Inactive)
REMARK    1  A    between atoms: C_1  and  O_2
REMARK    2  A    between atoms: O_2  and  C_3
REMARK    3  A    between atoms: C_6  and  C_9
REMARK    4  A    between atoms: C_12  and  C_15
REMARK    5  A    between atoms: N_18  and  C_21
REMARK    6  A    between atoms: C_21  and  C_22
REMARK    7  A    between atoms: C_25  and  C_28
REMARK    8  A    between atoms: C_29  and  C_40
REMARK                            x       y       z     vdW  Elec       q    Type
REMARK                         _______ _______ _______ _____ _____    ______ ____
ROOT
ATOM      1  C   UNL     1       7.695  -3.551 -11.134  0.00  0.00    -0.064 A 
ATOM      2  C   UNL     1       8.811  -2.899 -10.640  0.00  0.00    +0.002 A 
ATOM      3  C   UNL     1      10.031  -3.543 -10.605  0.00  0.00    +0.010 A 
ATOM      4  C   UNL     1      10.138  -4.854 -11.070  0.00  0.00    +0.001 A 
ATOM      5  C   UNL     1       9.009  -5.506 -11.566  0.00  0.00    +0.010 A 
ATOM      6  C   UNL     1       7.794  -4.853 -11.591  0.00  0.00    +0.002 A 
ENDROOT
BRANCH   4   7
ATOM      7  C   UNL     1      11.444  -5.551 -11.036  0.00  0.00    +0.079 A 
ATOM      8  C   UNL     1      11.483  -6.936 -10.780  0.00  0.00    +0.009 A 
ATOM      9  C   UNL     1      12.711  -7.590 -10.749  0.00  0.00    +0.026 A 
ATOM     10  C   UNL     1      13.862  -6.833 -10.974  0.00  0.00    +0.065 A 
ATOM     11  C   UNL     1      13.746  -5.444 -11.225  0.00  0.00    +0.078 A 
ATOM     12  N   UNL     1      12.553  -4.862 -11.251  0.00  0.00    -0.246 NA
ATOM     13  C   UNL     1      14.975  -4.683 -11.457  0.00  0.00    +0.046 A 
ATOM     14  C   UNL     1      16.161  -5.314 -11.426  0.00  0.00    +0.088 A 
ATOM     15  N   UNL     1      16.274  -6.651 -11.185  0.00  0.00    -0.328 N 
ATOM     16  H   UNL     1      17.157  -7.053 -11.174  0.00  0.00    +0.168 HD
ATOM     17  C   UNL     1      15.199  -7.433 -10.960  0.00  0.00    +0.258 A 
ATOM     18  O   UNL     1      15.338  -8.624 -10.748  0.00  0.00    -0.267 OA
BRANCH   8  19
ATOM     19  C   UNL     1      10.228  -7.689 -10.547  0.00  0.00    -0.016 A 
ATOM     20  C   UNL     1       9.291  -7.220  -9.627  0.00  0.00    +0.008 A 
ATOM     21  C   UNL     1       8.124  -7.926  -9.414  0.00  0.00    +0.001 A 
ATOM     22  C   UNL     1       7.883  -9.096 -10.111  0.00  0.00    +0.000 A 
ATOM     23  C   UNL     1       8.809  -9.566 -11.025  0.00  0.00    +0.001 A 
ATOM     24  C   UNL     1       9.977  -8.866 -11.251  0.00  0.00    +0.008 A 
ENDBRANCH   8  19
ENDBRANCH   4   7
BRANCH   1  25
ATOM     25  C   UNL     1       6.366  -2.842 -11.169  0.00  0.00    -0.043 C 
BRANCH  25  29
ATOM     26  C   UNL     1       4.277  -2.216  -7.508  0.00  0.00    +0.055 C 
ATOM     27  C   UNL     1       3.532  -2.804  -8.709  0.00  0.00    -0.007 C 
ATOM     28  C   UNL     1       4.309  -2.489  -9.989  0.00  0.00    -0.078 C 
ATOM     29  N   UNL     1       5.651  -3.079  -9.907  0.00  0.00    +0.382 N 
ATOM     30  C   UNL     1       6.398  -2.468  -8.801  0.00  0.00    -0.078 C 
ATOM     31  C   UNL     1       5.700  -2.782  -7.476  0.00  0.00    -0.007 C 
ATOM     32  H   UNL     1       5.572  -4.073  -9.750  0.00  0.00    -0.081 HD
BRANCH  26  36
ATOM     33  C   UNL     1       2.493  -2.386  -4.362  0.00  0.00    +0.158 A 
ATOM     34  N   UNL     1       3.054  -1.728  -5.356  0.00  0.00    -0.211 NA
ATOM     35  H   UNL     1       2.338  -4.441  -4.046  0.00  0.00    +0.191 HD
ATOM     36  C   UNL     1       3.558  -2.588  -6.237  0.00  0.00    +0.154 A 
ATOM     37  N   UNL     1       3.332  -3.808  -5.824  0.00  0.00    -0.157 NA
ATOM     38  N   UNL     1       2.645  -3.708  -4.604  0.00  0.00    -0.258 N 
BRANCH  33  42
ATOM     39  C   UNL     1       0.605  -0.606  -1.054  0.00  0.00    +0.214 A 
ATOM     40  C   UNL     1       0.649  -1.994  -1.117  0.00  0.00    +0.068 A 
ATOM     41  C   UNL     1       1.263  -2.601  -2.195  0.00  0.00    +0.018 A 
ATOM     42  C   UNL     1       1.823  -1.786  -3.188  0.00  0.00    +0.037 A 
ATOM     43  C   UNL     1       1.738  -0.401  -3.053  0.00  0.00    +0.126 A 
ATOM     44  N   UNL     1       1.137   0.136  -2.011  0.00  0.00    -0.221 NA
BRANCH  39  46
ATOM     45  C   UNL     1      -0.017   1.425   0.010  0.00  0.00    +0.279 C 
ATOM     46  O   UNL     1       0.002  -0.004   0.002  0.00  0.00    -0.480 OA
ENDBRANCH  39  46
ENDBRANCH  33  42
ENDBRANCH  26  36
ENDBRANCH  25  29
ENDBRANCH   1  25
TORSDOF 7
