REMARK  Name = CHEMBL253457
REMARK  5 active torsions:
REMARK  status: ('A' for Active; 'I' for Inactive)
REMARK    1  A    between atoms: C_4  and  C_7
REMARK    2  A    between atoms: C_16  and  C_17
REMARK    3  A    between atoms: C_20  and  C_23
REMARK    4  A    between atoms: C_23  and  N_24
REMARK    5  A    between atoms: C_27  and  C_30
REMARK                            x       y       z     vdW  Elec       q    Type
REMARK                         _______ _______ _______ _____ _____    ______ ____
ROOT
ATOM      1  C   UNL     1       2.906  -2.082   1.875  0.00  0.00    +0.001 A 
ATOM      2  C   UNL     1       2.079  -1.095   2.410  0.00  0.00    +0.010 A 
ATOM      3  C   UNL     1       1.109  -1.435   3.330  0.00  0.00    +0.002 A 
ATOM      4  C   UNL     1       0.956  -2.753   3.723  0.00  0.00    -0.064 A 
ATOM      5  C   UNL     1       1.773  -3.737   3.196  0.00  0.00    +0.002 A 
ATOM      6  C   UNL     1       2.743  -3.410   2.271  0.00  0.00    +0.010 A 
ENDROOT
BRANCH   1  16
ATOM      7  C   UNL     1       3.698  -0.688  -0.038  0.00  0.00    +0.009 A 
ATOM      8  C   UNL     1       4.678  -0.346  -0.961  0.00  0.00    +0.025 A 
ATOM      9  C   UNL     1       5.882  -1.059  -0.934  0.00  0.00    +0.059 A 
ATOM     10  C   UNL     1       6.938  -0.782  -1.835  0.00  0.00    +0.129 A 
ATOM     11  N   UNL     1       8.048  -1.504  -1.742  0.00  0.00    -0.220 NA
ATOM     12  C   UNL     1       8.173  -2.459  -0.835  0.00  0.00    +0.225 A 
ATOM     13  N   UNL     1       7.228  -2.759   0.024  0.00  0.00    -0.216 NA
ATOM     14  C   UNL     1       6.064  -2.092   0.021  0.00  0.00    +0.165 A 
ATOM     15  N   UNL     1       5.093  -2.383   0.886  0.00  0.00    -0.227 NA
ATOM     16  C   UNL     1       3.949  -1.723   0.887  0.00  0.00    +0.081 A 
ATOM     17  N   UNL     1       6.817   0.211  -2.783  0.00  0.00    -0.343 N 
ATOM     18  H   UNL     1       6.000   0.730  -2.840  0.00  0.00    +0.144 HD
ATOM     19  H   UNL     1       7.549   0.390  -3.394  0.00  0.00    +0.144 HD
BRANCH   7  23
ATOM     20  C   UNL     1      -0.017   1.379   0.010  0.00  0.00    +0.000 A 
ATOM     21  C   UNL     1       1.169   2.092   0.002  0.00  0.00    +0.001 A 
ATOM     22  C   UNL     1       2.377   1.427  -0.013  0.00  0.00    +0.008 A 
ATOM     23  C   UNL     1       2.403   0.033  -0.021  0.00  0.00    -0.016 A 
ATOM     24  C   UNL     1       1.205  -0.680  -0.013  0.00  0.00    +0.008 A 
ATOM     25  C   UNL     1       0.002  -0.004   0.002  0.00  0.00    +0.001 A 
ENDBRANCH   7  23
ENDBRANCH   1  16
BRANCH   4  26
ATOM     26  C   UNL     1      -0.105  -3.118   4.729  0.00  0.00    -0.043 C 
BRANCH  26  27
ATOM     27  N   UNL     1      -1.356  -3.438   4.028  0.00  0.00    +0.382 N 
ATOM     28  C   UNL     1      -1.853  -2.237   3.345  0.00  0.00    -0.078 C 
ATOM     29  C   UNL     1      -3.111  -2.584   2.546  0.00  0.00    -0.008 C 
ATOM     30  C   UNL     1      -4.186  -3.112   3.501  0.00  0.00    +0.052 C 
ATOM     31  C   UNL     1      -3.630  -4.319   4.262  0.00  0.00    -0.008 C 
ATOM     32  C   UNL     1      -2.352  -3.908   4.997  0.00  0.00    -0.078 C 
ATOM     33  H   UNL     1      -1.182  -4.162   3.347  0.00  0.00    -0.081 HD
BRANCH  30  34
ATOM     34  C   UNL     1      -5.400  -3.529   2.713  0.00  0.00    +0.111 A 
ATOM     35  N   UNL     1      -5.570  -4.746   2.128  0.00  0.00    -0.342 N 
ATOM     36  H   UNL     1      -4.942  -5.485   2.146  0.00  0.00    +0.167 HD
ATOM     37  C   UNL     1      -6.802  -4.734   1.506  0.00  0.00    +0.069 A 
ATOM     38  C   UNL     1      -7.518  -5.662   0.761  0.00  0.00    +0.066 A 
ATOM     39  C   UNL     1      -8.762  -5.327   0.265  0.00  0.00    +0.125 A 
ATOM     40  C   UNL     1      -9.299  -4.069   0.506  0.00  0.00    +0.040 A 
ATOM     41  C   UNL     1      -8.608  -3.144   1.236  0.00  0.00    +0.032 A 
ATOM     42  C   UNL     1      -7.347  -3.462   1.749  0.00  0.00    +0.089 A 
ATOM     43  N   UNL     1      -6.441  -2.780   2.496  0.00  0.00    -0.232 NA
ATOM     44  F   UNL     1      -9.460  -6.228  -0.460  0.00  0.00    -0.205 F 
ENDBRANCH  30  34
ENDBRANCH  26  27
ENDBRANCH   4  26
TORSDOF 5
