REMARK  Name = CHEMBL228701
REMARK  6 active torsions:
REMARK  status: ('A' for Active; 'I' for Inactive)
REMARK    1  A    between atoms: C_6  and  N_7
REMARK    2  A    between atoms: C_12  and  C_13
REMARK    3  A    between atoms: C_15  and  C_19
REMARK    4  A    between atoms: N_21  and  C_22
REMARK    5  A    between atoms: C_22  and  C_23
REMARK    6  A    between atoms: C_23  and  N_24
REMARK                            x       y       z     vdW  Elec       q    Type
REMARK                         _______ _______ _______ _____ _____    ______ ____
ROOT
ATOM      1  C   UNL     1      -0.186  -0.301   2.377  0.00  0.00    +0.025 A 
ATOM      2  C   UNL     1       1.011   0.353   2.171  0.00  0.00    +0.026 A 
ATOM      3  C   UNL     1       1.824   0.004   1.098  0.00  0.00    +0.042 A 
ATOM      4  C   UNL     1       1.411  -1.018   0.232  0.00  0.00    +0.010 A 
ATOM      5  C   UNL     1       0.204  -1.675   0.443  0.00  0.00    +0.033 A 
ATOM      6  C   UNL     1      -0.595  -1.314   1.517  0.00  0.00    +0.035 A 
ATOM      7  C   UNL     1       2.473  -1.152  -0.790  0.00  0.00    +0.048 C 
ATOM      8  C   UNL     1       2.508  -2.032  -1.854  0.00  0.00    +0.039 C 
ATOM      9  C   UNL     1       3.482  -0.146  -0.429  0.00  0.00    +0.249 C 
ATOM     10  O   UNL     1       4.522   0.069  -1.024  0.00  0.00    -0.270 OA
ATOM     11  N   UNL     1       3.055   0.494   0.672  0.00  0.00    -0.281 N 
ATOM     12  H   UNL     1       3.542   1.208   1.113  0.00  0.00    +0.155 HD
ENDROOT
BRANCH   6  13
ATOM     13  N   UNL     1      -1.813  -1.972   1.737  0.00  0.00    -0.270 N 
ATOM     14  C   UNL     1      -2.525  -2.438   0.692  0.00  0.00    +0.301 C 
ATOM     15  O   UNL     1      -2.018  -2.498  -0.411  0.00  0.00    -0.253 OA
ATOM     16  N   UNL     1      -3.800  -2.836   0.871  0.00  0.00    -0.313 N 
ATOM     17  H   UNL     1      -2.143  -2.091   2.641  0.00  0.00    +0.156 HD
ATOM     18  H   UNL     1      -4.205  -2.788   1.751  0.00  0.00    +0.146 HD
ATOM     19  H   UNL     1      -4.313  -3.172   0.119  0.00  0.00    +0.146 HD
ENDBRANCH   6  13
BRANCH   8  20
ATOM     20  C   UNL     1       3.748  -2.439  -2.393  0.00  0.00    +0.041 A 
ATOM     21  C   UNL     1       4.128  -3.739  -2.662  0.00  0.00    +0.040 A 
ATOM     22  C   UNL     1       5.436  -3.681  -3.188  0.00  0.00    +0.055 A 
ATOM     23  C   UNL     1       5.807  -2.349  -3.219  0.00  0.00    +0.096 A 
ATOM     24  N   UNL     1       4.790  -1.608  -2.748  0.00  0.00    -0.360 N 
ATOM     25  H   UNL     1       4.790  -0.641  -2.667  0.00  0.00    +0.165 HD
BRANCH  22  26
ATOM     26  C   UNL     1       6.256  -4.827  -3.621  0.00  0.00    +0.245 C 
ATOM     27  O   UNL     1       5.813  -5.957  -3.542  0.00  0.00    -0.270 OA
ATOM     28  N   UNL     1       7.497  -4.623  -4.106  0.00  0.00    -0.313 N 
ATOM     29  H   UNL     1       7.851  -3.722  -4.170  0.00  0.00    +0.149 HD
BRANCH  28  30
ATOM     30  C   UNL     1       8.312  -5.762  -4.537  0.00  0.00    +0.086 C 
BRANCH  30  31
ATOM     31  C   UNL     1       9.666  -5.259  -5.041  0.00  0.00    -0.060 C 
BRANCH  31  32
ATOM     32  N   UNL     1      10.483  -6.401  -5.473  0.00  0.00    +0.381 N 
ATOM     33  C   UNL     1      10.782  -7.252  -4.316  0.00  0.00    -0.079 C 
ATOM     34  C   UNL     1      11.564  -8.485  -4.773  0.00  0.00    -0.019 C 
ATOM     35  C   UNL     1      12.872  -8.038  -5.432  0.00  0.00    -0.004 C 
ATOM     36  C   UNL     1      12.550  -7.091  -6.592  0.00  0.00    -0.019 C 
ATOM     37  C   UNL     1      11.732  -5.910  -6.067  0.00  0.00    -0.079 C 
ATOM     38  H   UNL     1       9.973  -6.937  -6.160  0.00  0.00    -0.082 HD
ENDBRANCH  31  32
ENDBRANCH  30  31
ENDBRANCH  28  30
ENDBRANCH  22  26
ENDBRANCH   8  20
TORSDOF 6
