REMARK  Name = CHEMBL226712
REMARK  4 active torsions:
REMARK  status: ('A' for Active; 'I' for Inactive)
REMARK    1  A    between atoms: C_3  and  C_17
REMARK    2  A    between atoms: C_6  and  C_7
REMARK    3  A    between atoms: C_17  and  C_18
REMARK    4  A    between atoms: C_17  and  N_25
REMARK                            x       y       z     vdW  Elec       q    Type
REMARK                         _______ _______ _______ _____ _____    ______ ____
ROOT
ATOM      1  C   UNL     1      -0.017   1.391   0.010  0.00  0.00    +0.010 A 
ATOM      2  C   UNL     1       1.170   2.094   0.002  0.00  0.00    +0.003 A 
ATOM      3  C   UNL     1       2.378   1.418  -0.013  0.00  0.00    -0.058 A 
ATOM      4  C   UNL     1       2.403   0.035  -0.021  0.00  0.00    +0.003 A 
ATOM      5  C   UNL     1       1.222  -0.679  -0.013  0.00  0.00    +0.010 A 
ATOM      6  C   UNL     1       0.002  -0.004   0.002  0.00  0.00    +0.003 A 
ENDROOT
BRANCH   6   7
ATOM      7  C   UNL     1      -1.269  -0.765   0.011  0.00  0.00    +0.102 A 
ATOM      8  C   UNL     1      -1.383  -1.983  -0.683  0.00  0.00    +0.134 A 
ATOM      9  C   UNL     1      -2.618  -2.660  -0.636  0.00  0.00    +0.161 A 
ATOM     10  N   UNL     1      -2.452  -3.798  -1.385  0.00  0.00    -0.329 N 
ATOM     11  H   UNL     1      -3.122  -4.479  -1.550  0.00  0.00    +0.168 HD
ATOM     12  C   UNL     1      -1.173  -3.795  -1.855  0.00  0.00    +0.198 A 
ATOM     13  N   UNL     1      -0.549  -2.729  -1.442  0.00  0.00    -0.232 NA
ATOM     14  N   UNL     1      -3.618  -2.128   0.054  0.00  0.00    -0.216 NA
ATOM     15  C   UNL     1      -3.465  -0.984   0.688  0.00  0.00    +0.224 A 
ATOM     16  N   UNL     1      -2.328  -0.315   0.679  0.00  0.00    -0.233 NA
ENDBRANCH   6   7
BRANCH   3  17
ATOM     17  C   UNL     1       3.671   2.193  -0.022  0.00  0.00    -0.013 C 
BRANCH  17  18
ATOM     18  C   UNL     1       4.215   2.246  -1.426  0.00  0.00    -0.058 A 
ATOM     19  C   UNL     1       4.895   1.160  -1.945  0.00  0.00    +0.004 A 
ATOM     20  C   UNL     1       5.394   1.209  -3.233  0.00  0.00    +0.020 A 
ATOM     21  C   UNL     1       5.213   2.344  -4.003  0.00  0.00    +0.041 A 
ATOM     22  C   UNL     1       4.532   3.430  -3.483  0.00  0.00    +0.020 A 
ATOM     23  C   UNL     1       4.028   3.378  -2.197  0.00  0.00    +0.004 A 
ATOM     24 CL   UNL     1       5.840   2.406  -5.620  0.00  0.00    -0.084 Cl
ENDBRANCH  17  18
BRANCH  17  25
ATOM     25  N   UNL     1       4.644   1.529   0.856  0.00  0.00    +0.385 N 
ATOM     26  H   UNL     1       4.280   1.494   1.796  0.00  0.00    -0.089 HD
ATOM     27  H   UNL     1       4.812   0.591   0.524  0.00  0.00    -0.089 HD
ATOM     28  H   UNL     1       5.510   2.048   0.850  0.00  0.00    -0.089 HD
ENDBRANCH  17  25
ENDBRANCH   3  17
TORSDOF 4
