REMARK  Name = CHEMBL605326
REMARK  3 active torsions:
REMARK  status: ('A' for Active; 'I' for Inactive)
REMARK    1  A    between atoms: C_4  and  C_7
REMARK    2  A    between atoms: C_12  and  C_14
REMARK    3  A    between atoms: C_14  and  N_30
REMARK                            x       y       z     vdW  Elec       q    Type
REMARK                         _______ _______ _______ _____ _____    ______ ____
ROOT
ATOM      1  C   UNL     1       3.351  -3.176   2.846  0.00  0.00    +0.010 C 
ATOM      2  C   UNL     1       1.967  -3.823   2.754  0.00  0.00    +0.015 C 
ATOM      3  C   UNL     1       0.924  -2.875   3.356  0.00  0.00    +0.105 C 
ATOM      4  N   UNL     1       1.337  -2.523   4.721  0.00  0.00    -0.315 N 
ATOM      5  C   UNL     1       2.684  -1.977   4.933  0.00  0.00    +0.105 C 
ATOM      6  C   UNL     1       3.707  -2.935   4.314  0.00  0.00    +0.015 C 
ATOM      7  C   UNL     1       0.473  -2.702   5.787  0.00  0.00    +0.134 A 
ATOM      8  C   UNL     1      -0.330  -1.647   6.246  0.00  0.00    +0.059 A 
ATOM      9  C   UNL     1      -0.526  -0.251   5.861  0.00  0.00    +0.032 A 
ATOM     10  C   UNL     1      -1.449   0.256   6.695  0.00  0.00    +0.085 A 
ATOM     11  N   UNL     1      -1.855  -0.709   7.580  0.00  0.00    -0.346 N 
ATOM     12  H   UNL     1      -2.516  -0.580   8.278  0.00  0.00    +0.167 HD
ATOM     13  C   UNL     1      -1.193  -1.880   7.333  0.00  0.00    +0.143 A 
ATOM     14  N   UNL     1      -1.211  -3.093   7.883  0.00  0.00    -0.218 NA
ATOM     15  C   UNL     1      -0.440  -4.052   7.420  0.00  0.00    +0.225 A 
ATOM     16  N   UNL     1       0.379  -3.879   6.398  0.00  0.00    -0.220 NA
ENDROOT
BRANCH   1  22
ATOM     17  C   UNL     1       4.633  -0.058   0.942  0.00  0.00    +0.106 C 
ATOM     18  C   UNL     1       6.142   0.223   0.779  0.00  0.00    +0.029 C 
ATOM     19  C   UNL     1       6.770  -0.555   1.965  0.00  0.00    +0.021 C 
ATOM     20  C   UNL     1       5.849  -1.799   2.043  0.00  0.00    +0.108 C 
ATOM     21  N   UNL     1       4.501  -1.290   1.732  0.00  0.00    -0.296 N 
ATOM     22  C   UNL     1       3.340  -1.861   2.109  0.00  0.00    +0.205 C 
ATOM     23  O   UNL     1       2.286  -1.316   1.856  0.00  0.00    -0.277 OA
BRANCH  17  27
ATOM     24  C   UNL     1       2.834  -0.591  -2.896  0.00  0.00    +0.000 A 
ATOM     25  C   UNL     1       2.681   0.606  -2.221  0.00  0.00    +0.000 A 
ATOM     26  C   UNL     1       3.263   0.778  -0.979  0.00  0.00    +0.005 A 
ATOM     27  C   UNL     1       3.998  -0.246  -0.412  0.00  0.00    -0.027 A 
ATOM     28  C   UNL     1       4.151  -1.443  -1.087  0.00  0.00    +0.005 A 
ATOM     29  C   UNL     1       3.570  -1.615  -2.329  0.00  0.00    +0.000 A 
ENDBRANCH  17  27
ENDBRANCH   1  22
BRANCH   1  30
ATOM     30  N   UNL     1       4.348  -4.068   2.240  0.00  0.00    +0.388 N 
ATOM     31  H   UNL     1       5.274  -3.715   2.429  0.00  0.00    -0.089 HD
ATOM     32  H   UNL     1       4.254  -4.993   2.631  0.00  0.00    -0.089 HD
ATOM     33  H   UNL     1       4.202  -4.108   1.242  0.00  0.00    -0.089 HD
ENDBRANCH   1  30
TORSDOF 3
