REMARK  Name = CHEMBL603197
REMARK  9 active torsions:
REMARK  status: ('A' for Active; 'I' for Inactive)
REMARK    1  A    between atoms: C_1  and  C_2
REMARK    2  A    between atoms: C_7  and  C_9
REMARK    3  A    between atoms: C_11  and  O_20
REMARK    4  A    between atoms: C_14  and  C_15
REMARK    5  A    between atoms: O_20  and  C_21
REMARK    6  A    between atoms: C_21  and  C_22
REMARK    7  A    between atoms: C_22  and  C_24
REMARK    8  A    between atoms: C_22  and  N_35
REMARK    9  A    between atoms: C_24  and  C_25
REMARK                            x       y       z     vdW  Elec       q    Type
REMARK                         _______ _______ _______ _____ _____    ______ ____
ROOT
ATOM      1  C   UNL     1      -0.052  -1.292  -4.776  0.00  0.00    +0.049 A 
ATOM      2  C   UNL     1      -0.171   0.024  -5.227  0.00  0.00    +0.061 A 
ATOM      3  C   UNL     1      -0.128   0.258  -6.596  0.00  0.00    +0.139 A 
ATOM      4  C   UNL     1       0.030  -0.812  -7.466  0.00  0.00    +0.157 A 
ATOM      5  N   UNL     1       0.140  -2.045  -7.015  0.00  0.00    -0.251 NA
ATOM      6  C   UNL     1       0.111  -2.320  -5.718  0.00  0.00    +0.085 A 
ENDROOT
BRANCH   1  13
ATOM      7  C   UNL     1      -3.223  -0.092  -0.397  0.00  0.00    +0.070 C 
ATOM      8  C   UNL     1      -2.009  -0.971  -0.245  0.00  0.00    +0.086 A 
ATOM      9  C   UNL     1      -1.129  -1.345  -1.285  0.00  0.00    +0.115 A 
ATOM     10  C   UNL     1      -0.138  -2.167  -0.705  0.00  0.00    +0.102 A 
ATOM     11  C   UNL     1       0.867  -2.678  -1.523  0.00  0.00    +0.142 A 
ATOM     12  N   UNL     1       0.856  -2.375  -2.808  0.00  0.00    -0.233 NA
ATOM     13  C   UNL     1      -0.091  -1.597  -3.327  0.00  0.00    +0.163 A 
ATOM     14  N   UNL     1      -1.066  -1.087  -2.593  0.00  0.00    -0.224 NA
ATOM     15  N   UNL     1      -0.440  -2.264   0.627  0.00  0.00    -0.274 N 
ATOM     16  H   UNL     1       0.061  -2.765   1.290  0.00  0.00    +0.189 HD
ATOM     17  N   UNL     1      -1.595  -1.509   0.867  0.00  0.00    -0.176 NA
ENDBRANCH   1  13
BRANCH   6  18
ATOM     18  C   UNL     1       0.245  -3.722  -5.261  0.00  0.00    +0.039 A 
ATOM     19  C   UNL     1      -0.538  -4.392  -4.215  0.00  0.00    +0.051 A 
ATOM     20  C   UNL     1      -0.068  -5.648  -4.147  0.00  0.00    +0.195 A 
ATOM     21  O   UNL     1       0.916  -5.796  -5.047  0.00  0.00    -0.470 OA
ATOM     22  C   UNL     1       1.114  -4.658  -5.726  0.00  0.00    +0.204 A 
ENDBRANCH   6  18
BRANCH   3  23
ATOM     23  O   UNL     1      -0.240   1.524  -7.079  0.00  0.00    -0.492 OA
BRANCH  23  24
ATOM     24  C   UNL     1      -0.186   1.684  -8.498  0.00  0.00    +0.213 C 
BRANCH  24  25
ATOM     25  C   UNL     1      -0.329   3.166  -8.850  0.00  0.00    -0.033 C 
BRANCH  25  26
ATOM     26  N   UNL     1       0.830   3.906  -8.331  0.00  0.00    +0.382 N 
ATOM     27  H   UNL     1       0.737   4.883  -8.563  0.00  0.00    -0.089 HD
ATOM     28  H   UNL     1       0.875   3.801  -7.329  0.00  0.00    -0.089 HD
ATOM     29  H   UNL     1       1.675   3.541  -8.746  0.00  0.00    -0.089 HD
ENDBRANCH  25  26
BRANCH  25  30
ATOM     30  C   UNL     1      -0.397   3.325 -10.370  0.00  0.00    +0.024 C 
BRANCH  30  31
ATOM     31  C   UNL     1      -0.659   4.769 -10.713  0.00  0.00    -0.024 A 
ATOM     32  C   UNL     1      -1.856   5.328 -10.952  0.00  0.00    +0.087 A 
ATOM     33  N   UNL     1      -1.702   6.659 -11.229  0.00  0.00    -0.360 N 
ATOM     34  H   UNL     1      -2.425   7.273 -11.434  0.00  0.00    +0.165 HD
ATOM     35  C   UNL     1      -0.369   6.998 -11.174  0.00  0.00    +0.047 A 
ATOM     36  C   UNL     1       0.342   5.830 -10.841  0.00  0.00    +0.003 A 
ATOM     37  C   UNL     1       1.731   5.875 -10.708  0.00  0.00    +0.010 A 
ATOM     38  C   UNL     1       2.393   7.055 -10.898  0.00  0.00    +0.001 A 
ATOM     39  C   UNL     1       1.696   8.211 -11.222  0.00  0.00    +0.002 A 
ATOM     40  C   UNL     1       0.326   8.187 -11.367  0.00  0.00    +0.026 A 
ENDBRANCH  30  31
ENDBRANCH  25  30
ENDBRANCH  24  25
ENDBRANCH  23  24
ENDBRANCH   3  23
TORSDOF 8
