REMARK  Name = CHEMBL598842
REMARK  4 active torsions:
REMARK  status: ('A' for Active; 'I' for Inactive)
REMARK    1  A    between atoms: C_6  and  C_7
REMARK    2  A    between atoms: C_7  and  N_8
REMARK    3  A    between atoms: C_9  and  C_11
REMARK    4  A    between atoms: C_11  and  N_29
REMARK                            x       y       z     vdW  Elec       q    Type
REMARK                         _______ _______ _______ _____ _____    ______ ____
ROOT
ATOM      1  C   UNL     1      -3.313  -1.945  -3.024  0.00  0.00    +0.096 C 
ATOM      2  C   UNL     1      -4.200  -0.789  -3.492  0.00  0.00    +0.050 C 
ATOM      3  C   UNL     1      -5.409  -0.668  -2.559  0.00  0.00    +0.109 C 
ATOM      4  N   UNL     1      -6.092  -1.967  -2.500  0.00  0.00    -0.313 N 
ATOM      5  C   UNL     1      -5.311  -3.161  -2.147  0.00  0.00    +0.109 C 
ATOM      6  C   UNL     1      -4.103  -3.254  -3.085  0.00  0.00    +0.050 C 
ATOM      7  C   UNL     1      -7.449  -2.065  -2.770  0.00  0.00    +0.150 A 
ATOM      8  C   UNL     1      -8.393  -1.833  -1.771  0.00  0.00    +0.126 A 
ATOM      9  C   UNL     1      -9.747  -1.944  -2.092  0.00  0.00    +0.163 A 
ATOM     10  N   UNL     1     -10.457  -1.668  -0.938  0.00  0.00    -0.291 N 
ATOM     11  H   UNL     1     -11.423  -1.668  -0.855  0.00  0.00    +0.172 HD
ATOM     12  C   UNL     1      -9.583  -1.399   0.050  0.00  0.00    +0.326 A 
ATOM     13  O   UNL     1      -9.883  -1.116   1.195  0.00  0.00    -0.247 OA
ATOM     14  N   UNL     1      -8.324  -1.491  -0.423  0.00  0.00    -0.302 N 
ATOM     15  H   UNL     1      -7.512  -1.345   0.086  0.00  0.00    +0.171 HD
ATOM     16  N   UNL     1     -10.089  -2.266  -3.336  0.00  0.00    -0.216 NA
ATOM     17  C   UNL     1      -9.167  -2.478  -4.253  0.00  0.00    +0.225 A 
ATOM     18  N   UNL     1      -7.878  -2.377  -3.992  0.00  0.00    -0.219 NA
ENDROOT
BRANCH   1  20
ATOM     19  N   UNL     1      -1.771  -2.312  -1.125  0.00  0.00    -0.310 N 
ATOM     20  C   UNL     1      -2.867  -1.693  -1.606  0.00  0.00    +0.233 C 
ATOM     21  O   UNL     1      -3.495  -0.934  -0.899  0.00  0.00    -0.274 OA
ATOM     22  H   UNL     1      -1.269  -2.920  -1.690  0.00  0.00    +0.149 HD
BRANCH  19  23
ATOM     23  C   UNL     1      -1.338  -2.067   0.253  0.00  0.00    +0.139 C 
BRANCH  23  29
ATOM     24  C   UNL     1       1.151  -2.332   0.297  0.00  0.00    +0.006 A 
ATOM     25  C   UNL     1       2.288  -3.071   0.561  0.00  0.00    +0.020 A 
ATOM     26  C   UNL     1       2.178  -4.353   1.069  0.00  0.00    +0.041 A 
ATOM     27  C   UNL     1       0.928  -4.895   1.313  0.00  0.00    +0.020 A 
ATOM     28  C   UNL     1      -0.209  -4.155   1.049  0.00  0.00    +0.006 A 
ATOM     29  C   UNL     1      -0.098  -2.874   0.541  0.00  0.00    -0.030 A 
ATOM     30 CL   UNL     1       3.607  -5.282   1.400  0.00  0.00    -0.084 Cl
ENDBRANCH  23  29
ENDBRANCH  19  23
ENDBRANCH   1  20
BRANCH   1  31
ATOM     31  N   UNL     1      -2.135  -2.043  -3.897  0.00  0.00    -0.317 NA
ATOM     32  H   UNL     1      -1.596  -1.191  -3.874  0.00  0.00    +0.119 HD
ATOM     33  H   UNL     1      -1.566  -2.838  -3.648  0.00  0.00    +0.119 HD
ENDBRANCH   1  31
TORSDOF 4
