REMARK  Name = CHEMBL598842
REMARK  4 active torsions:
REMARK  status: ('A' for Active; 'I' for Inactive)
REMARK    1  A    between atoms: C_6  and  C_7
REMARK    2  A    between atoms: C_7  and  N_8
REMARK    3  A    between atoms: C_9  and  C_11
REMARK    4  A    between atoms: C_11  and  N_28
REMARK                            x       y       z     vdW  Elec       q    Type
REMARK                         _______ _______ _______ _____ _____    ______ ____
ROOT
ATOM      1  C   UNL     1      -3.313  -1.933  -3.026  0.00  0.00    +0.010 C 
ATOM      2  C   UNL     1      -4.203  -0.774  -3.480  0.00  0.00    +0.015 C 
ATOM      3  C   UNL     1      -5.412  -0.666  -2.545  0.00  0.00    +0.105 C 
ATOM      4  N   UNL     1      -6.092  -1.967  -2.500  0.00  0.00    -0.313 N 
ATOM      5  C   UNL     1      -5.308  -3.163  -2.162  0.00  0.00    +0.105 C 
ATOM      6  C   UNL     1      -4.101  -3.243  -3.101  0.00  0.00    +0.015 C 
ATOM      7  C   UNL     1      -7.447  -2.065  -2.770  0.00  0.00    +0.152 A 
ATOM      8  C   UNL     1      -8.175  -0.946  -3.205  0.00  0.00    +0.151 A 
ATOM      9  C   UNL     1      -9.546  -1.106  -3.464  0.00  0.00    +0.166 A 
ATOM     10  N   UNL     1     -10.005   0.126  -3.869  0.00  0.00    -0.289 N 
ATOM     11  H   UNL     1     -10.916   0.345  -4.120  0.00  0.00    +0.172 HD
ATOM     12  C   UNL     1      -8.942   0.984  -3.850  0.00  0.00    +0.348 A 
ATOM     13  O   UNL     1      -8.995   2.294  -4.186  0.00  0.00    -0.245 OA
ATOM     14  N   UNL     1      -7.867   0.351  -3.460  0.00  0.00    -0.187 NA
ATOM     15  N   UNL     1     -10.101  -2.300  -3.288  0.00  0.00    -0.216 NA
ATOM     16  C   UNL     1      -9.380  -3.322  -2.878  0.00  0.00    +0.225 A 
ATOM     17  N   UNL     1      -8.087  -3.221  -2.628  0.00  0.00    -0.218 NA
ENDROOT
BRANCH   1  19
ATOM     18  N   UNL     1      -1.831  -0.872  -1.353  0.00  0.00    -0.312 N 
ATOM     19  C   UNL     1      -2.867  -1.696  -1.606  0.00  0.00    +0.202 C 
ATOM     20  O   UNL     1      -3.440  -2.248  -0.690  0.00  0.00    -0.277 OA
ATOM     21  H   UNL     1      -1.373  -0.431  -2.086  0.00  0.00    +0.149 HD
BRANCH  18  22
ATOM     22  C   UNL     1      -1.397  -0.642   0.027  0.00  0.00    +0.139 C 
BRANCH  22  28
ATOM     23  C   UNL     1      -0.452   1.673   0.122  0.00  0.00    +0.006 A 
ATOM     24  C   UNL     1       0.618   2.549   0.129  0.00  0.00    +0.020 A 
ATOM     25  C   UNL     1       1.911   2.061   0.049  0.00  0.00    +0.041 A 
ATOM     26  C   UNL     1       2.131   0.698  -0.038  0.00  0.00    +0.020 A 
ATOM     27  C   UNL     1       1.061  -0.176  -0.045  0.00  0.00    +0.006 A 
ATOM     28  C   UNL     1      -0.230   0.312   0.035  0.00  0.00    -0.030 A 
ATOM     29 CL   UNL     1       3.255   3.160   0.058  0.00  0.00    -0.084 Cl
ENDBRANCH  22  28
ENDBRANCH  18  22
ENDBRANCH   1  19
BRANCH   1  30
ATOM     30  N   UNL     1      -2.136  -2.018  -3.901  0.00  0.00    +0.388 N 
ATOM     31  H   UNL     1      -1.549  -2.782  -3.601  0.00  0.00    -0.089 HD
ATOM     32  H   UNL     1      -2.435  -2.176  -4.851  0.00  0.00    -0.089 HD
ATOM     33  H   UNL     1      -1.617  -1.155  -3.851  0.00  0.00    -0.089 HD
ENDBRANCH   1  30
TORSDOF 4
