REMARK  Name = CHEMBL407504
REMARK  2 active torsions:
REMARK  status: ('A' for Active; 'I' for Inactive)
REMARK    1  A    between atoms: C_6  and  C_7
REMARK    2  A    between atoms: C_7  and  N_23
REMARK                            x       y       z     vdW  Elec       q    Type
REMARK                         _______ _______ _______ _____ _____    ______ ____
ROOT
ATOM      1  C   UNL     1      -1.298  -0.767   0.026  0.00  0.00    -0.042 C 
ATOM      2  C   UNL     1      -1.742  -1.031   1.467  0.00  0.00    +0.011 C 
ATOM      3  C   UNL     1      -3.071  -1.793   1.455  0.00  0.00    +0.105 C 
ATOM      4  N   UNL     1      -2.914  -3.006   0.640  0.00  0.00    -0.313 N 
ATOM      5  C   UNL     1      -2.405  -2.873  -0.732  0.00  0.00    +0.105 C 
ATOM      6  C   UNL     1      -1.084  -2.099  -0.696  0.00  0.00    +0.011 C 
ATOM      7  C   UNL     1      -3.239  -4.248   1.155  0.00  0.00    +0.152 A 
ATOM      8  C   UNL     1      -3.209  -5.394   0.342  0.00  0.00    +0.147 A 
ATOM      9  C   UNL     1      -3.548  -6.628   0.921  0.00  0.00    +0.163 A 
ATOM     10  N   UNL     1      -3.437  -7.559  -0.080  0.00  0.00    -0.329 N 
ATOM     11  H   UNL     1      -3.606  -8.511   0.000  0.00  0.00    +0.168 HD
ATOM     12  C   UNL     1      -3.048  -6.902  -1.209  0.00  0.00    +0.198 A 
ATOM     13  N   UNL     1      -2.914  -5.631  -0.959  0.00  0.00    -0.231 NA
ATOM     14  N   UNL     1      -3.882  -6.668   2.207  0.00  0.00    -0.216 NA
ATOM     15  C   UNL     1      -3.896  -5.569   2.931  0.00  0.00    +0.225 A 
ATOM     16  N   UNL     1      -3.580  -4.387   2.432  0.00  0.00    -0.218 NA
ENDROOT
BRANCH   1  22
ATOM     17  C   UNL     1      -0.035   1.394   0.036  0.00  0.00    +0.003 A 
ATOM     18  C   UNL     1       1.148   2.109   0.044  0.00  0.00    +0.020 A 
ATOM     19  C   UNL     1       2.359   1.441   0.050  0.00  0.00    +0.041 A 
ATOM     20  C   UNL     1       2.386   0.058   0.048  0.00  0.00    +0.020 A 
ATOM     21  C   UNL     1       1.203  -0.656   0.041  0.00  0.00    +0.003 A 
ATOM     22  C   UNL     1      -0.007   0.012   0.035  0.00  0.00    -0.059 A 
ATOM     23 CL   UNL     1       3.845   2.339   0.059  0.00  0.00    -0.084 Cl
ENDBRANCH   1  22
BRANCH   1  24
ATOM     24  N   UNL     1      -2.333   0.007  -0.671  0.00  0.00    +0.385 N 
ATOM     25  H   UNL     1      -2.039   0.182  -1.621  0.00  0.00    -0.089 HD
ATOM     26  H   UNL     1      -3.196  -0.514  -0.676  0.00  0.00    -0.089 HD
ATOM     27  H   UNL     1      -2.473   0.886  -0.195  0.00  0.00    -0.089 HD
ENDBRANCH   1  24
TORSDOF 2
