REMARK  Name = CHEMBL260000
REMARK  4 active torsions:
REMARK  status: ('A' for Active; 'I' for Inactive)
REMARK    1  A    between atoms: C_6  and  C_7
REMARK    2  A    between atoms: C_7  and  C_8
REMARK    3  A    between atoms: C_8  and  C_24
REMARK    4  A    between atoms: C_24  and  N_25
REMARK                            x       y       z     vdW  Elec       q    Type
REMARK                         _______ _______ _______ _____ _____    ______ ____
ROOT
ATOM      1  C   UNL     1      -1.595  -1.098  -1.357  0.00  0.00    -0.038 C 
ATOM      2  C   UNL     1      -1.572   0.359  -1.824  0.00  0.00    +0.024 C 
ATOM      3  C   UNL     1      -2.652   1.147  -1.076  0.00  0.00    +0.107 C 
ATOM      4  N   UNL     1      -3.944   0.474  -1.263  0.00  0.00    -0.315 N 
ATOM      5  C   UNL     1      -4.052  -0.953  -0.931  0.00  0.00    +0.107 C 
ATOM      6  C   UNL     1      -2.957  -1.718  -1.681  0.00  0.00    +0.024 C 
ATOM      7  C   UNL     1      -5.039   1.170  -1.743  0.00  0.00    +0.134 A 
ATOM      8  C   UNL     1      -5.971   1.740  -0.862  0.00  0.00    +0.059 A 
ATOM      9  C   UNL     1      -6.118   1.806   0.591  0.00  0.00    +0.032 A 
ATOM     10  C   UNL     1      -7.238   2.505   0.837  0.00  0.00    +0.085 A 
ATOM     11  N   UNL     1      -7.815   2.889  -0.346  0.00  0.00    -0.346 N 
ATOM     12  H   UNL     1      -8.632   3.405  -0.424  0.00  0.00    +0.167 HD
ATOM     13  C   UNL     1      -7.068   2.439  -1.399  0.00  0.00    +0.143 A 
ATOM     14  N   UNL     1      -7.176   2.532  -2.724  0.00  0.00    -0.218 NA
ATOM     15  C   UNL     1      -6.279   1.981  -3.512  0.00  0.00    +0.225 A 
ATOM     16  N   UNL     1      -5.231   1.322  -3.050  0.00  0.00    -0.220 NA
ENDROOT
BRANCH   1  17
ATOM     17  C   UNL     1      -1.355  -1.154   0.152  0.00  0.00    +0.040 C 
BRANCH  17  23
ATOM     18  C   UNL     1      -0.023  -3.229   0.580  0.00  0.00    +0.005 A 
ATOM     19  C   UNL     1       0.074  -4.548   0.983  0.00  0.00    +0.020 A 
ATOM     20  C   UNL     1      -1.056  -5.229   1.399  0.00  0.00    +0.041 A 
ATOM     21  C   UNL     1      -2.283  -4.590   1.410  0.00  0.00    +0.020 A 
ATOM     22  C   UNL     1      -2.379  -3.272   1.007  0.00  0.00    +0.005 A 
ATOM     23  C   UNL     1      -1.250  -2.592   0.592  0.00  0.00    -0.047 A 
ATOM     24 CL   UNL     1      -0.935  -6.886   1.905  0.00  0.00    -0.084 Cl
ENDBRANCH  17  23
ENDBRANCH   1  17
BRANCH   1  25
ATOM     25  C   UNL     1      -0.495  -1.881  -2.078  0.00  0.00    -0.079 C 
BRANCH  25  26
ATOM     26  N   UNL     1       0.799  -1.222  -1.858  0.00  0.00    +0.378 N 
ATOM     27  H   UNL     1       1.524  -1.737  -2.334  0.00  0.00    -0.090 HD
ATOM     28  H   UNL     1       0.763  -0.280  -2.219  0.00  0.00    -0.090 HD
ATOM     29  H   UNL     1       0.999  -1.195  -0.869  0.00  0.00    -0.090 HD
ENDBRANCH  25  26
ENDBRANCH   1  25
TORSDOF 4
