REMARK  Name = CHEMBL409503
REMARK  4 active torsions:
REMARK  status: ('A' for Active; 'I' for Inactive)
REMARK    1  A    between atoms: C_6  and  C_7
REMARK    2  A    between atoms: C_7  and  C_8
REMARK    3  A    between atoms: C_8  and  C_24
REMARK    4  A    between atoms: C_24  and  N_25
REMARK                            x       y       z     vdW  Elec       q    Type
REMARK                         _______ _______ _______ _____ _____    ______ ____
ROOT
ATOM      1  C   UNL     1      -1.670  -0.986  -1.433  0.00  0.00    -0.038 C 
ATOM      2  C   UNL     1      -1.622   0.432  -2.008  0.00  0.00    +0.024 C 
ATOM      3  C   UNL     1      -2.607   1.322  -1.246  0.00  0.00    +0.107 C 
ATOM      4  N   UNL     1      -3.938   0.699  -1.287  0.00  0.00    -0.313 N 
ATOM      5  C   UNL     1      -4.080  -0.693  -0.842  0.00  0.00    +0.107 C 
ATOM      6  C   UNL     1      -3.077  -1.561  -1.609  0.00  0.00    +0.024 C 
ATOM      7  C   UNL     1      -5.036   1.411  -1.738  0.00  0.00    +0.152 A 
ATOM      8  C   UNL     1      -4.930   2.779  -2.043  0.00  0.00    +0.147 A 
ATOM      9  C   UNL     1      -6.079   3.448  -2.497  0.00  0.00    +0.163 A 
ATOM     10  N   UNL     1      -5.698   4.748  -2.715  0.00  0.00    -0.329 N 
ATOM     11  H   UNL     1      -6.267   5.467  -3.033  0.00  0.00    +0.168 HD
ATOM     12  C   UNL     1      -4.375   4.844  -2.404  0.00  0.00    +0.198 A 
ATOM     13  N   UNL     1      -3.926   3.688  -2.009  0.00  0.00    -0.231 NA
ATOM     14  N   UNL     1      -7.215   2.769  -2.620  0.00  0.00    -0.216 NA
ATOM     15  C   UNL     1      -7.267   1.488  -2.322  0.00  0.00    +0.225 A 
ATOM     16  N   UNL     1      -6.213   0.816  -1.897  0.00  0.00    -0.218 NA
ENDROOT
BRANCH   1  17
ATOM     17  C   UNL     1      -1.319  -0.944   0.056  0.00  0.00    +0.040 C 
BRANCH  17  23
ATOM     18  C   UNL     1      -0.254  -3.153   0.554  0.00  0.00    +0.005 A 
ATOM     19  C   UNL     1      -0.298  -4.433   1.074  0.00  0.00    +0.020 A 
ATOM     20  C   UNL     1      -1.459  -4.899   1.664  0.00  0.00    +0.041 A 
ATOM     21  C   UNL     1      -2.575  -4.084   1.733  0.00  0.00    +0.020 A 
ATOM     22  C   UNL     1      -2.529  -2.805   1.212  0.00  0.00    +0.005 A 
ATOM     23  C   UNL     1      -1.369  -2.339   0.623  0.00  0.00    -0.047 A 
ATOM     24 CL   UNL     1      -1.516  -6.506   2.318  0.00  0.00    -0.084 Cl
ENDBRANCH  17  23
ENDBRANCH   1  17
BRANCH   1  25
ATOM     25  C   UNL     1      -0.662  -1.869  -2.170  0.00  0.00    -0.079 C 
BRANCH  25  26
ATOM     26  N   UNL     1       0.687  -1.311  -2.010  0.00  0.00    +0.378 N 
ATOM     27  H   UNL     1       1.344  -1.861  -2.543  0.00  0.00    -0.090 HD
ATOM     28  H   UNL     1       0.699  -0.359  -2.342  0.00  0.00    -0.090 HD
ATOM     29  H   UNL     1       0.946  -1.330  -1.035  0.00  0.00    -0.090 HD
ENDBRANCH  25  26
ENDBRANCH   1  25
TORSDOF 4
