REMARK  Name = CHEMBL605326
REMARK  3 active torsions:
REMARK  status: ('A' for Active; 'I' for Inactive)
REMARK    1  A    between atoms: C_4  and  C_7
REMARK    2  A    between atoms: C_12  and  C_14
REMARK    3  A    between atoms: C_14  and  N_30
REMARK                            x       y       z     vdW  Elec       q    Type
REMARK                         _______ _______ _______ _____ _____    ______ ____
ROOT
ATOM      1  C   UNL     1       3.510  -3.091  -3.007  0.00  0.00    +0.097 C 
ATOM      2  C   UNL     1       5.040  -3.131  -3.014  0.00  0.00    +0.050 C 
ATOM      3  C   UNL     1       5.573  -1.966  -3.853  0.00  0.00    +0.109 C 
ATOM      4  N   UNL     1       4.962  -2.026  -5.188  0.00  0.00    -0.314 N 
ATOM      5  C   UNL     1       3.498  -2.083  -5.292  0.00  0.00    +0.109 C 
ATOM      6  C   UNL     1       2.987  -3.247  -4.436  0.00  0.00    +0.050 C 
ATOM      7  C   UNL     1       5.750  -2.028  -6.325  0.00  0.00    +0.134 A 
ATOM      8  C   UNL     1       6.132  -0.824  -6.937  0.00  0.00    +0.059 A 
ATOM      9  C   UNL     1       5.897   0.594  -6.671  0.00  0.00    +0.032 A 
ATOM     10  C   UNL     1       6.539   1.280  -7.630  0.00  0.00    +0.085 A 
ATOM     11  N   UNL     1       7.163   0.410  -8.486  0.00  0.00    -0.346 N 
ATOM     12  H   UNL     1       7.690   0.670  -9.258  0.00  0.00    +0.167 HD
ATOM     13  C   UNL     1       6.934  -0.880  -8.092  0.00  0.00    +0.143 A 
ATOM     14  N   UNL     1       7.299  -2.074  -8.557  0.00  0.00    -0.218 NA
ATOM     15  C   UNL     1       6.917  -3.176  -7.950  0.00  0.00    +0.225 A 
ATOM     16  N   UNL     1       6.169  -3.170  -6.861  0.00  0.00    -0.220 NA
ENDROOT
BRANCH   1  22
ATOM     17  C   UNL     1       2.828  -0.259  -0.456  0.00  0.00    +0.106 C 
ATOM     18  C   UNL     1       3.143  -0.435   1.045  0.00  0.00    +0.029 C 
ATOM     19  C   UNL     1       4.166  -1.602   1.051  0.00  0.00    +0.021 C 
ATOM     20  C   UNL     1       3.639  -2.484  -0.109  0.00  0.00    +0.108 C 
ATOM     21  N   UNL     1       3.160  -1.527  -1.123  0.00  0.00    -0.293 N 
ATOM     22  C   UNL     1       3.045  -1.773  -2.443  0.00  0.00    +0.236 C 
ATOM     23  O   UNL     1       2.567  -0.934  -3.177  0.00  0.00    -0.274 OA
BRANCH  17  27
ATOM     24  C   UNL     1      -1.320   0.614  -0.979  0.00  0.00    +0.000 A 
ATOM     25  C   UNL     1      -0.385   1.629  -1.058  0.00  0.00    +0.000 A 
ATOM     26  C   UNL     1       0.958   1.346  -0.888  0.00  0.00    +0.005 A 
ATOM     27  C   UNL     1       1.365   0.049  -0.639  0.00  0.00    -0.027 A 
ATOM     28  C   UNL     1       0.429  -0.966  -0.560  0.00  0.00    +0.005 A 
ATOM     29  C   UNL     1      -0.913  -0.683  -0.731  0.00  0.00    +0.000 A 
ENDBRANCH  17  27
ENDBRANCH   1  22
BRANCH   1  30
ATOM     30  N   UNL     1       2.996  -4.188  -2.175  0.00  0.00    -0.317 NA
ATOM     31  H   UNL     1       3.444  -4.197  -1.271  0.00  0.00    +0.119 HD
ATOM     32  H   UNL     1       1.993  -4.131  -2.082  0.00  0.00    +0.119 HD
ENDBRANCH   1  30
TORSDOF 3
