REMARK  Name = CHEMBL536485
REMARK  9 active torsions:
REMARK  status: ('A' for Active; 'I' for Inactive)
REMARK    1  A    between atoms: C_1  and  C_2
REMARK    2  A    between atoms: C_2  and  C_45
REMARK    3  A    between atoms: C_7  and  C_8
REMARK    4  A    between atoms: C_12  and  C_15
REMARK    5  A    between atoms: C_15  and  C_17
REMARK    6  A    between atoms: C_20  and  C_23
REMARK    7  A    between atoms: N_25  and  C_26
REMARK    8  A    between atoms: C_33  and  N_35
REMARK    9  A    between atoms: C_36  and  C_38
REMARK                            x       y       z     vdW  Elec       q    Type
REMARK                         _______ _______ _______ _____ _____    ______ ____
ROOT
ATOM      1  C   UNL     1       6.804  -0.194  -0.498  0.00  0.00    +0.023 A 
ATOM      2  C   UNL     1       7.149   0.905   0.290  0.00  0.00    +0.012 A 
ATOM      3  C   UNL     1       8.414   1.446   0.203  0.00  0.00    +0.014 A 
ATOM      4  C   UNL     1       9.350   0.893  -0.673  0.00  0.00    +0.037 A 
ATOM      5  C   UNL     1       9.005  -0.206  -1.462  0.00  0.00    +0.014 A 
ATOM      6  C   UNL     1       7.742  -0.750  -1.371  0.00  0.00    +0.012 A 
ENDROOT
BRANCH   4   7
ATOM      7  C   UNL     1      10.708   1.474  -0.767  0.00  0.00    +0.244 C 
ATOM      8  O   UNL     1      11.009   2.431  -0.081  0.00  0.00    -0.270 OA
ATOM      9  N   UNL     1      11.612   0.941  -1.613  0.00  0.00    -0.307 N 
ATOM     10  H   UNL     1      11.373   0.177  -2.160  0.00  0.00    +0.149 HD
BRANCH   9  11
ATOM     11  C   UNL     1      12.957   1.515  -1.705  0.00  0.00    +0.092 C 
ATOM     12  C   UNL     1      12.932   2.712  -2.689  0.00  0.00    +0.022 C 
ATOM     13  C   UNL     1      14.179   3.531  -2.490  0.00  0.00    -0.017 C 
ATOM     14  C   UNL     1      15.344   3.108  -3.404  0.00  0.00    -0.082 C 
ATOM     15  N   UNL     1      15.505   1.643  -3.517  0.00  0.00    +0.380 N 
ATOM     16  C   UNL     1      15.339   0.983  -2.244  0.00  0.00    -0.058 C 
ATOM     17  C   UNL     1      13.886   0.487  -2.157  0.00  0.00    +0.076 C 
ATOM     18  H   UNL     1      14.818   1.286  -4.164  0.00  0.00    -0.086 HD
ATOM     19  H   UNL     1      16.427   1.441  -3.874  0.00  0.00    -0.086 HD
BRANCH  17  20
ATOM     20  N   UNL     1      13.830  -0.641  -1.225  0.00  0.00    -0.309 N 
ATOM     21  C   UNL     1      14.172  -1.877  -1.641  0.00  0.00    +0.244 C 
ATOM     22  O   UNL     1      14.527  -2.054  -2.789  0.00  0.00    -0.270 OA
ATOM     23  H   UNL     1      13.546  -0.499  -0.308  0.00  0.00    +0.149 HD
BRANCH  21  24
ATOM     24  C   UNL     1      14.115  -3.018  -0.698  0.00  0.00    +0.040 A 
ATOM     25  C   UNL     1      13.704  -2.836   0.626  0.00  0.00    +0.033 A 
ATOM     26  C   UNL     1      13.665  -3.928   1.472  0.00  0.00    +0.111 A 
ATOM     27  N   UNL     1      14.009  -5.127   1.045  0.00  0.00    -0.263 NA
ATOM     28  C   UNL     1      14.403  -5.342  -0.195  0.00  0.00    +0.111 A 
ATOM     29  C   UNL     1      14.466  -4.308  -1.108  0.00  0.00    +0.033 A 
ENDBRANCH  21  24
ENDBRANCH  17  20
ENDBRANCH   9  11
ENDBRANCH   4   7
BRANCH   1  30
ATOM     30  C   UNL     1       5.446  -0.775  -0.404  0.00  0.00    +0.200 C 
ATOM     31  O   UNL     1       5.177  -1.793  -1.012  0.00  0.00    -0.286 OA
BRANCH  30  36
ATOM     32  C   UNL     1       3.248   0.085   2.517  0.00  0.00    -0.025 A 
ATOM     33  C   UNL     1       2.489   1.115   1.989  0.00  0.00    +0.008 A 
ATOM     34  C   UNL     1       2.685   1.535   0.688  0.00  0.00    +0.052 A 
ATOM     35  C   UNL     1       3.647   0.926  -0.103  0.00  0.00    +0.193 A 
ATOM     36  C   UNL     1       4.421  -0.120   0.425  0.00  0.00    +0.104 A 
ATOM     37  C   UNL     1       4.215  -0.532   1.748  0.00  0.00    +0.139 A 
ATOM     38  F   UNL     1       4.957  -1.533   2.269  0.00  0.00    -0.204 F 
ATOM     39  O   UNL     1       3.840   1.337  -1.381  0.00  0.00    -0.287 OA
BRANCH  32  46
ATOM     40  C   UNL     1       0.817  -1.339   3.281  0.00  0.00    +0.009 C 
ATOM     41  C   UNL     1       2.165  -1.631   3.943  0.00  0.00    -0.043 C 
ATOM     42  C   UNL     1       1.938  -2.081   5.389  0.00  0.00    +0.003 C 
ATOM     43  C   UNL     1       1.287  -0.938   6.173  0.00  0.00    -0.019 C 
ATOM     44  C   UNL     1       2.175   0.305   6.085  0.00  0.00    -0.082 C 
ATOM     45  N   UNL     1       2.333   0.700   4.681  0.00  0.00    +0.384 N 
ATOM     46  C   UNL     1       3.021  -0.362   3.938  0.00  0.00    -0.032 C 
ATOM     47  C   UNL     1       2.886  -2.737   3.170  0.00  0.00    +0.009 C 
ATOM     48  H   UNL     1       1.423   0.859   4.273  0.00  0.00    -0.085 HD
ATOM     49  H   UNL     1       2.874   1.550   4.630  0.00  0.00    -0.085 HD
ENDBRANCH  32  46
ENDBRANCH  30  36
ENDBRANCH   1  30
TORSDOF 7
