REMARK  Name = CHEMBL374742
REMARK  3 active torsions:
REMARK  status: ('A' for Active; 'I' for Inactive)
REMARK    1  A    between atoms: C_4  and  C_7
REMARK    2  A    between atoms: C_7  and  C_13
REMARK    3  A    between atoms: C_16  and  C_19
REMARK                            x       y       z     vdW  Elec       q    Type
REMARK                         _______ _______ _______ _____ _____    ______ ____
ROOT
ATOM      1  C   UNL     1       3.711  -0.707  -0.038  0.00  0.00    +0.017 C 
ATOM      2  C   UNL     1       4.685  -0.570   1.136  0.00  0.00    -0.003 C 
ATOM      3  C   UNL     1       5.793  -1.616   0.998  0.00  0.00    -0.081 C 
ATOM      4  N   UNL     1       5.204  -2.961   1.004  0.00  0.00    +0.379 N 
ATOM      5  C   UNL     1       4.324  -3.124  -0.159  0.00  0.00    -0.081 C 
ATOM      6  C   UNL     1       3.160  -2.135  -0.066  0.00  0.00    -0.003 C 
ATOM      7  H   UNL     1       5.941  -3.649   0.967  0.00  0.00    -0.086 HD
ATOM      8  H   UNL     1       4.669  -3.089   1.850  0.00  0.00    -0.086 HD
ENDROOT
BRANCH   1  12
ATOM      9  C   UNL     1       0.491   2.058   0.444  0.00  0.00    +0.000 A 
ATOM     10  C   UNL     1       1.797   2.510   0.452  0.00  0.00    +0.000 A 
ATOM     11  C   UNL     1       2.839   1.615   0.296  0.00  0.00    +0.004 A 
ATOM     12  C   UNL     1       2.575   0.268   0.133  0.00  0.00    -0.037 A 
ATOM     13  C   UNL     1       1.269  -0.184   0.127  0.00  0.00    +0.004 A 
ATOM     14  C   UNL     1       0.227   0.711   0.281  0.00  0.00    +0.000 A 
ENDBRANCH   1  12
BRANCH   1  15
ATOM     15  C   UNL     1       4.432  -0.420  -1.329  0.00  0.00    -0.037 A 
ATOM     16  C   UNL     1       3.801  -0.654  -2.538  0.00  0.00    +0.005 A 
ATOM     17  C   UNL     1       4.457  -0.392  -3.724  0.00  0.00    +0.009 A 
ATOM     18  C   UNL     1       5.756   0.109  -3.702  0.00  0.00    -0.015 A 
ATOM     19  C   UNL     1       6.387   0.343  -2.482  0.00  0.00    +0.009 A 
ATOM     20  C   UNL     1       5.721   0.083  -1.302  0.00  0.00    +0.005 A 
BRANCH  18  21
ATOM     21  C   UNL     1       6.467   0.392  -4.975  0.00  0.00    +0.019 A 
ATOM     22  C   UNL     1       7.736   0.877  -5.099  0.00  0.00    +0.113 A 
ATOM     23  N   UNL     1       8.002   0.991  -6.416  0.00  0.00    -0.284 N 
ATOM     24  H   UNL     1       8.832   1.311  -6.803  0.00  0.00    +0.188 HD
ATOM     25  N   UNL     1       6.873   0.568  -7.128  0.00  0.00    -0.182 NA
ATOM     26  C   UNL     1       5.955   0.203  -6.273  0.00  0.00    +0.142 A 
ENDBRANCH  18  21
ENDBRANCH   1  15
TORSDOF 3
