REMARK  Name = CHEMBL512135
REMARK  6 active torsions:
REMARK  status: ('A' for Active; 'I' for Inactive)
REMARK    1  A    between atoms: C_4  and  C_7
REMARK    2  A    between atoms: C_7  and  C_8
REMARK    3  A    between atoms: C_7  and  N_10
REMARK    4  A    between atoms: C_8  and  N_9
REMARK    5  A    between atoms: C_11  and  C_13
REMARK    6  A    between atoms: C_16  and  C_18
REMARK                            x       y       z     vdW  Elec       q    Type
REMARK                         _______ _______ _______ _____ _____    ______ ____
ROOT
ATOM      1  N   UNL     1       3.615  -1.695   1.091  0.00  0.00    -0.306 N 
ATOM      2  C   UNL     1       4.745  -2.309   1.496  0.00  0.00    +0.251 C 
ATOM      3  O   UNL     1       5.829  -1.861   1.172  0.00  0.00    -0.270 OA
ATOM      4  H   UNL     1       2.750  -2.052   1.349  0.00  0.00    +0.150 HD
ENDROOT
BRANCH   2   5
ATOM      5  C   UNL     1       4.667  -3.515   2.325  0.00  0.00    +0.075 A 
ATOM      6  C   UNL     1       5.699  -4.284   2.844  0.00  0.00    +0.036 A 
ATOM      7  C   UNL     1       5.386  -5.378   3.600  0.00  0.00    +0.033 A 
ATOM      8  C   UNL     1       4.049  -5.678   3.817  0.00  0.00    +0.035 A 
ATOM      9  S   UNL     1       3.221  -4.367   2.932  0.00  0.00    -0.083 S 
ATOM     10 BR   UNL     1       6.748  -6.465   4.334  0.00  0.00    -0.049 Br
BRANCH   8  11
ATOM     11  C   UNL     1       3.462  -6.790   4.588  0.00  0.00    +0.002 A 
ATOM     12  C   UNL     1       3.918  -7.100   5.872  0.00  0.00    +0.029 A 
ATOM     13  C   UNL     1       3.340  -8.151   6.559  0.00  0.00    +0.114 A 
ATOM     14  N   UNL     1       2.369  -8.870   6.035  0.00  0.00    -0.237 NA
ATOM     15  C   UNL     1       1.890  -8.629   4.821  0.00  0.00    +0.139 A 
ATOM     16  C   UNL     1       2.418  -7.573   4.056  0.00  0.00    +0.027 A 
ATOM     17  C   UNL     1       1.680  -7.571   2.796  0.00  0.00    +0.029 A 
ATOM     18  C   UNL     1       0.785  -8.572   2.865  0.00  0.00    +0.085 A 
ATOM     19  N   UNL     1       0.905  -9.219   4.065  0.00  0.00    -0.346 N 
ATOM     20  H   UNL     1       0.366  -9.976   4.346  0.00  0.00    +0.167 HD
ENDBRANCH   8  11
ENDBRANCH   2   5
BRANCH   1  21
ATOM     21  C   UNL     1       3.692  -0.490   0.262  0.00  0.00    +0.086 C 
BRANCH  21  25
ATOM     22  C   UNL     1       0.144   1.830   0.785  0.00  0.00    +0.000 A 
ATOM     23  C   UNL     1       1.372   2.457   0.693  0.00  0.00    +0.000 A 
ATOM     24  C   UNL     1       2.521   1.707   0.524  0.00  0.00    +0.005 A 
ATOM     25  C   UNL     1       2.441   0.329   0.447  0.00  0.00    -0.029 A 
ATOM     26  C   UNL     1       1.212  -0.298   0.541  0.00  0.00    +0.005 A 
ATOM     27  C   UNL     1       0.064   0.452   0.708  0.00  0.00    +0.000 A 
ENDBRANCH  21  25
BRANCH  21  28
ATOM     28  C   UNL     1       3.827  -0.890  -1.208  0.00  0.00    -0.059 C 
BRANCH  28  29
ATOM     29  N   UNL     1       4.981  -1.786  -1.368  0.00  0.00    +0.380 N 
ATOM     30  H   UNL     1       5.069  -2.050  -2.338  0.00  0.00    -0.090 HD
ATOM     31  H   UNL     1       5.819  -1.311  -1.071  0.00  0.00    -0.090 HD
ATOM     32  H   UNL     1       4.845  -2.612  -0.806  0.00  0.00    -0.090 HD
ENDBRANCH  28  29
ENDBRANCH  21  28
ENDBRANCH   1  21
TORSDOF 6
