REMARK  Name = CHEMBL536718
REMARK  10 active torsions:
REMARK  status: ('A' for Active; 'I' for Inactive)
REMARK    1  A    between atoms: C_1  and  N_2
REMARK    2  A    between atoms: N_2  and  C_3
REMARK    3  A    between atoms: N_2  and  C_4
REMARK    4  A    between atoms: C_7  and  O_39
REMARK    5  A    between atoms: C_8  and  C_10
REMARK    6  A    between atoms: C_10  and  C_12
REMARK    7  A    between atoms: C_15  and  C_18
REMARK    8  A    between atoms: N_20  and  C_21
REMARK    9  A    between atoms: C_28  and  N_30
REMARK   10  A    between atoms: C_31  and  C_33
REMARK                            x       y       z     vdW  Elec       q    Type
REMARK                         _______ _______ _______ _____ _____    ______ ____
ROOT
ATOM      1  C   UNL     1       0.344   5.767  -4.885  0.00  0.00    +0.244 C 
ATOM      2  O   UNL     1       0.442   6.368  -3.833  0.00  0.00    -0.270 OA
ATOM      3  N   UNL     1       0.325   6.446  -6.049  0.00  0.00    -0.307 N 
ATOM      4  H   UNL     1       0.247   5.967  -6.889  0.00  0.00    +0.149 HD
ENDROOT
BRANCH   3   5
ATOM      5  C   UNL     1       0.421   7.908  -6.046  0.00  0.00    +0.092 C 
ATOM      6  C   UNL     1      -0.988   8.510  -5.819  0.00  0.00    +0.022 C 
ATOM      7  C   UNL     1      -0.842   9.956  -5.427  0.00  0.00    -0.017 C 
ATOM      8  C   UNL     1      -0.880  10.924  -6.623  0.00  0.00    -0.082 C 
ATOM      9  N   UNL     1      -0.100  10.454  -7.788  0.00  0.00    +0.380 N 
ATOM     10  C   UNL     1       1.162   9.878  -7.395  0.00  0.00    -0.058 C 
ATOM     11  C   UNL     1       0.980   8.353  -7.317  0.00  0.00    +0.076 C 
ATOM     12  H   UNL     1      -0.638   9.759  -8.285  0.00  0.00    -0.086 HD
ATOM     13  H   UNL     1       0.073  11.235  -8.404  0.00  0.00    -0.086 HD
BRANCH  11  14
ATOM     14  N   UNL     1       2.284   7.714  -7.507  0.00  0.00    -0.309 N 
ATOM     15  C   UNL     1       2.774   7.539  -8.751  0.00  0.00    +0.244 C 
ATOM     16  O   UNL     1       2.134   7.913  -9.714  0.00  0.00    -0.270 OA
ATOM     17  H   UNL     1       2.795   7.415  -6.739  0.00  0.00    +0.149 HD
BRANCH  15  18
ATOM     18  C   UNL     1       4.093   6.892  -8.944  0.00  0.00    +0.040 A 
ATOM     19  C   UNL     1       4.843   6.450  -7.850  0.00  0.00    +0.033 A 
ATOM     20  C   UNL     1       6.067   5.852  -8.075  0.00  0.00    +0.111 A 
ATOM     21  N   UNL     1       6.529   5.696  -9.300  0.00  0.00    -0.263 NA
ATOM     22  C   UNL     1       5.855   6.099 -10.358  0.00  0.00    +0.111 A 
ATOM     23  C   UNL     1       4.619   6.702 -10.225  0.00  0.00    +0.033 A 
ENDBRANCH  15  18
ENDBRANCH  11  14
ENDBRANCH   3   5
BRANCH   1  27
ATOM     24  C   UNL     1       0.065   1.522  -4.893  0.00  0.00    +0.022 A 
ATOM     25  C   UNL     1       0.177   2.212  -3.685  0.00  0.00    +0.012 A 
ATOM     26  C   UNL     1       0.268   3.587  -3.682  0.00  0.00    +0.014 A 
ATOM     27  C   UNL     1       0.247   4.290  -4.888  0.00  0.00    +0.037 A 
ATOM     28  C   UNL     1       0.135   3.601  -6.096  0.00  0.00    +0.014 A 
ATOM     29  C   UNL     1       0.050   2.225  -6.100  0.00  0.00    +0.012 A 
BRANCH  24  30
ATOM     30  C   UNL     1      -0.032   0.046  -4.896  0.00  0.00    +0.197 C 
ATOM     31  O   UNL     1       0.080  -0.573  -3.856  0.00  0.00    -0.287 OA
BRANCH  30  36
ATOM     32  C   UNL     1       0.560  -2.024  -7.975  0.00  0.00    +0.030 A 
ATOM     33  C   UNL     1      -0.710  -2.031  -8.544  0.00  0.00    +0.027 A 
ATOM     34  C   UNL     1      -1.752  -1.367  -7.931  0.00  0.00    +0.048 A 
ATOM     35  C   UNL     1      -1.542  -0.686  -6.741  0.00  0.00    +0.128 A 
ATOM     36  C   UNL     1      -0.265  -0.675  -6.161  0.00  0.00    +0.065 A 
ATOM     37  C   UNL     1       0.785  -1.355  -6.785  0.00  0.00    +0.038 A 
BRANCH  32  39
ATOM     38  C   UNL     1       2.948  -2.699  -8.004  0.00  0.00    +0.129 C 
ATOM     39  N   UNL     1       1.611  -2.700  -8.605  0.00  0.00    -0.336 N 
ATOM     40  C   UNL     1       1.375  -3.410  -9.865  0.00  0.00    +0.129 C 
ENDBRANCH  32  39
BRANCH  35  41
ATOM     41  O   UNL     1      -2.568  -0.033  -6.140  0.00  0.00    -0.506 OA
ATOM     42  H   UNL     1      -3.066  -0.575  -5.512  0.00  0.00    +0.292 HD
ENDBRANCH  35  41
ENDBRANCH  30  36
ENDBRANCH  24  30
ENDBRANCH   1  27
TORSDOF 8
