REMARK  Name = CHEMBL512135
REMARK  6 active torsions:
REMARK  status: ('A' for Active; 'I' for Inactive)
REMARK    1  A    between atoms: C_4  and  C_7
REMARK    2  A    between atoms: C_7  and  C_8
REMARK    3  A    between atoms: C_7  and  N_10
REMARK    4  A    between atoms: C_8  and  N_9
REMARK    5  A    between atoms: C_11  and  C_13
REMARK    6  A    between atoms: C_16  and  C_18
REMARK                            x       y       z     vdW  Elec       q    Type
REMARK                         _______ _______ _______ _____ _____    ______ ____
ROOT
ATOM      1  N   UNL     1       3.667  -2.055  -0.700  0.00  0.00    -0.306 N 
ATOM      2  C   UNL     1       4.744  -2.452  -1.406  0.00  0.00    +0.251 C 
ATOM      3  O   UNL     1       5.810  -1.883  -1.259  0.00  0.00    -0.270 OA
ATOM      4  H   UNL     1       2.817  -2.509  -0.817  0.00  0.00    +0.150 HD
ENDROOT
BRANCH   2   5
ATOM      5  C   UNL     1       4.633  -3.568  -2.349  0.00  0.00    +0.075 A 
ATOM      6  C   UNL     1       5.612  -4.127  -3.158  0.00  0.00    +0.036 A 
ATOM      7  C   UNL     1       5.275  -5.175  -3.968  0.00  0.00    +0.033 A 
ATOM      8  C   UNL     1       3.967  -5.638  -3.950  0.00  0.00    +0.035 A 
ATOM      9  S   UNL     1       3.203  -4.561  -2.748  0.00  0.00    -0.083 S 
ATOM     10 BR   UNL     1       6.566  -5.979  -5.092  0.00  0.00    -0.049 Br
BRANCH   8  11
ATOM     11  C   UNL     1       3.364  -6.740  -4.721  0.00  0.00    +0.002 A 
ATOM     12  C   UNL     1       3.986  -7.989  -4.805  0.00  0.00    +0.029 A 
ATOM     13  C   UNL     1       3.385  -8.994  -5.540  0.00  0.00    +0.114 A 
ATOM     14  N   UNL     1       2.241  -8.807  -6.164  0.00  0.00    -0.237 NA
ATOM     15  C   UNL     1       1.598  -7.647  -6.125  0.00  0.00    +0.139 A 
ATOM     16  C   UNL     1       2.137  -6.572  -5.394  0.00  0.00    +0.027 A 
ATOM     17  C   UNL     1       1.198  -5.463  -5.545  0.00  0.00    +0.029 A 
ATOM     18  C   UNL     1       0.190  -5.907  -6.315  0.00  0.00    +0.085 A 
ATOM     19  N   UNL     1       0.419  -7.207  -6.677  0.00  0.00    -0.346 N 
ATOM     20  H   UNL     1      -0.170  -7.742  -7.231  0.00  0.00    +0.167 HD
ENDBRANCH   8  11
ENDBRANCH   2   5
BRANCH   1  21
ATOM     21  C   UNL     1       3.778  -0.940   0.243  0.00  0.00    +0.086 C 
BRANCH  21  25
ATOM     22  C   UNL     1      -0.056   0.870   0.766  0.00  0.00    +0.000 A 
ATOM     23  C   UNL     1       1.076   1.659   0.685  0.00  0.00    +0.000 A 
ATOM     24  C   UNL     1       2.317   1.074   0.516  0.00  0.00    +0.005 A 
ATOM     25  C   UNL     1       2.426  -0.302   0.428  0.00  0.00    -0.029 A 
ATOM     26  C   UNL     1       1.294  -1.091   0.510  0.00  0.00    +0.005 A 
ATOM     27  C   UNL     1       0.053  -0.505   0.678  0.00  0.00    +0.000 A 
ENDBRANCH  21  25
BRANCH  21  28
ATOM     28  C   UNL     1       4.286  -1.460   1.589  0.00  0.00    -0.059 C 
BRANCH  28  29
ATOM     29  N   UNL     1       5.546  -2.187   1.390  0.00  0.00    +0.380 N 
ATOM     30  H   UNL     1       5.881  -2.530   2.278  0.00  0.00    -0.090 HD
ATOM     31  H   UNL     1       5.391  -2.965   0.766  0.00  0.00    -0.090 HD
ATOM     32  H   UNL     1       6.233  -1.566   0.989  0.00  0.00    -0.090 HD
ENDBRANCH  28  29
ENDBRANCH  21  28
ENDBRANCH   1  21
TORSDOF 6
