REMARK  Name = CHEMBL534916
REMARK  10 active torsions:
REMARK  status: ('A' for Active; 'I' for Inactive)
REMARK    1  A    between atoms: C_1  and  C_2
REMARK    2  A    between atoms: C_2  and  C_44
REMARK    3  A    between atoms: N_6  and  C_8
REMARK    4  A    between atoms: C_11  and  O_43
REMARK    5  A    between atoms: C_12  and  C_14
REMARK    6  A    between atoms: C_14  and  C_16
REMARK    7  A    between atoms: C_19  and  C_22
REMARK    8  A    between atoms: N_24  and  C_25
REMARK    9  A    between atoms: C_32  and  N_34
REMARK   10  A    between atoms: C_35  and  C_37
REMARK                            x       y       z     vdW  Elec       q    Type
REMARK                         _______ _______ _______ _____ _____    ______ ____
ROOT
ATOM      1  C   UNL     1       0.682  -6.801   1.867  0.00  0.00    +0.022 A 
ATOM      2  C   UNL     1       1.169  -5.913   0.906  0.00  0.00    +0.012 A 
ATOM      3  C   UNL     1       1.680  -6.394  -0.280  0.00  0.00    +0.014 A 
ATOM      4  C   UNL     1       1.711  -7.769  -0.520  0.00  0.00    +0.037 A 
ATOM      5  C   UNL     1       1.224  -8.657   0.440  0.00  0.00    +0.014 A 
ATOM      6  C   UNL     1       0.719  -8.177   1.629  0.00  0.00    +0.012 A 
ENDROOT
BRANCH   4   7
ATOM      7  C   UNL     1       2.260  -8.285  -1.794  0.00  0.00    +0.244 C 
ATOM      8  O   UNL     1       2.684  -7.512  -2.631  0.00  0.00    -0.270 OA
ATOM      9  N   UNL     1       2.290  -9.612  -2.026  0.00  0.00    -0.307 N 
ATOM     10  H   UNL     1       1.952 -10.229  -1.359  0.00  0.00    +0.149 HD
BRANCH   9  11
ATOM     11  C   UNL     1       2.834 -10.123  -3.288  0.00  0.00    +0.092 C 
ATOM     12  C   UNL     1       1.726 -10.088  -4.370  0.00  0.00    +0.022 C 
ATOM     13  C   UNL     1       2.366 -10.230  -5.725  0.00  0.00    -0.017 C 
ATOM     14  C   UNL     1       2.463 -11.688  -6.208  0.00  0.00    -0.082 C 
ATOM     15  N   UNL     1       2.890 -12.633  -5.154  0.00  0.00    +0.380 N 
ATOM     16  C   UNL     1       3.954 -12.092  -4.344  0.00  0.00    -0.058 C 
ATOM     17  C   UNL     1       3.321 -11.481  -3.083  0.00  0.00    +0.076 C 
ATOM     18  H   UNL     1       2.101 -12.843  -4.562  0.00  0.00    -0.086 HD
ATOM     19  H   UNL     1       3.209 -13.486  -5.588  0.00  0.00    -0.086 HD
BRANCH  17  20
ATOM     20  N   UNL     1       4.324 -11.466  -2.015  0.00  0.00    -0.309 N 
ATOM     21  C   UNL     1       4.558 -12.581  -1.295  0.00  0.00    +0.244 C 
ATOM     22  O   UNL     1       3.938 -13.599  -1.532  0.00  0.00    -0.270 OA
ATOM     23  H   UNL     1       4.819 -10.653  -1.826  0.00  0.00    +0.149 HD
BRANCH  21  24
ATOM     24  C   UNL     1       5.572 -12.565  -0.214  0.00  0.00    +0.040 A 
ATOM     25  C   UNL     1       6.292 -11.403   0.079  0.00  0.00    +0.033 A 
ATOM     26  C   UNL     1       7.228 -11.433   1.095  0.00  0.00    +0.111 A 
ATOM     27  N   UNL     1       7.444 -12.537   1.783  0.00  0.00    -0.263 NA
ATOM     28  C   UNL     1       6.788 -13.653   1.539  0.00  0.00    +0.111 A 
ATOM     29  C   UNL     1       5.830 -13.711   0.545  0.00  0.00    +0.033 A 
ENDBRANCH  21  24
ENDBRANCH  17  20
ENDBRANCH   9  11
ENDBRANCH   4   7
BRANCH   1  30
ATOM     30  C   UNL     1       0.133  -6.286   3.141  0.00  0.00    +0.197 C 
ATOM     31  O   UNL     1       0.026  -5.087   3.316  0.00  0.00    -0.287 OA
BRANCH  30  36
ATOM     32  C   UNL     1       0.120  -8.294   6.316  0.00  0.00    +0.031 A 
ATOM     33  C   UNL     1      -1.075  -8.996   6.186  0.00  0.00    +0.027 A 
ATOM     34  C   UNL     1      -1.871  -8.818   5.073  0.00  0.00    +0.048 A 
ATOM     35  C   UNL     1      -1.486  -7.936   4.074  0.00  0.00    +0.128 A 
ATOM     36  C   UNL     1      -0.284  -7.224   4.198  0.00  0.00    +0.065 A 
ATOM     37  C   UNL     1       0.515  -7.406   5.331  0.00  0.00    +0.038 A 
BRANCH  32  43
ATOM     38  C   UNL     1       4.644  -8.245   8.095  0.00  0.00    +0.012 C 
ATOM     39  C   UNL     1       3.288  -8.912   7.854  0.00  0.00    -0.019 C 
ATOM     40  C   UNL     1       2.870  -9.688   9.105  0.00  0.00    +0.009 C 
ATOM     41  C   UNL     1       1.530 -10.382   8.853  0.00  0.00    +0.019 C 
ATOM     42  C   UNL     1       0.460  -9.326   8.559  0.00  0.00    +0.105 C 
ATOM     43  N   UNL     1       0.920  -8.482   7.449  0.00  0.00    -0.329 N 
ATOM     44  C   UNL     1       2.238  -7.839   7.549  0.00  0.00    +0.111 C 
ATOM     45  C   UNL     1       3.395  -9.872   6.668  0.00  0.00    +0.012 C 
ENDBRANCH  32  43
BRANCH  35  46
ATOM     46  O   UNL     1      -2.270  -7.763   2.980  0.00  0.00    -0.506 OA
ATOM     47  H   UNL     1      -2.926  -7.060   3.074  0.00  0.00    +0.292 HD
ENDBRANCH  35  46
ENDBRANCH  30  36
ENDBRANCH   1  30
TORSDOF 8
