REMARK  Name = CHEMBL596990
REMARK  2 active torsions:
REMARK  status: ('A' for Active; 'I' for Inactive)
REMARK    1  A    between atoms: C_11  and  C_13
REMARK    2  A    between atoms: C_13  and  N_29
REMARK                            x       y       z     vdW  Elec       q    Type
REMARK                         _______ _______ _______ _____ _____    ______ ____
ROOT
ATOM      1  C   UNL     1       5.589  -2.091   1.675  0.00  0.00    +0.010 C 
ATOM      2  C   UNL     1       6.834  -2.067   0.785  0.00  0.00    +0.015 C 
ATOM      3  C   UNL     1       7.178  -3.496   0.355  0.00  0.00    +0.105 C 
ATOM      4  N   UNL     1       7.312  -4.332   1.557  0.00  0.00    -0.315 N 
ATOM      5  C   UNL     1       6.208  -4.357   2.526  0.00  0.00    +0.105 C 
ATOM      6  C   UNL     1       5.875  -2.918   2.932  0.00  0.00    +0.015 C 
ATOM      7  C   UNL     1       8.455  -5.081   1.770  0.00  0.00    +0.134 A 
ATOM      8  C   UNL     1       8.516  -6.428   1.381  0.00  0.00    +0.059 A 
ATOM      9  C   UNL     1       7.595  -7.362   0.738  0.00  0.00    +0.032 A 
ATOM     10  C   UNL     1       8.242  -8.534   0.630  0.00  0.00    +0.085 A 
ATOM     11  N   UNL     1       9.504  -8.417   1.154  0.00  0.00    -0.346 N 
ATOM     12  H   UNL     1      10.160  -9.131   1.189  0.00  0.00    +0.167 HD
ATOM     13  C   UNL     1       9.701  -7.146   1.620  0.00  0.00    +0.143 A 
ATOM     14  N   UNL     1      10.719  -6.518   2.207  0.00  0.00    -0.218 NA
ATOM     15  C   UNL     1      10.618  -5.254   2.556  0.00  0.00    +0.225 A 
ATOM     16  N   UNL     1       9.526  -4.541   2.344  0.00  0.00    -0.220 NA
ENDROOT
BRANCH   1  27
ATOM     17  C   UNL     1       2.024   1.563  -2.761  0.00  0.00    +0.000 A 
ATOM     18  C   UNL     1       3.333   1.950  -2.539  0.00  0.00    +0.000 A 
ATOM     19  C   UNL     1       4.212   1.077  -1.933  0.00  0.00    +0.005 A 
ATOM     20  C   UNL     1       3.791  -0.187  -1.541  0.00  0.00    -0.027 A 
ATOM     21  C   UNL     1       2.486  -0.571  -1.752  0.00  0.00    -0.041 A 
ATOM     22  C   UNL     1       1.605   0.308  -2.370  0.00  0.00    +0.004 A 
ATOM     23  C   UNL     1       1.950  -1.913  -1.327  0.00  0.00    +0.054 C 
ATOM     24  C   UNL     1       3.087  -2.913  -1.124  0.00  0.00    +0.112 C 
ATOM     25  N   UNL     1       4.127  -2.259  -0.312  0.00  0.00    -0.298 N 
ATOM     26  C   UNL     1       4.806  -1.098  -0.897  0.00  0.00    +0.143 C 
ATOM     27  C   UNL     1       4.442  -2.709   0.918  0.00  0.00    +0.205 C 
ATOM     28  O   UNL     1       3.803  -3.612   1.416  0.00  0.00    -0.277 OA
ENDBRANCH   1  27
BRANCH   1  29
ATOM     29  N   UNL     1       5.237  -0.719   2.062  0.00  0.00    +0.388 N 
ATOM     30  H   UNL     1       4.535  -0.743   2.787  0.00  0.00    -0.089 HD
ATOM     31  H   UNL     1       6.059  -0.245   2.406  0.00  0.00    -0.089 HD
ATOM     32  H   UNL     1       4.876  -0.225   1.260  0.00  0.00    -0.089 HD
ENDBRANCH   1  29
TORSDOF 2
