REMARK  Name = CHEMBL367601
REMARK  7 active torsions:
REMARK  status: ('A' for Active; 'I' for Inactive)
REMARK    1  A    between atoms: C_1  and  C_2
REMARK    2  A    between atoms: C_9  and  C_12
REMARK    3  A    between atoms: N_15  and  C_18
REMARK    4  A    between atoms: C_18  and  C_19
REMARK    5  A    between atoms: C_22  and  C_25
REMARK    6  A    between atoms: C_26  and  C_36
REMARK    7  A    between atoms: C_28  and  C_31
REMARK                            x       y       z     vdW  Elec       q    Type
REMARK                         _______ _______ _______ _____ _____    ______ ____
ROOT
ATOM      1  C   UNL     1      -1.961 -10.176   3.152  0.00  0.00    -0.064 A 
ATOM      2  C   UNL     1      -2.812  -9.883   4.203  0.00  0.00    +0.002 A 
ATOM      3  C   UNL     1      -4.105 -10.364   4.202  0.00  0.00    +0.010 A 
ATOM      4  C   UNL     1      -4.554 -11.149   3.140  0.00  0.00    +0.001 A 
ATOM      5  C   UNL     1      -3.691 -11.441   2.084  0.00  0.00    +0.010 A 
ATOM      6  C   UNL     1      -2.402 -10.949   2.093  0.00  0.00    +0.002 A 
ENDROOT
BRANCH   4   7
ATOM      7  C   UNL     1      -5.941 -11.669   3.134  0.00  0.00    +0.079 A 
ATOM      8  C   UNL     1      -6.633 -11.789   1.917  0.00  0.00    +0.009 A 
ATOM      9  C   UNL     1      -7.936 -12.280   1.928  0.00  0.00    +0.023 A 
ATOM     10  C   UNL     1      -8.500 -12.635   3.157  0.00  0.00    +0.041 A 
ATOM     11  C   UNL     1      -7.745 -12.485   4.322  0.00  0.00    +0.123 A 
ATOM     12  N   UNL     1      -6.514 -12.023   4.276  0.00  0.00    -0.254 NA
BRANCH   8  13
ATOM     13  C   UNL     1      -5.986 -11.398   0.641  0.00  0.00    -0.016 A 
ATOM     14  C   UNL     1      -5.358 -10.159   0.527  0.00  0.00    +0.008 A 
ATOM     15  C   UNL     1      -4.757  -9.800  -0.663  0.00  0.00    +0.001 A 
ATOM     16  C   UNL     1      -4.779 -10.667  -1.741  0.00  0.00    +0.000 A 
ATOM     17  C   UNL     1      -5.402 -11.898  -1.633  0.00  0.00    +0.001 A 
ATOM     18  C   UNL     1      -6.000 -12.270  -0.446  0.00  0.00    +0.008 A 
ENDBRANCH   8  13
BRANCH  10  19
ATOM     19  C   UNL     1      -9.881 -13.162   3.223  0.00  0.00    +0.208 A 
ATOM     20  N   UNL     1     -10.541 -13.537   4.320  0.00  0.00    -0.106 NA
ATOM     21  N   UNL     1     -11.711 -13.934   3.952  0.00  0.00    -0.021 NA
ATOM     22  N   UNL     1     -11.814 -13.824   2.674  0.00  0.00    -0.021 NA
ATOM     23  N   UNL     1     -10.714 -13.350   2.197  0.00  0.00    -0.106 NA
ENDBRANCH  10  19
ENDBRANCH   4   7
BRANCH   1  24
ATOM     24  C   UNL     1      -0.550  -9.647   3.159  0.00  0.00    -0.043 C 
BRANCH  24  28
ATOM     25  C   UNL     1       0.090  -5.501   2.410  0.00  0.00    +0.052 C 
ATOM     26  C   UNL     1       0.920  -6.541   1.652  0.00  0.00    -0.008 C 
ATOM     27  C   UNL     1       0.873  -7.872   2.405  0.00  0.00    -0.078 C 
ATOM     28  N   UNL     1      -0.517  -8.332   2.505  0.00  0.00    +0.382 N 
ATOM     29  C   UNL     1      -1.304  -7.375   3.292  0.00  0.00    -0.078 C 
ATOM     30  C   UNL     1      -1.340  -6.025   2.574  0.00  0.00    -0.008 C 
ATOM     31  H   UNL     1      -0.912  -8.409   1.579  0.00  0.00    -0.081 HD
BRANCH  25  40
ATOM     32  C   UNL     1      -0.018   1.503   0.010  0.00  0.00    +0.044 C 
ATOM     33  C   UNL     1       0.002  -0.004   0.002  0.00  0.00    -0.048 A 
ATOM     34  C   UNL     1       0.006  -0.684  -1.208  0.00  0.00    +0.005 A 
ATOM     35  C   UNL     1       0.024  -2.062  -1.234  0.00  0.00    +0.028 A 
ATOM     36  C   UNL     1       0.040  -2.773  -0.042  0.00  0.00    +0.066 A 
ATOM     37  C   UNL     1       0.037  -2.084   1.183  0.00  0.00    +0.089 A 
ATOM     38  C   UNL     1       0.023  -0.686   1.185  0.00  0.00    +0.033 A 
ATOM     39  N   UNL     1       0.054  -3.022   2.165  0.00  0.00    -0.232 NA
ATOM     40  C   UNL     1       0.068  -4.210   1.634  0.00  0.00    +0.111 A 
ATOM     41  N   UNL     1       0.060  -4.116   0.277  0.00  0.00    -0.342 N 
ATOM     42  H   UNL     1       0.066  -4.856  -0.350  0.00  0.00    +0.167 HD
ENDBRANCH  25  40
ENDBRANCH  24  28
ENDBRANCH   1  24
TORSDOF 6
