REMARK  Name = CHEMBL375236
REMARK  3 active torsions:
REMARK  status: ('A' for Active; 'I' for Inactive)
REMARK    1  A    between atoms: C_3  and  C_7
REMARK    2  A    between atoms: C_9  and  C_13
REMARK    3  A    between atoms: C_17  and  N_24
REMARK                            x       y       z     vdW  Elec       q    Type
REMARK                         _______ _______ _______ _____ _____    ______ ____
ROOT
ATOM      1  C   UNL     1       7.293   2.249  -0.015  0.00  0.00    +0.039 C 
ATOM      2  C   UNL     1       8.112   3.356  -0.126  0.00  0.00    +0.048 C 
ATOM      3  C   UNL     1       9.584   3.374  -0.281  0.00  0.00    +0.010 A 
ATOM      4  C   UNL     1      10.546   2.372  -0.359  0.00  0.00    +0.033 A 
ATOM      5  C   UNL     1      11.881   2.713  -0.506  0.00  0.00    +0.035 A 
ATOM      6  C   UNL     1      12.252   4.052  -0.577  0.00  0.00    +0.025 A 
ATOM      7  C   UNL     1      11.301   5.048  -0.501  0.00  0.00    +0.026 A 
ATOM      8  C   UNL     1       9.957   4.723  -0.352  0.00  0.00    +0.042 A 
ATOM      9  N   UNL     1       8.819   5.517  -0.251  0.00  0.00    -0.281 N 
ATOM     10  C   UNL     1       7.710   4.768  -0.123  0.00  0.00    +0.249 C 
ATOM     11  O   UNL     1       6.571   5.188  -0.019  0.00  0.00    -0.270 OA
ATOM     12  H   UNL     1       8.824   6.487  -0.274  0.00  0.00    +0.155 HD
ENDROOT
BRANCH   5  13
ATOM     13  N   UNL     1      12.856   1.710  -0.585  0.00  0.00    -0.270 N 
ATOM     14  C   UNL     1      12.578   0.546  -1.204  0.00  0.00    +0.301 C 
ATOM     15  O   UNL     1      11.456   0.333  -1.621  0.00  0.00    -0.253 OA
ATOM     16  N   UNL     1      13.543  -0.382  -1.360  0.00  0.00    -0.313 N 
ATOM     17  H   UNL     1      13.732   1.854  -0.193  0.00  0.00    +0.156 HD
ATOM     18  H   UNL     1      14.437  -0.212  -1.026  0.00  0.00    +0.146 HD
ATOM     19  H   UNL     1      13.342  -1.220  -1.805  0.00  0.00    +0.146 HD
ENDBRANCH   5  13
BRANCH   1  22
ATOM     20  C   UNL     1       4.202   1.532  -1.746  0.00  0.00    +0.001 A 
ATOM     21  C   UNL     1       5.407   1.098  -1.165  0.00  0.00    +0.035 A 
ATOM     22  C   UNL     1       6.048   2.224  -0.678  0.00  0.00    +0.041 A 
ATOM     23  N   UNL     1       5.253   3.316  -0.955  0.00  0.00    -0.361 N 
ATOM     24  H   UNL     1       5.460   4.235  -0.724  0.00  0.00    +0.165 HD
ATOM     25  C   UNL     1       4.145   2.901  -1.603  0.00  0.00    +0.091 A 
BRANCH  20  28
ATOM     26  C   UNL     1       1.104   0.392  -3.542  0.00  0.00    +0.020 A 
ATOM     27  C   UNL     1       2.025   1.235  -2.944  0.00  0.00    +0.011 A 
ATOM     28  C   UNL     1       3.182   0.673  -2.399  0.00  0.00    +0.002 A 
ATOM     29  C   UNL     1       3.363  -0.706  -2.478  0.00  0.00    +0.119 A 
ATOM     30  N   UNL     1       2.459  -1.468  -3.057  0.00  0.00    -0.263 NA
ATOM     31  C   UNL     1       1.357  -0.967  -3.581  0.00  0.00    +0.111 A 
ENDBRANCH  20  28
ENDBRANCH   1  22
TORSDOF 3
