REMARK  Name = CHEMBL260463
REMARK  4 active torsions:
REMARK  status: ('A' for Active; 'I' for Inactive)
REMARK    1  A    between atoms: C_6  and  C_7
REMARK    2  A    between atoms: C_7  and  C_23
REMARK    3  A    between atoms: N_10  and  C_13
REMARK    4  A    between atoms: C_23  and  N_24
REMARK                            x       y       z     vdW  Elec       q    Type
REMARK                         _______ _______ _______ _____ _____    ______ ____
ROOT
ATOM      1  C   UNL     1      -1.289  -0.767   0.011  0.00  0.00    -0.017 C 
ATOM      2  C   UNL     1      -1.962  -0.379   1.329  0.00  0.00    +0.028 C 
ATOM      3  C   UNL     1      -3.343  -1.036   1.405  0.00  0.00    +0.106 C 
ATOM      4  N   UNL     1      -3.190  -2.484   1.210  0.00  0.00    -0.329 N 
ATOM      5  C   UNL     1      -2.477  -2.965   0.019  0.00  0.00    +0.106 C 
ATOM      6  C   UNL     1      -1.105  -2.286  -0.042  0.00  0.00    +0.028 C 
ENDROOT
BRANCH   4   7
ATOM      7  C   UNL     1      -3.708  -3.382   2.136  0.00  0.00    +0.042 A 
ATOM      8  C   UNL     1      -5.002  -3.879   2.007  0.00  0.00    +0.043 A 
ATOM      9  C   UNL     1      -5.482  -4.771   2.948  0.00  0.00    +0.115 A 
ATOM     10  N   UNL     1      -4.744  -5.164   3.967  0.00  0.00    -0.237 NA
ATOM     11  C   UNL     1      -3.503  -4.726   4.144  0.00  0.00    +0.140 A 
ATOM     12  C   UNL     1      -2.942  -3.822   3.226  0.00  0.00    +0.040 A 
ATOM     13  C   UNL     1      -1.583  -3.550   3.696  0.00  0.00    +0.031 A 
ATOM     14  C   UNL     1      -1.405  -4.273   4.813  0.00  0.00    +0.085 A 
ATOM     15  N   UNL     1      -2.547  -4.975   5.099  0.00  0.00    -0.346 N 
ATOM     16  H   UNL     1      -2.659  -5.569   5.858  0.00  0.00    +0.167 HD
ENDBRANCH   4   7
BRANCH   1  22
ATOM     17  C   UNL     1       0.137   1.284  -0.149  0.00  0.00    +0.005 A 
ATOM     18  C   UNL     1       1.371   1.901  -0.235  0.00  0.00    +0.020 A 
ATOM     19  C   UNL     1       2.526   1.139  -0.255  0.00  0.00    +0.041 A 
ATOM     20  C   UNL     1       2.444  -0.241  -0.189  0.00  0.00    +0.020 A 
ATOM     21  C   UNL     1       1.210  -0.857  -0.103  0.00  0.00    +0.005 A 
ATOM     22  C   UNL     1       0.057  -0.095  -0.083  0.00  0.00    -0.043 A 
ATOM     23 CL   UNL     1       4.075   1.913  -0.363  0.00  0.00    -0.084 Cl
ENDBRANCH   1  22
BRANCH   1  24
ATOM     24  C   UNL     1      -2.165  -0.319  -1.160  0.00  0.00    -0.075 C 
BRANCH  24  25
ATOM     25  N   UNL     1      -1.510  -0.674  -2.426  0.00  0.00    +0.379 N 
ATOM     26  H   UNL     1      -0.579  -0.285  -2.444  0.00  0.00    -0.090 HD
ATOM     27  H   UNL     1      -1.458  -1.678  -2.508  0.00  0.00    -0.090 HD
ATOM     28  H   UNL     1      -2.044  -0.301  -3.197  0.00  0.00    -0.090 HD
ENDBRANCH  24  25
ENDBRANCH   1  24
TORSDOF 4
