REMARK  Name = CHEMBL272292
REMARK  6 active torsions:
REMARK  status: ('A' for Active; 'I' for Inactive)
REMARK    1  A    between atoms: C_4  and  C_7
REMARK    2  A    between atoms: C_8  and  C_20
REMARK    3  A    between atoms: C_13  and  C_17
REMARK    4  A    between atoms: C_23  and  C_26
REMARK    5  A    between atoms: C_26  and  N_27
REMARK    6  A    between atoms: C_30  and  N_33
REMARK                            x       y       z     vdW  Elec       q    Type
REMARK                         _______ _______ _______ _____ _____    ______ ____
ROOT
ATOM      1  C   UNL     1       2.761  -2.411   1.594  0.00  0.00    +0.002 A 
ATOM      2  C   UNL     1       1.821  -1.528   2.125  0.00  0.00    +0.010 A 
ATOM      3  C   UNL     1       0.786  -2.012   2.899  0.00  0.00    +0.002 A 
ATOM      4  C   UNL     1       0.680  -3.369   3.148  0.00  0.00    -0.064 A 
ATOM      5  C   UNL     1       1.610  -4.249   2.624  0.00  0.00    +0.002 A 
ATOM      6  C   UNL     1       2.646  -3.778   1.843  0.00  0.00    +0.010 A 
ENDROOT
BRANCH   1   8
ATOM      7  C   UNL     1       3.619  -0.898  -0.273  0.00  0.00    +0.098 A 
ATOM      8  C   UNL     1       3.875  -1.898   0.763  0.00  0.00    +0.098 A 
ATOM      9  N   UNL     1       5.104  -2.342   0.954  0.00  0.00    -0.243 NA
ATOM     10  C   UNL     1       6.107  -1.877   0.201  0.00  0.00    +0.090 A 
ATOM     11  C   UNL     1       7.419  -2.349   0.403  0.00  0.00    +0.031 A 
ATOM     12  C   UNL     1       8.439  -1.878  -0.359  0.00  0.00    +0.017 A 
ATOM     13  C   UNL     1       8.206  -0.915  -1.359  0.00  0.00    +0.065 A 
ATOM     14  C   UNL     1       6.926  -0.431  -1.582  0.00  0.00    +0.045 A 
ATOM     15  C   UNL     1       5.859  -0.907  -0.803  0.00  0.00    +0.091 A 
ATOM     16  N   UNL     1       4.617  -0.452  -1.011  0.00  0.00    -0.243 NA
BRANCH   7  20
ATOM     17  C   UNL     1      -0.325   0.552  -0.914  0.00  0.00    +0.000 A 
ATOM     18  C   UNL     1       0.736   1.438  -0.871  0.00  0.00    +0.001 A 
ATOM     19  C   UNL     1       2.019   0.974  -0.663  0.00  0.00    +0.010 A 
ATOM     20  C   UNL     1       2.244  -0.393  -0.496  0.00  0.00    +0.002 A 
ATOM     21  C   UNL     1       1.170  -1.281  -0.541  0.00  0.00    +0.010 A 
ATOM     22  C   UNL     1      -0.108  -0.804  -0.749  0.00  0.00    +0.001 A 
ENDBRANCH   7  20
BRANCH  13  23
ATOM     23  C   UNL     1       9.330  -0.418  -2.174  0.00  0.00    +0.387 C 
ATOM     24  O   UNL     1      10.461  -0.843  -1.980  0.00  0.00    -0.241 OA
ATOM     25  O   UNL     1       9.132   0.418  -3.043  0.00  0.00    -0.241 OA
ENDBRANCH  13  23
ENDBRANCH   1   8
BRANCH   4  26
ATOM     26  C   UNL     1      -0.453  -3.890   3.994  0.00  0.00    -0.043 C 
BRANCH  26  27
ATOM     27  N   UNL     1      -1.601  -4.207   3.134  0.00  0.00    +0.382 N 
ATOM     28  C   UNL     1      -2.103  -2.974   2.516  0.00  0.00    -0.076 C 
ATOM     29  C   UNL     1      -3.247  -3.308   1.557  0.00  0.00    +0.006 C 
ATOM     30  C   UNL     1      -4.377  -3.987   2.336  0.00  0.00    +0.089 C 
ATOM     31  C   UNL     1      -3.825  -5.232   3.037  0.00  0.00    +0.006 C 
ATOM     32  C   UNL     1      -2.659  -4.826   3.941  0.00  0.00    -0.076 C 
ATOM     33  H   UNL     1      -1.312  -4.849   2.412  0.00  0.00    -0.081 HD
BRANCH  30  34
ATOM     34  N   UNL     1      -5.443  -4.379   1.411  0.00  0.00    -0.289 N 
ATOM     35  C   UNL     1      -6.763  -3.936   1.454  0.00  0.00    +0.070 A 
ATOM     36  C   UNL     1      -7.450  -3.070   2.292  0.00  0.00    +0.028 A 
ATOM     37  C   UNL     1      -8.791  -2.824   2.076  0.00  0.00    +0.002 A 
ATOM     38  C   UNL     1      -9.454  -3.437   1.026  0.00  0.00    +0.002 A 
ATOM     39  C   UNL     1      -8.779  -4.302   0.187  0.00  0.00    +0.028 A 
ATOM     40  C   UNL     1      -7.431  -4.555   0.396  0.00  0.00    +0.067 A 
ATOM     41  N   UNL     1      -6.497  -5.354  -0.258  0.00  0.00    -0.306 N 
ATOM     42  H   UNL     1      -6.668  -5.908  -1.036  0.00  0.00    +0.170 HD
ATOM     43  C   UNL     1      -5.313  -5.223   0.370  0.00  0.00    +0.328 A 
ATOM     44  O   UNL     1      -4.283  -5.785   0.048  0.00  0.00    -0.247 OA
ENDBRANCH  30  34
ENDBRANCH  26  27
ENDBRANCH   4  26
TORSDOF 6
