REMARK  Name = CHEMBL264965
REMARK  2 active torsions:
REMARK  status: ('A' for Active; 'I' for Inactive)
REMARK    1  A    between atoms: C_7  and  N_11
REMARK    2  A    between atoms: C_14  and  N_17
REMARK                            x       y       z     vdW  Elec       q    Type
REMARK                         _______ _______ _______ _____ _____    ______ ____
ROOT
ATOM      1  C   UNL     1      -0.018   1.459   0.010  0.00  0.00    +0.031 A 
ATOM      2  C   UNL     1       1.261   1.866   0.000  0.00  0.00    +0.085 A 
ATOM      3  N   UNL     1       2.095   0.778  -0.014  0.00  0.00    -0.346 N 
ATOM      4  H   UNL     1       3.064   0.820  -0.022  0.00  0.00    +0.167 HD
ATOM      5  C   UNL     1       1.356  -0.380  -0.013  0.00  0.00    +0.140 A 
ATOM      6  C   UNL     1       0.002  -0.004   0.002  0.00  0.00    +0.040 A 
ATOM      7  C   UNL     1      -0.989  -0.998   0.006  0.00  0.00    +0.042 A 
ATOM      8  C   UNL     1      -0.579  -2.327  -0.004  0.00  0.00    +0.043 A 
ATOM      9  C   UNL     1       0.773  -2.618  -0.019  0.00  0.00    +0.115 A 
ATOM     10  N   UNL     1       1.685  -1.667  -0.023  0.00  0.00    -0.237 NA
ENDROOT
BRANCH   7  11
ATOM     11  N   UNL     1      -2.339  -0.664   0.022  0.00  0.00    -0.329 N 
ATOM     12  C   UNL     1      -3.079  -0.484  -1.234  0.00  0.00    +0.103 C 
ATOM     13  C   UNL     1      -4.322  -1.380  -1.207  0.00  0.00    +0.003 C 
ATOM     14  C   UNL     1      -5.137  -1.076   0.052  0.00  0.00    -0.072 C 
ATOM     15  C   UNL     1      -4.294  -1.381   1.293  0.00  0.00    +0.003 C 
ATOM     16  C   UNL     1      -3.053  -0.492   1.294  0.00  0.00    +0.103 C 
BRANCH  14  17
ATOM     17  N   UNL     1      -6.346  -1.910   0.065  0.00  0.00    +0.380 N 
ATOM     18  H   UNL     1      -6.083  -2.884   0.061  0.00  0.00    -0.090 HD
ATOM     19  H   UNL     1      -6.884  -1.710   0.895  0.00  0.00    -0.090 HD
ATOM     20  H   UNL     1      -6.903  -1.708  -0.752  0.00  0.00    -0.090 HD
ENDBRANCH  14  17
ENDBRANCH   7  11
TORSDOF 2
