REMARK  Name = CHEMBL227381
REMARK  10 active torsions:
REMARK  status: ('A' for Active; 'I' for Inactive)
REMARK    1  A    between atoms: C_9  and  S_11
REMARK    2  A    between atoms: S_11  and  N_14
REMARK    3  A    between atoms: N_14  and  C_15
REMARK    4  A    between atoms: C_15  and  C_16
REMARK    5  A    between atoms: C_16  and  N_17
REMARK    6  A    between atoms: N_17  and  C_18
REMARK    7  A    between atoms: C_18  and  C_19
REMARK    8  A    between atoms: C_19  and  O_20
REMARK    9  A    between atoms: O_20  and  C_21
REMARK   10  A    between atoms: C_21  and  C_22
REMARK                            x       y       z     vdW  Elec       q    Type
REMARK                         _______ _______ _______ _____ _____    ______ ____
ROOT
ATOM      1  C   UNL     1       3.106  -2.733  -1.900  0.00  0.00    +0.087 C 
ENDROOT
BRANCH   1   2
ATOM      2  N   UNL     1       1.706  -2.933  -1.517  0.00  0.00    -0.192 NA
ATOM      3  H   UNL     1       1.068  -3.264  -2.168  0.00  0.00    +0.148 HD
BRANCH   2   4
ATOM      4  S   UNL     1       1.214  -2.594   0.027  0.00  0.00    +0.059 S 
ATOM      5  O   UNL     1       2.124  -3.252   0.897  0.00  0.00    -0.153 OA
ATOM      6  O   UNL     1      -0.186  -2.833   0.068  0.00  0.00    -0.153 OA
BRANCH   4  15
ATOM      7  C   UNL     1       2.516   0.950   1.417  0.00  0.00    +0.003 A 
ATOM      8  C   UNL     1       1.818   1.875   0.703  0.00  0.00    +0.010 A 
ATOM      9  C   UNL     1       0.892   1.450  -0.263  0.00  0.00    +0.002 A 
ATOM     10  C   UNL     1       0.144   2.357  -1.030  0.00  0.00    +0.119 A 
ATOM     11  N   UNL     1      -0.710   1.911  -1.921  0.00  0.00    -0.263 NA
ATOM     12  C   UNL     1      -0.908   0.618  -2.142  0.00  0.00    +0.111 A 
ATOM     13  C   UNL     1      -0.233  -0.341  -1.450  0.00  0.00    +0.030 A 
ATOM     14  C   UNL     1       0.701   0.059  -0.477  0.00  0.00    +0.011 A 
ATOM     15  C   UNL     1       1.437  -0.865   0.277  0.00  0.00    +0.113 A 
ATOM     16  C   UNL     1       2.327  -0.415   1.206  0.00  0.00    +0.029 A 
ENDBRANCH   4  15
ENDBRANCH   2   4
ENDBRANCH   1   2
BRANCH   1  17
ATOM     17  C   UNL     1       3.389  -3.477  -3.207  0.00  0.00    -0.065 C 
BRANCH  17  18
ATOM     18  N   UNL     1       4.793  -3.276  -3.591  0.00  0.00    +0.381 N 
ATOM     19  H   UNL     1       4.968  -2.291  -3.720  0.00  0.00    -0.086 HD
ATOM     20  H   UNL     1       5.395  -3.632  -2.863  0.00  0.00    -0.086 HD
BRANCH  18  21
ATOM     21  C   UNL     1       5.065  -3.990  -4.845  0.00  0.00    -0.054 C 
BRANCH  21  22
ATOM     22  C   UNL     1       6.527  -3.781  -5.245  0.00  0.00    +0.141 C 
BRANCH  22  23
ATOM     23  O   UNL     1       7.378  -4.388  -4.271  0.00  0.00    -0.377 OA
BRANCH  23  24
ATOM     24  C   UNL     1       8.773  -4.250  -4.552  0.00  0.00    +0.195 C 
BRANCH  24  25
ATOM     25  C   UNL     1       9.573  -4.923  -3.467  0.00  0.00    -0.022 A 
ATOM     26  C   UNL     1       9.957  -4.209  -2.347  0.00  0.00    +0.007 A 
ATOM     27  C   UNL     1      10.691  -4.827  -1.352  0.00  0.00    +0.020 A 
ATOM     28  C   UNL     1      11.041  -6.160  -1.476  0.00  0.00    +0.041 A 
ATOM     29  C   UNL     1      10.655  -6.874  -2.597  0.00  0.00    +0.020 A 
ATOM     30  C   UNL     1       9.917  -6.257  -3.589  0.00  0.00    +0.007 A 
ATOM     31 CL   UNL     1      11.963  -6.936  -0.227  0.00  0.00    -0.084 Cl
ENDBRANCH  24  25
ENDBRANCH  23  24
ENDBRANCH  22  23
ENDBRANCH  21  22
ENDBRANCH  18  21
ENDBRANCH  17  18
ENDBRANCH   1  17
TORSDOF 10
