REMARK  Name = CHEMBL508794
REMARK  6 active torsions:
REMARK  status: ('A' for Active; 'I' for Inactive)
REMARK    1  A    between atoms: C_4  and  C_7
REMARK    2  A    between atoms: C_20  and  C_21
REMARK    3  A    between atoms: C_24  and  C_27
REMARK    4  A    between atoms: C_27  and  N_28
REMARK    5  A    between atoms: C_31  and  N_34
REMARK    6  A    between atoms: C_36  and  C_39
REMARK                            x       y       z     vdW  Elec       q    Type
REMARK                         _______ _______ _______ _____ _____    ______ ____
ROOT
ATOM      1  C   UNL     1       2.908  -2.082   1.873  0.00  0.00    +0.001 A 
ATOM      2  C   UNL     1       2.079  -1.097   2.409  0.00  0.00    +0.010 A 
ATOM      3  C   UNL     1       1.110  -1.440   3.330  0.00  0.00    +0.002 A 
ATOM      4  C   UNL     1       0.960  -2.759   3.721  0.00  0.00    -0.064 A 
ATOM      5  C   UNL     1       1.779  -3.741   3.193  0.00  0.00    +0.002 A 
ATOM      6  C   UNL     1       2.748  -3.411   2.268  0.00  0.00    +0.010 A 
ENDROOT
BRANCH   1  20
ATOM      7  C   UNL     1       3.698  -0.687  -0.038  0.00  0.00    +0.009 A 
ATOM      8  C   UNL     1       4.682  -0.346  -0.964  0.00  0.00    +0.024 A 
ATOM      9  C   UNL     1       5.881  -1.055  -0.936  0.00  0.00    +0.046 A 
ATOM     10  C   UNL     1       6.062  -2.086   0.017  0.00  0.00    +0.077 A 
ATOM     11  C   UNL     1       7.335  -2.813   0.020  0.00  0.00    +0.046 A 
ATOM     12  C   UNL     1       8.292  -2.498  -0.863  0.00  0.00    +0.098 A 
ATOM     13  N   UNL     1       8.136  -1.503  -1.794  0.00  0.00    -0.270 N 
ATOM     14  C   UNL     1       6.973  -0.766  -1.871  0.00  0.00    +0.172 A 
ATOM     15  N   UNL     1       7.127   0.098  -2.849  0.00  0.00    -0.127 NA
ATOM     16  N   UNL     1       8.289  -0.047  -3.380  0.00  0.00    -0.113 NA
ATOM     17  C   UNL     1       8.948  -1.009  -2.775  0.00  0.00    +0.219 A 
ATOM     18  N   UNL     1      10.231  -1.444  -3.077  0.00  0.00    -0.327 N 
ATOM     19  N   UNL     1       5.098  -2.378   0.880  0.00  0.00    -0.246 NA
ATOM     20  C   UNL     1       3.949  -1.721   0.884  0.00  0.00    +0.079 A 
ATOM     21  H   UNL     1      10.630  -2.166  -2.568  0.00  0.00    +0.145 HD
ATOM     22  H   UNL     1      10.727  -1.025  -3.797  0.00  0.00    +0.145 HD
BRANCH   7  26
ATOM     23  C   UNL     1      -0.017   1.379   0.010  0.00  0.00    +0.000 A 
ATOM     24  C   UNL     1       1.169   2.092   0.002  0.00  0.00    +0.001 A 
ATOM     25  C   UNL     1       2.377   1.427  -0.013  0.00  0.00    +0.008 A 
ATOM     26  C   UNL     1       2.403   0.033  -0.021  0.00  0.00    -0.016 A 
ATOM     27  C   UNL     1       1.205  -0.680  -0.013  0.00  0.00    +0.008 A 
ATOM     28  C   UNL     1       0.002  -0.004   0.002  0.00  0.00    +0.001 A 
ENDBRANCH   7  26
ENDBRANCH   1  20
BRANCH   4  29
ATOM     29  C   UNL     1      -0.100  -3.127   4.728  0.00  0.00    -0.043 C 
BRANCH  29  30
ATOM     30  N   UNL     1      -1.350  -3.448   4.027  0.00  0.00    +0.382 N 
ATOM     31  C   UNL     1      -1.850  -2.248   3.346  0.00  0.00    -0.076 C 
ATOM     32  C   UNL     1      -3.108  -2.597   2.548  0.00  0.00    +0.006 C 
ATOM     33  C   UNL     1      -4.181  -3.128   3.503  0.00  0.00    +0.085 C 
ATOM     34  C   UNL     1      -3.623  -4.334   4.263  0.00  0.00    +0.006 C 
ATOM     35  C   UNL     1      -2.345  -3.921   4.997  0.00  0.00    -0.076 C 
ATOM     36  H   UNL     1      -1.176  -4.172   3.345  0.00  0.00    -0.081 HD
BRANCH  33  37
ATOM     37  N   UNL     1      -5.362  -3.535   2.737  0.00  0.00    -0.333 N 
ATOM     38  C   UNL     1      -6.622  -3.025   2.862  0.00  0.00    +0.117 A 
ATOM     39  C   UNL     1      -7.402  -3.685   1.965  0.00  0.00    +0.107 A 
ATOM     40  N   UNL     1      -6.622  -4.573   1.316  0.00  0.00    -0.234 NA
ATOM     41  C   UNL     1      -5.403  -4.484   1.768  0.00  0.00    +0.200 A 
BRANCH  39  42
ATOM     42  C   UNL     1      -8.851  -3.467   1.741  0.00  0.00    +0.091 A 
ATOM     43  C   UNL     1      -9.524  -4.226   0.785  0.00  0.00    +0.030 A 
ATOM     44  C   UNL     1     -10.877  -4.012   0.588  0.00  0.00    +0.004 A 
ATOM     45  C   UNL     1     -11.513  -3.044   1.353  0.00  0.00    +0.020 A 
ATOM     46  C   UNL     1     -10.784  -2.327   2.283  0.00  0.00    +0.111 A 
ATOM     47  N   UNL     1      -9.498  -2.555   2.455  0.00  0.00    -0.253 NA
ENDBRANCH  39  42
ENDBRANCH  33  37
ENDBRANCH  29  30
ENDBRANCH   4  29
TORSDOF 6
