REMARK  Name = CHEMBL228811
REMARK  6 active torsions:
REMARK  status: ('A' for Active; 'I' for Inactive)
REMARK    1  A    between atoms: C_1  and  C_2
REMARK    2  A    between atoms: C_2  and  C_17
REMARK    3  A    between atoms: C_6  and  N_13
REMARK    4  A    between atoms: C_19  and  C_23
REMARK    5  A    between atoms: C_23  and  N_24
REMARK    6  A    between atoms: C_25  and  C_27
REMARK                            x       y       z     vdW  Elec       q    Type
REMARK                         _______ _______ _______ _____ _____    ______ ____
ROOT
ATOM      1  C   UNL     1      -0.585   1.433   0.060  0.00  0.00    +0.046 C 
ATOM      2  C   UNL     1      -0.496  -0.072   0.064  0.00  0.00    -0.014 C 
ATOM      3  C   UNL     1      -0.179  -0.742   1.230  0.00  0.00    +0.051 C 
ATOM      4  C   UNL     1      -0.015  -0.166   2.583  0.00  0.00    +0.010 A 
ATOM      5  C   UNL     1      -0.116   1.126   3.087  0.00  0.00    +0.034 A 
ATOM      6  C   UNL     1       0.100   1.355   4.436  0.00  0.00    +0.035 A 
ATOM      7  C   UNL     1       0.416   0.295   5.279  0.00  0.00    +0.025 A 
ATOM      8  C   UNL     1       0.517  -0.988   4.783  0.00  0.00    +0.026 A 
ATOM      9  C   UNL     1       0.304  -1.235   3.431  0.00  0.00    +0.042 A 
ATOM     10  N   UNL     1       0.343  -2.411   2.688  0.00  0.00    -0.281 N 
ATOM     11  C   UNL     1       0.062  -2.182   1.394  0.00  0.00    +0.249 C 
ATOM     12  O   UNL     1       0.018  -3.020   0.512  0.00  0.00    -0.270 OA
ATOM     13  H   UNL     1       0.543  -3.285   3.058  0.00  0.00    +0.155 HD
ENDROOT
BRANCH   6  14
ATOM     14  N   UNL     1       0.000   2.655   4.952  0.00  0.00    -0.270 N 
ATOM     15  C   UNL     1      -0.451   2.849   6.207  0.00  0.00    +0.301 C 
ATOM     16  O   UNL     1      -0.861   1.908   6.858  0.00  0.00    -0.253 OA
ATOM     17  N   UNL     1      -0.449   4.087   6.740  0.00  0.00    -0.313 N 
ATOM     18  H   UNL     1       0.256   3.414   4.405  0.00  0.00    +0.156 HD
ATOM     19  H   UNL     1      -0.122   4.838   6.220  0.00  0.00    +0.146 HD
ATOM     20  H   UNL     1      -0.774   4.227   7.643  0.00  0.00    +0.146 HD
ENDBRANCH   6  14
BRANCH   2  21
ATOM     21  C   UNL     1      -0.737  -0.795  -1.122  0.00  0.00    +0.043 A 
ATOM     22  C   UNL     1       0.030  -0.758  -2.276  0.00  0.00    +0.032 A 
ATOM     23  C   UNL     1      -0.569  -1.623  -3.194  0.00  0.00    -0.012 A 
ATOM     24  C   UNL     1      -1.666  -2.162  -2.606  0.00  0.00    +0.088 A 
ATOM     25  N   UNL     1      -1.776  -1.673  -1.346  0.00  0.00    -0.361 N 
ATOM     26  H   UNL     1      -2.472  -1.901  -0.709  0.00  0.00    +0.165 HD
BRANCH  23  27
ATOM     27  C   UNL     1      -0.083  -1.906  -4.592  0.00  0.00    +0.141 C 
BRANCH  27  28
ATOM     28  N   UNL     1       0.844  -3.039  -4.567  0.00  0.00    -0.310 N 
ATOM     29  C   UNL     1       1.409  -3.474  -5.711  0.00  0.00    +0.232 C 
ATOM     30  O   UNL     1       1.149  -2.927  -6.762  0.00  0.00    -0.274 OA
ATOM     31  H   UNL     1       1.052  -3.477  -3.727  0.00  0.00    +0.149 HD
BRANCH  29  32
ATOM     32  C   UNL     1       2.363  -4.641  -5.685  0.00  0.00    +0.154 C 
ATOM     33  C   UNL     1       1.569  -5.948  -5.627  0.00  0.00    +0.109 C 
ATOM     34  N   UNL     1       2.501  -7.085  -5.641  0.00  0.00    -0.313 NA
ATOM     35  C   UNL     1       3.328  -7.069  -6.856  0.00  0.00    +0.096 C 
ATOM     36  C   UNL     1       4.121  -5.762  -6.914  0.00  0.00    +0.096 C 
ATOM     37  N   UNL     1       3.189  -4.625  -6.900  0.00  0.00    -0.303 NA
ATOM     38  H   UNL     1       3.076  -7.090  -4.812  0.00  0.00    +0.122 HD
ATOM     39  H   UNL     1       2.614  -4.619  -7.729  0.00  0.00    +0.123 HD
ENDBRANCH  29  32
ENDBRANCH  27  28
ENDBRANCH  23  27
ENDBRANCH   2  21
TORSDOF 5
