REMARK  Name = CHEMBL228133
REMARK  3 active torsions:
REMARK  status: ('A' for Active; 'I' for Inactive)
REMARK    1  A    between atoms: C_3  and  C_17
REMARK    2  A    between atoms: C_6  and  C_7
REMARK    3  A    between atoms: C_17  and  C_23
REMARK                            x       y       z     vdW  Elec       q    Type
REMARK                         _______ _______ _______ _____ _____    ______ ____
ROOT
ATOM      1  C   UNL     1      -0.071   2.138   0.467  0.00  0.00    +0.010 A 
ATOM      2  C   UNL     1       1.223   2.591   0.316  0.00  0.00    +0.005 A 
ATOM      3  C   UNL     1       2.259   1.691   0.143  0.00  0.00    -0.037 A 
ATOM      4  C   UNL     1       2.004   0.331   0.121  0.00  0.00    +0.005 A 
ATOM      5  C   UNL     1       0.714  -0.135   0.271  0.00  0.00    +0.010 A 
ATOM      6  C   UNL     1      -0.334   0.769   0.445  0.00  0.00    +0.003 A 
ENDROOT
BRANCH   6   7
ATOM      7  C   UNL     1      -1.721   0.275   0.607  0.00  0.00    +0.102 A 
ATOM      8  C   UNL     1      -2.162  -0.872  -0.077  0.00  0.00    +0.134 A 
ATOM      9  C   UNL     1      -3.493  -1.291   0.119  0.00  0.00    +0.161 A 
ATOM     10  N   UNL     1      -3.652  -2.414  -0.654  0.00  0.00    -0.329 N 
ATOM     11  H   UNL     1      -4.460  -2.942  -0.739  0.00  0.00    +0.168 HD
ATOM     12  C   UNL     1      -2.465  -2.648  -1.282  0.00  0.00    +0.198 A 
ATOM     13  N   UNL     1      -1.594  -1.743  -0.941  0.00  0.00    -0.232 NA
ATOM     14  N   UNL     1      -4.274  -0.595   0.934  0.00  0.00    -0.216 NA
ATOM     15  C   UNL     1      -3.818   0.474   1.554  0.00  0.00    +0.224 A 
ATOM     16  N   UNL     1      -2.579   0.904   1.408  0.00  0.00    -0.233 NA
ENDBRANCH   6   7
BRANCH   3  17
ATOM     17  C   UNL     1       3.671   2.193  -0.022  0.00  0.00    +0.017 C 
ATOM     18  C   UNL     1       4.036   3.092   1.163  0.00  0.00    -0.003 C 
ATOM     19  C   UNL     1       5.495   3.534   1.030  0.00  0.00    -0.081 C 
ATOM     20  N   UNL     1       6.368   2.354   1.022  0.00  0.00    +0.379 N 
ATOM     21  C   UNL     1       6.072   1.523  -0.151  0.00  0.00    -0.081 C 
ATOM     22  C   UNL     1       4.635   1.004  -0.064  0.00  0.00    -0.003 C 
ATOM     23  H   UNL     1       7.332   2.651   0.988  0.00  0.00    -0.086 HD
ATOM     24  H   UNL     1       6.213   1.817   1.862  0.00  0.00    -0.086 HD
BRANCH  17  25
ATOM     25  C   UNL     1       3.780   2.976  -1.304  0.00  0.00    -0.037 A 
ATOM     26  C   UNL     1       3.669   2.329  -2.521  0.00  0.00    +0.006 A 
ATOM     27  C   UNL     1       3.770   3.047  -3.698  0.00  0.00    +0.020 A 
ATOM     28  C   UNL     1       3.981   4.413  -3.658  0.00  0.00    +0.041 A 
ATOM     29  C   UNL     1       4.092   5.061  -2.440  0.00  0.00    +0.020 A 
ATOM     30  C   UNL     1       3.986   4.342  -1.264  0.00  0.00    +0.006 A 
ATOM     31 CL   UNL     1       4.108   5.316  -5.136  0.00  0.00    -0.084 Cl
ENDBRANCH  17  25
ENDBRANCH   3  17
TORSDOF 3
