REMARK  Name = CHEMBL522857
REMARK  10 active torsions:
REMARK  status: ('A' for Active; 'I' for Inactive)
REMARK    1  A    between atoms: C_1  and  C_2
REMARK    2  A    between atoms: C_2  and  N_3
REMARK    3  A    between atoms: C_5  and  O_24
REMARK    4  A    between atoms: C_8  and  C_18
REMARK    5  A    between atoms: C_11  and  C_12
REMARK    6  A    between atoms: C_19  and  C_20
REMARK    7  A    between atoms: C_20  and  C_21
REMARK    8  A    between atoms: C_20  and  C_22
REMARK    9  A    between atoms: C_20  and  O_23
REMARK   10  A    between atoms: O_24  and  C_25
REMARK                            x       y       z     vdW  Elec       q    Type
REMARK                         _______ _______ _______ _____ _____    ______ ____
ROOT
ATOM      1  N   UNL     1       0.690  -0.541  -1.224  0.00  0.00    -0.319 N 
ATOM      2  C   UNL     1       0.060  -0.961  -2.373  0.00  0.00    +0.116 A 
ATOM      3  C   UNL     1      -1.242  -0.886  -2.870  0.00  0.00    +0.164 A 
ATOM      4  C   UNL     1      -1.520  -1.437  -4.109  0.00  0.00    +0.160 A 
ATOM      5  N   UNL     1      -0.581  -2.029  -4.824  0.00  0.00    -0.241 NA
ATOM      6  C   UNL     1       0.673  -2.130  -4.404  0.00  0.00    +0.141 A 
ATOM      7  C   UNL     1       1.045  -1.595  -3.153  0.00  0.00    +0.127 A 
ATOM      8  N   UNL     1       2.198  -1.536  -2.465  0.00  0.00    -0.223 NA
ATOM      9  C   UNL     1       2.004  -0.912  -1.328  0.00  0.00    +0.167 A 
ENDROOT
BRANCH   9  10
ATOM     10  C   UNL     1       3.045  -0.652  -0.310  0.00  0.00    +0.190 A 
ATOM     11  C   UNL     1       4.459  -1.038  -0.407  0.00  0.00    +0.191 A 
ATOM     12  N   UNL     1       5.067  -0.641   0.677  0.00  0.00    -0.033 NA
ATOM     13  O   UNL     1       4.112  -0.001   1.504  0.00  0.00    -0.240 OA
ATOM     14  N   UNL     1       2.867  -0.034   0.830  0.00  0.00    -0.044 NA
ATOM     15  N   UNL     1       5.047  -1.709  -1.470  0.00  0.00    -0.339 N 
ATOM     16  H   UNL     1       4.513  -1.966  -2.238  0.00  0.00    +0.144 HD
ATOM     17  H   UNL     1       5.993  -1.923  -1.445  0.00  0.00    +0.144 HD
ENDBRANCH   9  10
BRANCH   1  19
ATOM     18  C   UNL     1       0.163   1.682  -0.349  0.00  0.00    +0.027 C 
ATOM     19  C   UNL     1       0.072   0.174  -0.104  0.00  0.00    +0.120 C 
ENDBRANCH   1  19
BRANCH   6  20
ATOM     20  C   UNL     1       1.650  -2.783  -5.222  0.00  0.00    -0.041 C 
ATOM     21  C   UNL     1       2.452  -3.318  -5.892  0.00  0.00    -0.061 C 
BRANCH  21  22
ATOM     22  C   UNL     1       3.457  -3.990  -6.732  0.00  0.00    +0.121 C 
ATOM     23  C   UNL     1       4.811  -3.970  -6.022  0.00  0.00    +0.055 C 
ATOM     24  C   UNL     1       3.030  -5.439  -6.978  0.00  0.00    +0.055 C 
BRANCH  22  25
ATOM     25  O   UNL     1       3.565  -3.307  -7.983  0.00  0.00    -0.377 OA
ATOM     26  H   UNL     1       3.832  -2.381  -7.904  0.00  0.00    +0.211 HD
ENDBRANCH  22  25
ENDBRANCH  21  22
ENDBRANCH   6  20
BRANCH   3  27
ATOM     27  O   UNL     1      -2.222  -0.281  -2.148  0.00  0.00    -0.485 OA
BRANCH  27  28
ATOM     28  C   UNL     1      -3.498  -0.142  -2.775  0.00  0.00    +0.170 C 
ATOM     29  C   UNL     1      -4.310  -1.425  -2.574  0.00  0.00    +0.025 C 
ATOM     30  C   UNL     1      -5.704  -1.240  -3.179  0.00  0.00    -0.079 C 
ATOM     31  N   UNL     1      -6.383  -0.120  -2.518  0.00  0.00    +0.379 N 
ATOM     32  C   UNL     1      -5.648   1.126  -2.767  0.00  0.00    -0.079 C 
ATOM     33  C   UNL     1      -4.253   1.032  -2.146  0.00  0.00    +0.025 C 
ATOM     34  H   UNL     1      -7.321  -0.034  -2.881  0.00  0.00    -0.086 HD
ATOM     35  H   UNL     1      -6.425  -0.291  -1.524  0.00  0.00    -0.086 HD
ENDBRANCH  27  28
ENDBRANCH   3  27
TORSDOF 7
