REMARK  Name = CHEMBL223339
REMARK  5 active torsions:
REMARK  status: ('A' for Active; 'I' for Inactive)
REMARK    1  A    between atoms: C_3  and  C_13
REMARK    2  A    between atoms: C_6  and  C_7
REMARK    3  A    between atoms: C_13  and  C_15
REMARK    4  A    between atoms: C_13  and  C_17
REMARK    5  A    between atoms: C_15  and  N_16
REMARK                            x       y       z     vdW  Elec       q    Type
REMARK                         _______ _______ _______ _____ _____    ______ ____
ROOT
ATOM      1  C   UNL     1       3.671   2.191  -0.022  0.00  0.00    +0.031 C 
ENDROOT
BRANCH   1   2
ATOM      2  C   UNL     1       4.423   1.927   1.257  0.00  0.00    -0.042 A 
ATOM      3  C   UNL     1       4.902   0.659   1.527  0.00  0.00    +0.005 A 
ATOM      4  C   UNL     1       5.591   0.416   2.700  0.00  0.00    +0.020 A 
ATOM      5  C   UNL     1       5.803   1.442   3.603  0.00  0.00    +0.041 A 
ATOM      6  C   UNL     1       5.323   2.711   3.332  0.00  0.00    +0.020 A 
ATOM      7  C   UNL     1       4.638   2.954   2.156  0.00  0.00    +0.005 A 
ATOM      8 CL   UNL     1       6.669   1.138   5.077  0.00  0.00    -0.084 Cl
ENDBRANCH   1   2
BRANCH   1  11
ATOM      9  C   UNL     1       1.093  -0.565   0.028  0.00  0.00    +0.009 A 
ATOM     10  C   UNL     1       2.305   0.094  -0.009  0.00  0.00    +0.005 A 
ATOM     11  C   UNL     1       2.344   1.477   0.018  0.00  0.00    -0.042 A 
ATOM     12  C   UNL     1       1.171   2.205   0.083  0.00  0.00    +0.005 A 
ATOM     13  C   UNL     1      -0.047   1.556   0.120  0.00  0.00    +0.009 A 
ATOM     14  C   UNL     1      -0.092   0.164   0.093  0.00  0.00    -0.015 A 
BRANCH  14  15
ATOM     15  C   UNL     1      -1.398  -0.540   0.133  0.00  0.00    +0.019 A 
ATOM     16  C   UNL     1      -2.629   0.047   0.191  0.00  0.00    +0.113 A 
ATOM     17  N   UNL     1      -3.550  -0.938   0.210  0.00  0.00    -0.284 N 
ATOM     18  H   UNL     1      -4.511  -0.817   0.250  0.00  0.00    +0.188 HD
ATOM     19  N   UNL     1      -2.878  -2.166   0.163  0.00  0.00    -0.182 NA
ATOM     20  C   UNL     1      -1.593  -1.935   0.111  0.00  0.00    +0.142 A 
ENDBRANCH  14  15
ENDBRANCH   1  11
BRANCH   1  21
ATOM     21  C   UNL     1       4.489   1.681  -1.210  0.00  0.00    -0.074 C 
BRANCH  21  22
ATOM     22  N   UNL     1       3.813   2.045  -2.462  0.00  0.00    +0.379 N 
ATOM     23  H   UNL     1       4.353   1.708  -3.246  0.00  0.00    -0.090 HD
ATOM     24  H   UNL     1       2.895   1.627  -2.483  0.00  0.00    -0.090 HD
ATOM     25  H   UNL     1       3.728   3.048  -2.519  0.00  0.00    -0.090 HD
ENDBRANCH  21  22
ENDBRANCH   1  21
TORSDOF 5
