REMARK  Name = CHEMBL594755
REMARK  10 active torsions:
REMARK  status: ('A' for Active; 'I' for Inactive)
REMARK    1  A    between atoms: C_1  and  C_2
REMARK    2  A    between atoms: C_10  and  C_12
REMARK    3  A    between atoms: C_14  and  O_25
REMARK    4  A    between atoms: C_17  and  C_18
REMARK    5  A    between atoms: C_22  and  C_23
REMARK    6  A    between atoms: O_25  and  C_26
REMARK    7  A    between atoms: C_26  and  C_27
REMARK    8  A    between atoms: C_27  and  C_29
REMARK    9  A    between atoms: C_27  and  N_36
REMARK   10  A    between atoms: C_29  and  C_30
REMARK                            x       y       z     vdW  Elec       q    Type
REMARK                         _______ _______ _______ _____ _____    ______ ____
ROOT
ATOM      1  C   UNL     1       1.036  -1.359  -5.289  0.00  0.00    +0.032 A 
ATOM      2  C   UNL     1       0.900  -0.047  -5.754  0.00  0.00    +0.061 A 
ATOM      3  C   UNL     1      -0.148   0.244  -6.610  0.00  0.00    +0.160 A 
ATOM      4  C   UNL     1      -1.032  -0.773  -6.982  0.00  0.00    +0.159 A 
ATOM      5  N   UNL     1      -0.880  -2.005  -6.528  0.00  0.00    -0.228 NA
ATOM      6  C   UNL     1       0.114  -2.329  -5.710  0.00  0.00    +0.086 A 
ATOM      7  N   UNL     1      -2.085  -0.484  -7.843  0.00  0.00    -0.340 N 
ATOM      8  H   UNL     1      -2.203   0.418  -8.180  0.00  0.00    +0.144 HD
ATOM      9  H   UNL     1      -2.703  -1.185  -8.105  0.00  0.00    +0.144 HD
ENDROOT
BRANCH   1  19
ATOM     10  C   UNL     1       5.210  -4.997  -5.014  0.00  0.00    +0.070 C 
ATOM     11  C   UNL     1       4.987  -4.003  -3.904  0.00  0.00    +0.087 A 
ATOM     12  C   UNL     1       3.960  -3.029  -3.861  0.00  0.00    +0.131 A 
ATOM     13  C   UNL     1       4.122  -2.318  -2.652  0.00  0.00    +0.175 A 
ATOM     14  N   UNL     1       5.207  -2.866  -2.020  0.00  0.00    -0.259 N 
ATOM     15  H   UNL     1       5.566  -2.587  -1.163  0.00  0.00    +0.191 HD
ATOM     16  N   UNL     1       5.703  -3.900  -2.822  0.00  0.00    -0.175 NA
ATOM     17  N   UNL     1       3.285  -1.333  -2.346  0.00  0.00    -0.233 NA
ATOM     18  C   UNL     1       2.308  -1.020  -3.170  0.00  0.00    +0.141 A 
ATOM     19  C   UNL     1       2.140  -1.721  -4.372  0.00  0.00    +0.092 A 
ATOM     20  N   UNL     1       2.967  -2.707  -4.690  0.00  0.00    -0.240 NA
ENDBRANCH   1  19
BRANCH   6  21
ATOM     21  C   UNL     1       0.247  -3.725  -5.233  0.00  0.00    +0.042 A 
ATOM     22  C   UNL     1       0.168  -4.199  -3.846  0.00  0.00    +0.051 A 
ATOM     23  C   UNL     1       0.345  -5.529  -3.898  0.00  0.00    +0.196 A 
ATOM     24  O   UNL     1       0.521  -5.897  -5.176  0.00  0.00    -0.467 OA
ATOM     25  C   UNL     1       0.461  -4.835  -5.990  0.00  0.00    +0.111 A 
ATOM     26  C   UNL     1       0.610  -4.863  -7.489  0.00  0.00    +0.087 C 
ENDBRANCH   6  21
BRANCH   3  27
ATOM     27  O   UNL     1      -0.316   1.508  -7.085  0.00  0.00    -0.490 OA
BRANCH  27  28
ATOM     28  C   UNL     1       0.628   2.492  -6.658  0.00  0.00    +0.213 C 
BRANCH  28  29
ATOM     29  C   UNL     1       0.279   3.841  -7.290  0.00  0.00    -0.033 C 
BRANCH  29  30
ATOM     30  N   UNL     1      -1.019   4.301  -6.778  0.00  0.00    +0.382 N 
ATOM     31  H   UNL     1      -0.969   4.402  -5.776  0.00  0.00    -0.089 HD
ATOM     32  H   UNL     1      -1.249   5.190  -7.195  0.00  0.00    -0.089 HD
ATOM     33  H   UNL     1      -1.731   3.625  -7.013  0.00  0.00    -0.089 HD
ENDBRANCH  29  30
BRANCH  29  34
ATOM     34  C   UNL     1       1.359   4.865  -6.935  0.00  0.00    +0.022 C 
BRANCH  34  35
ATOM     35  C   UNL     1       1.081   6.159  -7.656  0.00  0.00    -0.049 A 
ATOM     36  C   UNL     1       1.609   6.376  -8.915  0.00  0.00    +0.003 A 
ATOM     37  C   UNL     1       1.354   7.562  -9.576  0.00  0.00    +0.000 A 
ATOM     38  C   UNL     1       0.571   8.532  -8.979  0.00  0.00    +0.000 A 
ATOM     39  C   UNL     1       0.042   8.316  -7.721  0.00  0.00    +0.000 A 
ATOM     40  C   UNL     1       0.293   7.127  -7.061  0.00  0.00    +0.003 A 
ENDBRANCH  34  35
ENDBRANCH  29  34
ENDBRANCH  28  29
ENDBRANCH  27  28
ENDBRANCH   3  27
TORSDOF 8
