REMARK  Name = CHEMBL252456
REMARK  11 active torsions:
REMARK  status: ('A' for Active; 'I' for Inactive)
REMARK    1  A    between atoms: C_1  and  S_2
REMARK    2  A    between atoms: S_2  and  C_3
REMARK    3  A    between atoms: C_8  and  C_32
REMARK    4  A    between atoms: C_9  and  C_13
REMARK    5  A    between atoms: C_16  and  C_19
REMARK    6  A    between atoms: C_19  and  N_20
REMARK    7  A    between atoms: N_20  and  C_21
REMARK    8  A    between atoms: C_21  and  C_22
REMARK    9  A    between atoms: C_22  and  C_23
REMARK   10  A    between atoms: C_23  and  C_25
REMARK   11  A    between atoms: C_30  and  N_31
REMARK                            x       y       z     vdW  Elec       q    Type
REMARK                         _______ _______ _______ _____ _____    ______ ____
ROOT
ATOM      1  C   UNL     1       2.639  -5.171   4.480  0.00  0.00    +0.001 A 
ATOM      2  C   UNL     1       3.817  -5.582   5.104  0.00  0.00    +0.010 A 
ATOM      3  C   UNL     1       4.019  -6.919   5.379  0.00  0.00    +0.002 A 
ATOM      4  C   UNL     1       3.056  -7.851   5.035  0.00  0.00    -0.064 A 
ATOM      5  C   UNL     1       1.886  -7.450   4.416  0.00  0.00    +0.002 A 
ATOM      6  C   UNL     1       1.670  -6.115   4.142  0.00  0.00    +0.010 A 
ENDROOT
BRANCH   1  13
ATOM      7  C   UNL     1       0.657  -0.509   1.381  0.00  0.00    +0.190 A 
ATOM      8  N   UNL     1       1.081   0.485   2.160  0.00  0.00    -0.230 NA
ATOM      9  C   UNL     1       1.743   0.250   3.274  0.00  0.00    +0.125 A 
ATOM     10  C   UNL     1       2.000  -1.086   3.632  0.00  0.00    +0.038 A 
ATOM     11  C   UNL     1       2.699  -1.418   4.803  0.00  0.00    +0.023 A 
ATOM     12  C   UNL     1       2.907  -2.761   5.079  0.00  0.00    +0.009 A 
ATOM     13  C   UNL     1       2.415  -3.737   4.184  0.00  0.00    +0.081 A 
ATOM     14  N   UNL     1       1.761  -3.398   3.089  0.00  0.00    -0.227 NA
ATOM     15  C   UNL     1       1.535  -2.122   2.779  0.00  0.00    +0.165 A 
ATOM     16  N   UNL     1       0.865  -1.780   1.670  0.00  0.00    -0.202 NA
BRANCH  12  17
ATOM     17  C   UNL     1       3.640  -3.169   6.301  0.00  0.00    -0.016 A 
ATOM     18  C   UNL     1       3.103  -4.138   7.148  0.00  0.00    +0.008 A 
ATOM     19  C   UNL     1       3.790  -4.514   8.284  0.00  0.00    +0.001 A 
ATOM     20  C   UNL     1       5.008  -3.931   8.584  0.00  0.00    +0.000 A 
ATOM     21  C   UNL     1       5.546  -2.970   7.747  0.00  0.00    +0.001 A 
ATOM     22  C   UNL     1       4.871  -2.590   6.605  0.00  0.00    +0.008 A 
ENDBRANCH  12  17
BRANCH   7  24
ATOM     23  C   UNL     1      -0.279   1.702  -0.094  0.00  0.00    +0.093 C 
ATOM     24  S   UNL     1      -0.224  -0.111  -0.092  0.00  0.00    -0.089 S 
ENDBRANCH   7  24
ENDBRANCH   1  13
BRANCH   4  25
ATOM     25  C   UNL     1       3.284  -9.310   5.337  0.00  0.00    -0.047 C 
BRANCH  25  26
ATOM     26  N   UNL     1       2.759  -9.621   6.673  0.00  0.00    +0.382 N 
ATOM     27  H   UNL     1       3.234  -9.057   7.361  0.00  0.00    -0.085 HD
ATOM     28  H   UNL     1       1.770  -9.422   6.701  0.00  0.00    -0.085 HD
BRANCH  26  29
ATOM     29  C   UNL     1       2.980 -11.043   6.967  0.00  0.00    -0.074 C 
BRANCH  29  30
ATOM     30  C   UNL     1       2.433 -11.368   8.359  0.00  0.00    +0.061 C 
BRANCH  30  31
ATOM     31  C   UNL     1       2.660 -12.827   8.661  0.00  0.00    +0.163 C 
ATOM     32  O   UNL     1       3.207 -13.537   7.843  0.00  0.00    -0.292 OA
BRANCH  31  33
ATOM     33  C   UNL     1       2.222 -13.387   9.943  0.00  0.00    +0.038 A 
ATOM     34  C   UNL     1       1.701 -12.550  10.938  0.00  0.00    +0.013 A 
ATOM     35  C   UNL     1       1.291 -13.084  12.138  0.00  0.00    +0.001 A 
ATOM     36  C   UNL     1       1.390 -14.447  12.370  0.00  0.00    +0.002 A 
ATOM     37  C   UNL     1       1.900 -15.287  11.402  0.00  0.00    +0.023 A 
ATOM     38  C   UNL     1       2.315 -14.771  10.180  0.00  0.00    +0.035 A 
BRANCH  38  39
ATOM     39  N   UNL     1       2.824 -15.613   9.203  0.00  0.00    -0.357 N 
ATOM     40  H   UNL     1       3.188 -15.242   8.384  0.00  0.00    +0.142 HD
ATOM     41  H   UNL     1       2.814 -16.574   9.338  0.00  0.00    +0.142 HD
ENDBRANCH  38  39
ENDBRANCH  31  33
ENDBRANCH  30  31
ENDBRANCH  29  30
ENDBRANCH  26  29
ENDBRANCH  25  26
ENDBRANCH   4  25
TORSDOF 10
