REMARK  Name = CHEMBL598194
REMARK  4 active torsions:
REMARK  status: ('A' for Active; 'I' for Inactive)
REMARK    1  A    between atoms: C_6  and  C_7
REMARK    2  A    between atoms: C_7  and  N_8
REMARK    3  A    between atoms: C_9  and  C_11
REMARK    4  A    between atoms: C_11  and  N_27
REMARK                            x       y       z     vdW  Elec       q    Type
REMARK                         _______ _______ _______ _____ _____    ______ ____
ROOT
ATOM      1  C   UNL     1      -3.313  -1.945  -3.024  0.00  0.00    +0.096 C 
ATOM      2  C   UNL     1      -4.199  -0.790  -3.493  0.00  0.00    +0.050 C 
ATOM      3  C   UNL     1      -5.409  -0.668  -2.560  0.00  0.00    +0.109 C 
ATOM      4  N   UNL     1      -6.092  -1.967  -2.500  0.00  0.00    -0.314 N 
ATOM      5  C   UNL     1      -5.311  -3.161  -2.147  0.00  0.00    +0.109 C 
ATOM      6  C   UNL     1      -4.103  -3.254  -3.084  0.00  0.00    +0.050 C 
ATOM      7  C   UNL     1      -7.445  -2.065  -2.770  0.00  0.00    +0.134 A 
ATOM      8  C   UNL     1      -8.398  -1.832  -1.766  0.00  0.00    +0.059 A 
ATOM      9  C   UNL     1      -8.343  -1.473  -0.350  0.00  0.00    +0.032 A 
ATOM     10  C   UNL     1      -9.614  -1.392   0.079  0.00  0.00    +0.085 A 
ATOM     11  N   UNL     1     -10.471  -1.671  -0.953  0.00  0.00    -0.346 N 
ATOM     12  H   UNL     1     -11.439  -1.675  -0.887  0.00  0.00    +0.167 HD
ATOM     13  C   UNL     1      -9.762  -1.944  -2.091  0.00  0.00    +0.143 A 
ATOM     14  N   UNL     1     -10.095  -2.266  -3.340  0.00  0.00    -0.218 NA
ATOM     15  C   UNL     1      -9.168  -2.476  -4.249  0.00  0.00    +0.225 A 
ATOM     16  N   UNL     1      -7.876  -2.376  -3.988  0.00  0.00    -0.220 NA
ENDROOT
BRANCH   1  18
ATOM     17  N   UNL     1      -1.771  -2.312  -1.124  0.00  0.00    -0.310 N 
ATOM     18  C   UNL     1      -2.867  -1.693  -1.606  0.00  0.00    +0.233 C 
ATOM     19  O   UNL     1      -3.495  -0.934  -0.899  0.00  0.00    -0.274 OA
ATOM     20  H   UNL     1      -1.269  -2.920  -1.690  0.00  0.00    +0.149 HD
BRANCH  17  21
ATOM     21  C   UNL     1      -1.338  -2.067   0.254  0.00  0.00    +0.139 C 
BRANCH  21  27
ATOM     22  C   UNL     1       1.151  -2.332   0.297  0.00  0.00    +0.006 A 
ATOM     23  C   UNL     1       2.288  -3.071   0.561  0.00  0.00    +0.020 A 
ATOM     24  C   UNL     1       2.178  -4.353   1.070  0.00  0.00    +0.041 A 
ATOM     25  C   UNL     1       0.928  -4.894   1.314  0.00  0.00    +0.020 A 
ATOM     26  C   UNL     1      -0.209  -4.154   1.049  0.00  0.00    +0.006 A 
ATOM     27  C   UNL     1      -0.098  -2.873   0.541  0.00  0.00    -0.030 A 
ATOM     28 CL   UNL     1       3.606  -5.282   1.401  0.00  0.00    -0.084 Cl
ENDBRANCH  21  27
ENDBRANCH  17  21
ENDBRANCH   1  18
BRANCH   1  29
ATOM     29  N   UNL     1      -2.135  -2.044  -3.897  0.00  0.00    -0.317 NA
ATOM     30  H   UNL     1      -1.596  -1.191  -3.874  0.00  0.00    +0.119 HD
ATOM     31  H   UNL     1      -1.566  -2.839  -3.648  0.00  0.00    +0.119 HD
ENDBRANCH   1  29
TORSDOF 4
