REMARK  Name = CHEMBL369506
REMARK  9 active torsions:
REMARK  status: ('A' for Active; 'I' for Inactive)
REMARK    1  A    between atoms: C_1  and  C_2
REMARK    2  A    between atoms: C_2  and  C_3
REMARK    3  A    between atoms: C_2  and  C_4
REMARK    4  A    between atoms: C_7  and  C_35
REMARK    5  A    between atoms: C_8  and  C_12
REMARK    6  A    between atoms: C_15  and  C_18
REMARK    7  A    between atoms: C_18  and  N_19
REMARK    8  A    between atoms: C_22  and  N_25
REMARK    9  A    between atoms: C_33  and  O_34
REMARK                            x       y       z     vdW  Elec       q    Type
REMARK                         _______ _______ _______ _____ _____    ______ ____
ROOT
ATOM      1  C   UNL     1      -3.093  -4.642  -2.751  0.00  0.00    -0.056 A 
ATOM      2  C   UNL     1      -2.664  -5.456  -1.719  0.00  0.00    +0.002 A 
ATOM      3  C   UNL     1      -3.059  -6.780  -1.674  0.00  0.00    +0.002 A 
ATOM      4  C   UNL     1      -3.883  -7.290  -2.660  0.00  0.00    -0.064 A 
ATOM      5  C   UNL     1      -4.312  -6.475  -3.691  0.00  0.00    +0.002 A 
ATOM      6  C   UNL     1      -3.921  -5.150  -3.734  0.00  0.00    +0.002 A 
ENDROOT
BRANCH   1  11
ATOM      7  C   UNL     1      -0.812  -0.389  -0.406  0.00  0.00    -0.000 C 
ATOM      8  C   UNL     1      -1.479  -1.169  -1.254  0.00  0.00    +0.052 C 
ATOM      9  N   UNL     1      -2.780  -1.502  -1.023  0.00  0.00    -0.257 NA
ATOM     10  C   UNL     1      -3.360  -2.438  -1.710  0.00  0.00    +0.039 C 
ATOM     11  C   UNL     1      -2.663  -3.198  -2.800  0.00  0.00    +0.014 C 
ATOM     12  N   UNL     1      -1.206  -3.123  -2.639  0.00  0.00    +0.410 N 
ATOM     13  C   UNL     1      -0.815  -1.704  -2.503  0.00  0.00    +0.152 C 
ATOM     14  O   UNL     1      -1.257  -0.964  -3.643  0.00  0.00    -0.245 OA
ATOM     15  H   UNL     1      -0.930  -3.633  -1.814  0.00  0.00    -0.080 HD
ATOM     16  H   UNL     1      -0.756  -3.521  -3.450  0.00  0.00    -0.080 HD
BRANCH  10  17
ATOM     17  C   UNL     1      -4.763  -2.767  -1.407  0.00  0.00    -0.005 A 
ATOM     18  C   UNL     1      -5.231  -2.702  -0.091  0.00  0.00    +0.009 A 
ATOM     19  C   UNL     1      -6.546  -3.012   0.185  0.00  0.00    +0.001 A 
ATOM     20  C   UNL     1      -7.401  -3.387  -0.836  0.00  0.00    +0.000 A 
ATOM     21  C   UNL     1      -6.945  -3.454  -2.141  0.00  0.00    +0.001 A 
ATOM     22  C   UNL     1      -5.634  -3.141  -2.434  0.00  0.00    +0.009 A 
ENDBRANCH  10  17
BRANCH   7  24
ATOM     23  C   UNL     1       0.564   1.613  -0.901  0.00  0.00    +0.011 C 
ATOM     24  C   UNL     1       0.574   0.090  -0.754  0.00  0.00    +0.007 C 
ATOM     25  C   UNL     1       1.546  -0.309   0.358  0.00  0.00    +0.011 C 
ENDBRANCH   7  24
ENDBRANCH   1  11
BRANCH   4  26
ATOM     26  C   UNL     1      -4.312  -8.733  -2.611  0.00  0.00    -0.043 C 
BRANCH  26  27
ATOM     27  N   UNL     1      -5.564  -8.847  -1.851  0.00  0.00    +0.382 N 
ATOM     28  C   UNL     1      -5.324  -8.457  -0.456  0.00  0.00    -0.076 C 
ATOM     29  C   UNL     1      -6.641  -8.495   0.322  0.00  0.00    +0.006 C 
ATOM     30  C   UNL     1      -7.212  -9.915   0.279  0.00  0.00    +0.089 C 
ATOM     31  C   UNL     1      -7.388 -10.339  -1.182  0.00  0.00    +0.006 C 
ATOM     32  C   UNL     1      -6.044 -10.233  -1.905  0.00  0.00    -0.076 C 
ATOM     33  H   UNL     1      -6.258  -8.235  -2.254  0.00  0.00    -0.081 HD
BRANCH  30  34
ATOM     34  N   UNL     1      -8.510  -9.942   0.957  0.00  0.00    -0.291 N 
ATOM     35  C   UNL     1      -8.841 -10.701   2.067  0.00  0.00    +0.072 A 
ATOM     36  C   UNL     1      -8.148 -11.609   2.853  0.00  0.00    +0.028 A 
ATOM     37  C   UNL     1      -8.778 -12.214   3.920  0.00  0.00    +0.002 A 
ATOM     38  C   UNL     1     -10.102 -11.921   4.213  0.00  0.00    +0.002 A 
ATOM     39  C   UNL     1     -10.806 -11.023   3.442  0.00  0.00    +0.030 A 
ATOM     40  C   UNL     1     -10.181 -10.401   2.358  0.00  0.00    +0.093 A 
ATOM     41  N   UNL     1     -10.597  -9.494   1.435  0.00  0.00    -0.195 NA
ATOM     42  C   UNL     1      -9.616  -9.220   0.616  0.00  0.00    +0.297 A 
BRANCH  42  43
ATOM     43  O   UNL     1      -9.687  -8.352  -0.419  0.00  0.00    -0.480 OA
ATOM     44  H   UNL     1      -9.972  -8.754  -1.251  0.00  0.00    +0.295 HD
ENDBRANCH  42  43
ENDBRANCH  30  34
ENDBRANCH  26  27
ENDBRANCH   4  26
TORSDOF 7
