REMARK  Name = CHEMBL369506
REMARK  11 active torsions:
REMARK  status: ('A' for Active; 'I' for Inactive)
REMARK    1  A    between atoms: C_1  and  C_2
REMARK    2  A    between atoms: C_2  and  C_3
REMARK    3  A    between atoms: C_2  and  C_4
REMARK    4  A    between atoms: C_4  and  C_5
REMARK    5  A    between atoms: C_7  and  C_35
REMARK    6  A    between atoms: C_8  and  C_12
REMARK    7  A    between atoms: C_10  and  O_11
REMARK    8  A    between atoms: C_15  and  C_18
REMARK    9  A    between atoms: C_18  and  N_19
REMARK   10  A    between atoms: C_22  and  N_25
REMARK   11  A    between atoms: C_33  and  O_34
REMARK                            x       y       z     vdW  Elec       q    Type
REMARK                         _______ _______ _______ _____ _____    ______ ____
ROOT
ATOM      1  C   UNL     1      -0.610  -6.168  -0.052  0.00  0.00    -0.002 A 
ATOM      2  C   UNL     1       0.681  -6.522  -0.455  0.00  0.00    +0.010 A 
ATOM      3  C   UNL     1       1.041  -7.852  -0.512  0.00  0.00    +0.002 A 
ATOM      4  C   UNL     1       0.129  -8.835  -0.172  0.00  0.00    -0.064 A 
ATOM      5  C   UNL     1      -1.151  -8.492   0.229  0.00  0.00    +0.002 A 
ATOM      6  C   UNL     1      -1.524  -7.166   0.296  0.00  0.00    +0.010 A 
ENDROOT
BRANCH   1  10
ATOM      7  C   UNL     1      -1.937  -2.152  -0.062  0.00  0.00    +0.066 C 
ATOM      8  N   UNL     1      -1.125  -2.585  -0.965  0.00  0.00    -0.250 NA
ATOM      9  C   UNL     1      -0.768  -3.897  -1.048  0.00  0.00    +0.092 C 
ATOM     10  C   UNL     1      -1.002  -4.748   0.012  0.00  0.00    +0.063 C 
ATOM     11  N   UNL     1      -1.623  -4.224   1.146  0.00  0.00    -0.312 N 
ATOM     12  C   UNL     1      -2.538  -3.091   0.954  0.00  0.00    +0.246 C 
ATOM     13  H   UNL     1      -1.455  -4.591   2.028  0.00  0.00    +0.149 HD
BRANCH   9  14
ATOM     14  C   UNL     1      -0.129  -4.410  -2.279  0.00  0.00    +0.002 A 
ATOM     15  C   UNL     1      -0.612  -5.570  -2.889  0.00  0.00    +0.010 A 
ATOM     16  C   UNL     1      -0.011  -6.043  -4.037  0.00  0.00    +0.001 A 
ATOM     17  C   UNL     1       1.069  -5.372  -4.583  0.00  0.00    +0.000 A 
ATOM     18  C   UNL     1       1.552  -4.222  -3.984  0.00  0.00    +0.001 A 
ATOM     19  C   UNL     1       0.957  -3.735  -2.839  0.00  0.00    +0.010 A 
ENDBRANCH   9  14
BRANCH  12  20
ATOM     20  O   UNL     1      -3.796  -3.572   0.477  0.00  0.00    -0.369 OA
ATOM     21  H   UNL     1      -4.239  -4.182   1.083  0.00  0.00    +0.212 HD
ENDBRANCH  12  20
BRANCH   7  22
ATOM     22  C   UNL     1      -2.285  -0.687  -0.017  0.00  0.00    +0.058 C 
BRANCH  22  24
ATOM     23  C   UNL     1      -2.002   1.508  -1.175  0.00  0.00    +0.007 C 
ATOM     24  C   UNL     1      -1.553   0.046  -1.143  0.00  0.00    -0.012 C 
ATOM     25  C   UNL     1      -0.045  -0.019  -0.897  0.00  0.00    +0.007 C 
ENDBRANCH  22  24
ENDBRANCH   7  22
ENDBRANCH   1  10
BRANCH   4  26
ATOM     26  C   UNL     1       0.530 -10.286  -0.237  0.00  0.00    -0.043 C 
BRANCH  26  27
ATOM     27  N   UNL     1       1.088 -10.698   1.058  0.00  0.00    +0.382 N 
ATOM     28  C   UNL     1       2.328  -9.955   1.314  0.00  0.00    -0.076 C 
ATOM     29  C   UNL     1       2.870 -10.321   2.697  0.00  0.00    +0.006 C 
ATOM     30  C   UNL     1       3.156 -11.825   2.746  0.00  0.00    +0.089 C 
ATOM     31  C   UNL     1       1.873 -12.589   2.404  0.00  0.00    +0.006 C 
ATOM     32  C   UNL     1       1.368 -12.139   1.032  0.00  0.00    -0.076 C 
ATOM     33  H   UNL     1       0.422 -10.499   1.789  0.00  0.00    -0.081 HD
BRANCH  30  34
ATOM     34  N   UNL     1       3.603 -12.195   4.091  0.00  0.00    -0.291 N 
ATOM     35  C   UNL     1       4.821 -12.763   4.423  0.00  0.00    +0.072 A 
ATOM     36  C   UNL     1       5.936 -13.146   3.692  0.00  0.00    +0.028 A 
ATOM     37  C   UNL     1       7.023 -13.699   4.337  0.00  0.00    +0.002 A 
ATOM     38  C   UNL     1       7.009 -13.875   5.713  0.00  0.00    +0.002 A 
ATOM     39  C   UNL     1       5.911 -13.501   6.454  0.00  0.00    +0.030 A 
ATOM     40  C   UNL     1       4.802 -12.939   5.816  0.00  0.00    +0.093 A 
ATOM     41  N   UNL     1       3.602 -12.481   6.260  0.00  0.00    -0.195 NA
ATOM     42  C   UNL     1       2.900 -12.039   5.249  0.00  0.00    +0.297 A 
BRANCH  42  43
ATOM     43  O   UNL     1       1.658 -11.509   5.338  0.00  0.00    -0.480 OA
ATOM     44  H   UNL     1       0.947 -12.159   5.259  0.00  0.00    +0.295 HD
ENDBRANCH  42  43
ENDBRANCH  30  34
ENDBRANCH  26  27
ENDBRANCH   4  26
TORSDOF 9
