REMARK  Name = CHEMBL401622
REMARK  6 active torsions:
REMARK  status: ('A' for Active; 'I' for Inactive)
REMARK    1  A    between atoms: C_1  and  N_2
REMARK    2  A    between atoms: C_6  and  C_33
REMARK    3  A    between atoms: C_7  and  C_9
REMARK    4  A    between atoms: C_12  and  C_15
REMARK    5  A    between atoms: C_15  and  N_16
REMARK    6  A    between atoms: C_19  and  N_22
REMARK                            x       y       z     vdW  Elec       q    Type
REMARK                         _______ _______ _______ _____ _____    ______ ____
ROOT
ATOM      1  C   UNL     1      -0.005  -1.111  -4.766  0.00  0.00    +0.001 A 
ATOM      2  C   UNL     1       0.688  -1.891  -5.690  0.00  0.00    +0.010 A 
ATOM      3  C   UNL     1       0.674  -1.549  -7.027  0.00  0.00    +0.002 A 
ATOM      4  C   UNL     1      -0.026  -0.433  -7.450  0.00  0.00    -0.064 A 
ATOM      5  C   UNL     1      -0.716   0.345  -6.538  0.00  0.00    +0.002 A 
ATOM      6  C   UNL     1      -0.715   0.009  -5.199  0.00  0.00    +0.010 A 
ENDROOT
BRANCH   1  13
ATOM      7  C   UNL     1      -0.018   1.461   0.010  0.00  0.00    +0.174 C 
ATOM      8  N   UNL     1       0.002  -0.004   0.002  0.00  0.00    -0.248 N 
ATOM      9  C   UNL     1       0.008  -0.789  -1.119  0.00  0.00    +0.161 A 
ATOM     10  C   UNL     1       0.028  -2.128  -0.674  0.00  0.00    +0.061 A 
ATOM     11  C   UNL     1       0.037  -3.166  -1.609  0.00  0.00    +0.025 A 
ATOM     12  C   UNL     1       0.026  -2.833  -2.959  0.00  0.00    +0.009 A 
ATOM     13  C   UNL     1       0.006  -1.474  -3.329  0.00  0.00    +0.081 A 
ATOM     14  N   UNL     1      -0.002  -0.516  -2.418  0.00  0.00    -0.227 NA
ATOM     15  C   UNL     1       0.034  -2.077   0.788  0.00  0.00    +0.147 A 
ATOM     16  N   UNL     1       0.024  -0.818   1.138  0.00  0.00    -0.154 NA
ATOM     17  N   UNL     1       0.052  -3.174   1.653  0.00  0.00    -0.341 N 
ATOM     18  H   UNL     1       0.062  -4.075   1.293  0.00  0.00    +0.144 HD
ATOM     19  H   UNL     1       0.055  -3.035   2.613  0.00  0.00    +0.144 HD
BRANCH  12  20
ATOM     20  C   UNL     1       0.036  -3.893  -3.995  0.00  0.00    -0.016 A 
ATOM     21  C   UNL     1      -0.890  -3.862  -5.037  0.00  0.00    +0.008 A 
ATOM     22  C   UNL     1      -0.875  -4.852  -5.998  0.00  0.00    +0.001 A 
ATOM     23  C   UNL     1       0.054  -5.874  -5.929  0.00  0.00    +0.000 A 
ATOM     24  C   UNL     1       0.975  -5.910  -4.897  0.00  0.00    +0.001 A 
ATOM     25  C   UNL     1       0.974  -4.923  -3.933  0.00  0.00    +0.008 A 
ENDBRANCH  12  20
ENDBRANCH   1  13
BRANCH   4  26
ATOM     26  C   UNL     1      -0.037  -0.064  -8.911  0.00  0.00    -0.043 C 
BRANCH  26  27
ATOM     27  N   UNL     1      -1.170  -0.724  -9.574  0.00  0.00    +0.382 N 
ATOM     28  C   UNL     1      -0.978  -2.179  -9.534  0.00  0.00    -0.076 C 
ATOM     29  C   UNL     1      -2.194  -2.874 -10.152  0.00  0.00    +0.006 C 
ATOM     30  C   UNL     1      -2.352  -2.419 -11.605  0.00  0.00    +0.089 C 
ATOM     31  C   UNL     1      -2.477  -0.893 -11.640  0.00  0.00    +0.006 C 
ATOM     32  C   UNL     1      -1.251  -0.271 -10.968  0.00  0.00    -0.076 C 
ATOM     33  H   UNL     1      -2.025  -0.486  -9.094  0.00  0.00    -0.081 HD
BRANCH  30  34
ATOM     34  N   UNL     1      -3.557  -3.022 -12.179  0.00  0.00    -0.289 N 
ATOM     35  C   UNL     1      -3.598  -3.870 -13.283  0.00  0.00    +0.070 A 
ATOM     36  C   UNL     1      -2.623  -4.380 -14.128  0.00  0.00    +0.028 A 
ATOM     37  C   UNL     1      -2.982  -5.219 -15.164  0.00  0.00    +0.002 A 
ATOM     38  C   UNL     1      -4.311  -5.553 -15.364  0.00  0.00    +0.002 A 
ATOM     39  C   UNL     1      -5.289  -5.050 -14.528  0.00  0.00    +0.028 A 
ATOM     40  C   UNL     1      -4.938  -4.207 -13.484  0.00  0.00    +0.067 A 
ATOM     41  N   UNL     1      -5.670  -3.554 -12.495  0.00  0.00    -0.306 N 
ATOM     42  H   UNL     1      -6.632  -3.598 -12.379  0.00  0.00    +0.170 HD
ATOM     43  C   UNL     1      -4.814  -2.856 -11.725  0.00  0.00    +0.328 A 
ATOM     44  O   UNL     1      -5.129  -2.176 -10.766  0.00  0.00    -0.247 OA
ENDBRANCH  30  34
ENDBRANCH  26  27
ENDBRANCH   4  26
TORSDOF 5
