REMARK  Name = CHEMBL605326
REMARK  3 active torsions:
REMARK  status: ('A' for Active; 'I' for Inactive)
REMARK    1  A    between atoms: C_4  and  C_7
REMARK    2  A    between atoms: C_12  and  C_14
REMARK    3  A    between atoms: C_14  and  N_30
REMARK                            x       y       z     vdW  Elec       q    Type
REMARK                         _______ _______ _______ _____ _____    ______ ____
ROOT
ATOM      1  C   UNL     1       3.513  -3.091  -3.004  0.00  0.00    +0.010 C 
ATOM      2  C   UNL     1       5.043  -3.123  -3.007  0.00  0.00    +0.015 C 
ATOM      3  C   UNL     1       5.573  -1.958  -3.849  0.00  0.00    +0.105 C 
ATOM      4  N   UNL     1       4.966  -2.026  -5.185  0.00  0.00    -0.315 N 
ATOM      5  C   UNL     1       3.502  -2.091  -5.293  0.00  0.00    +0.105 C 
ATOM      6  C   UNL     1       2.995  -3.254  -4.435  0.00  0.00    +0.015 C 
ATOM      7  C   UNL     1       5.757  -2.028  -6.320  0.00  0.00    +0.134 A 
ATOM      8  C   UNL     1       6.138  -0.825  -6.933  0.00  0.00    +0.059 A 
ATOM      9  C   UNL     1       5.900   0.593  -6.669  0.00  0.00    +0.032 A 
ATOM     10  C   UNL     1       6.543   1.280  -7.628  0.00  0.00    +0.085 A 
ATOM     11  N   UNL     1       7.171   0.409  -8.481  0.00  0.00    -0.346 N 
ATOM     12  H   UNL     1       7.699   0.670  -9.252  0.00  0.00    +0.167 HD
ATOM     13  C   UNL     1       6.944  -0.880  -8.085  0.00  0.00    +0.143 A 
ATOM     14  N   UNL     1       7.313  -2.074  -8.547  0.00  0.00    -0.218 NA
ATOM     15  C   UNL     1       6.931  -3.176  -7.940  0.00  0.00    +0.225 A 
ATOM     16  N   UNL     1       6.180  -3.170  -6.853  0.00  0.00    -0.220 NA
ENDROOT
BRANCH   1  22
ATOM     17  C   UNL     1       2.814  -0.251  -0.466  0.00  0.00    +0.106 C 
ATOM     18  C   UNL     1       3.132  -0.417   1.035  0.00  0.00    +0.029 C 
ATOM     19  C   UNL     1       4.164  -1.576   1.045  0.00  0.00    +0.021 C 
ATOM     20  C   UNL     1       3.642  -2.467  -0.110  0.00  0.00    +0.108 C 
ATOM     21  N   UNL     1       3.155  -1.519  -1.128  0.00  0.00    -0.296 N 
ATOM     22  C   UNL     1       3.040  -1.773  -2.446  0.00  0.00    +0.205 C 
ATOM     23  O   UNL     1       2.556  -0.941  -3.184  0.00  0.00    -0.277 OA
BRANCH  17  27
ATOM     24  C   UNL     1      -1.342   0.587  -0.988  0.00  0.00    +0.000 A 
ATOM     25  C   UNL     1      -0.415   1.608  -1.073  0.00  0.00    +0.000 A 
ATOM     26  C   UNL     1       0.930   1.337  -0.904  0.00  0.00    +0.005 A 
ATOM     27  C   UNL     1       1.347   0.044  -0.650  0.00  0.00    -0.027 A 
ATOM     28  C   UNL     1       0.420  -0.977  -0.564  0.00  0.00    +0.005 A 
ATOM     29  C   UNL     1      -0.924  -0.707  -0.734  0.00  0.00    +0.000 A 
ENDBRANCH  17  27
ENDBRANCH   1  22
BRANCH   1  30
ATOM     30  N   UNL     1       3.002  -4.187  -2.171  0.00  0.00    +0.388 N 
ATOM     31  H   UNL     1       2.008  -4.074  -2.039  0.00  0.00    -0.089 HD
ATOM     32  H   UNL     1       3.183  -5.069  -2.627  0.00  0.00    -0.089 HD
ATOM     33  H   UNL     1       3.465  -4.171  -1.274  0.00  0.00    -0.089 HD
ENDBRANCH   1  30
TORSDOF 3
