REMARK  Name = CHEMBL388395
REMARK  6 active torsions:
REMARK  status: ('A' for Active; 'I' for Inactive)
REMARK    1  A    between atoms: C_1  and  N_2
REMARK    2  A    between atoms: N_2  and  C_3
REMARK    3  A    between atoms: N_2  and  C_4
REMARK    4  A    between atoms: C_9  and  C_11
REMARK    5  A    between atoms: C_13  and  C_17
REMARK    6  A    between atoms: C_21  and  N_28
REMARK                            x       y       z     vdW  Elec       q    Type
REMARK                         _______ _______ _______ _____ _____    ______ ____
ROOT
ATOM      1  C   UNL     1       1.345  -6.558   7.516  0.00  0.00    +0.039 C 
ATOM      2  C   UNL     1       1.403  -5.929   8.744  0.00  0.00    +0.048 C 
ATOM      3  C   UNL     1       2.121  -6.383   9.955  0.00  0.00    +0.010 A 
ATOM      4  C   UNL     1       2.907  -7.496  10.235  0.00  0.00    +0.033 A 
ATOM      5  C   UNL     1       3.457  -7.647  11.498  0.00  0.00    +0.035 A 
ATOM      6  C   UNL     1       3.223  -6.688  12.477  0.00  0.00    +0.025 A 
ATOM      7  C   UNL     1       2.445  -5.582  12.203  0.00  0.00    +0.026 A 
ATOM      8  C   UNL     1       1.885  -5.416  10.941  0.00  0.00    +0.042 A 
ATOM      9  N   UNL     1       1.077  -4.414  10.412  0.00  0.00    -0.281 N 
ATOM     10  C   UNL     1       0.769  -4.660   9.128  0.00  0.00    +0.249 C 
ATOM     11  O   UNL     1       0.082  -3.957   8.409  0.00  0.00    -0.270 OA
ATOM     12  H   UNL     1       0.777  -3.635  10.907  0.00  0.00    +0.155 HD
ENDROOT
BRANCH   5  13
ATOM     13  N   UNL     1       4.250  -8.766  11.789  0.00  0.00    -0.270 N 
ATOM     14  C   UNL     1       5.121  -9.232  10.871  0.00  0.00    +0.301 C 
ATOM     15  O   UNL     1       5.310  -8.611   9.843  0.00  0.00    -0.253 OA
ATOM     16  N   UNL     1       5.783 -10.384  11.095  0.00  0.00    -0.313 N 
ATOM     17  H   UNL     1       4.171  -9.206  12.650  0.00  0.00    +0.156 HD
ATOM     18  H   UNL     1       5.632 -10.879  11.915  0.00  0.00    +0.146 HD
ATOM     19  H   UNL     1       6.410 -10.719  10.435  0.00  0.00    +0.146 HD
ENDBRANCH   5  13
BRANCH   1  22
ATOM     20  C   UNL     1       1.369  -4.967   4.269  0.00  0.00    +0.055 A 
ATOM     21  C   UNL     1       1.892  -5.914   5.176  0.00  0.00    +0.040 A 
ATOM     22  C   UNL     1       1.160  -5.798   6.341  0.00  0.00    +0.041 A 
ATOM     23  N   UNL     1       0.216  -4.809   6.155  0.00  0.00    -0.360 N 
ATOM     24  H   UNL     1      -0.433  -4.521   6.816  0.00  0.00    +0.165 HD
ATOM     25  C   UNL     1       0.342  -4.305   4.916  0.00  0.00    +0.096 A 
BRANCH  20  31
ATOM     26  C   UNL     1       1.122  -1.975   0.564  0.00  0.00    -0.050 C 
ATOM     27  C   UNL     1      -0.198  -1.978   1.380  0.00  0.00    +0.005 C 
ATOM     28  C   UNL     1       0.127  -2.920   2.559  0.00  0.00    +0.106 C 
ATOM     29  N   UNL     1       1.242  -3.780   2.136  0.00  0.00    -0.299 N 
ATOM     30  C   UNL     1       1.606  -3.435   0.750  0.00  0.00    +0.093 C 
ATOM     31  C   UNL     1       1.834  -4.726   2.891  0.00  0.00    +0.248 C 
ATOM     32  O   UNL     1       2.753  -5.380   2.437  0.00  0.00    -0.270 OA
BRANCH  26  34
ATOM     33  C   UNL     1       0.376  -0.302  -0.985  0.00  0.00    -0.096 C 
ATOM     34  N   UNL     1       0.865  -1.681  -0.852  0.00  0.00    +0.379 N 
ATOM     35  C   UNL     1       2.109  -1.835  -1.618  0.00  0.00    -0.096 C 
ATOM     36  H   UNL     1       0.170  -2.320  -1.207  0.00  0.00    -0.082 HD
ENDBRANCH  26  34
ENDBRANCH  20  31
ENDBRANCH   1  22
TORSDOF 4
