REMARK  Name = CHEMBL425155
REMARK  8 active torsions:
REMARK  status: ('A' for Active; 'I' for Inactive)
REMARK    1  A    between atoms: C_4  and  C_7
REMARK    2  A    between atoms: C_9  and  C_33
REMARK    3  A    between atoms: C_12  and  C_13
REMARK    4  A    between atoms: C_16  and  C_19
REMARK    5  A    between atoms: C_19  and  N_20
REMARK    6  A    between atoms: N_20  and  C_21
REMARK    7  A    between atoms: C_21  and  C_22
REMARK    8  A    between atoms: C_25  and  C_28
REMARK                            x       y       z     vdW  Elec       q    Type
REMARK                         _______ _______ _______ _____ _____    ______ ____
ROOT
ATOM      1  C   UNL     1       2.918  -2.088   1.874  0.00  0.00    +0.001 A 
ATOM      2  C   UNL     1       2.088  -1.107   2.417  0.00  0.00    +0.010 A 
ATOM      3  C   UNL     1       1.126  -1.457   3.343  0.00  0.00    +0.002 A 
ATOM      4  C   UNL     1       0.984  -2.777   3.731  0.00  0.00    -0.064 A 
ATOM      5  C   UNL     1       1.804  -3.754   3.196  0.00  0.00    +0.002 A 
ATOM      6  C   UNL     1       2.765  -3.418   2.265  0.00  0.00    +0.010 A 
ENDROOT
BRANCH   1  12
ATOM      7  C   UNL     1       3.698  -0.688  -0.038  0.00  0.00    +0.009 A 
ATOM      8  C   UNL     1       4.684  -0.349  -0.963  0.00  0.00    +0.023 A 
ATOM      9  C   UNL     1       5.888  -1.059  -0.937  0.00  0.00    +0.041 A 
ATOM     10  C   UNL     1       6.060  -2.075   0.005  0.00  0.00    +0.123 A 
ATOM     11  N   UNL     1       5.108  -2.371   0.864  0.00  0.00    -0.254 NA
ATOM     12  C   UNL     1       3.953  -1.719   0.880  0.00  0.00    +0.079 A 
BRANCH   7  16
ATOM     13  C   UNL     1      -0.017   1.379   0.010  0.00  0.00    +0.000 A 
ATOM     14  C   UNL     1       1.169   2.092   0.002  0.00  0.00    +0.001 A 
ATOM     15  C   UNL     1       2.377   1.427  -0.013  0.00  0.00    +0.008 A 
ATOM     16  C   UNL     1       2.402   0.033  -0.021  0.00  0.00    -0.016 A 
ATOM     17  C   UNL     1       1.205  -0.680  -0.013  0.00  0.00    +0.008 A 
ATOM     18  C   UNL     1       0.002  -0.004   0.002  0.00  0.00    +0.001 A 
ENDBRANCH   7  16
BRANCH   9  19
ATOM     19  C   UNL     1       6.966  -0.738  -1.898  0.00  0.00    +0.208 A 
ATOM     20  N   UNL     1       8.159  -1.331  -1.987  0.00  0.00    -0.106 NA
ATOM     21  N   UNL     1       8.803  -0.762  -2.948  0.00  0.00    -0.021 NA
ATOM     22  N   UNL     1       8.068   0.159  -3.465  0.00  0.00    -0.021 NA
ATOM     23  N   UNL     1       6.936   0.197  -2.849  0.00  0.00    -0.106 NA
ENDBRANCH   9  19
ENDBRANCH   1  12
BRANCH   4  24
ATOM     24  C   UNL     1      -0.069  -3.152   4.742  0.00  0.00    -0.046 C 
BRANCH  24  25
ATOM     25  N   UNL     1      -1.322  -3.477   4.047  0.00  0.00    +0.384 N 
ATOM     26  H   UNL     1      -1.632  -2.675   3.520  0.00  0.00    -0.085 HD
ATOM     27  H   UNL     1      -1.167  -4.252   3.420  0.00  0.00    -0.085 HD
BRANCH  25  28
ATOM     28  C   UNL     1      -2.348  -3.843   5.033  0.00  0.00    -0.046 C 
BRANCH  28  29
ATOM     29  C   UNL     1      -3.633  -4.176   4.319  0.00  0.00    -0.064 A 
ATOM     30  C   UNL     1      -4.557  -3.180   4.062  0.00  0.00    +0.002 A 
ATOM     31  C   UNL     1      -5.735  -3.479   3.409  0.00  0.00    +0.010 A 
ATOM     32  C   UNL     1      -5.994  -4.789   3.009  0.00  0.00    +0.003 A 
ATOM     33  C   UNL     1      -5.059  -5.789   3.271  0.00  0.00    +0.010 A 
ATOM     34  C   UNL     1      -3.882  -5.477   3.920  0.00  0.00    +0.002 A 
BRANCH  32  35
ATOM     35  C   UNL     1      -7.259  -5.117   2.307  0.00  0.00    +0.102 A 
ATOM     36  C   UNL     1      -7.569  -6.386   1.896  0.00  0.00    +0.097 A 
ATOM     37  S   UNL     1      -9.074  -6.165   1.185  0.00  0.00    +0.029 S 
ATOM     38  N   UNL     1      -9.251  -4.574   1.418  0.00  0.00    -0.110 NA
ATOM     39  N   UNL     1      -8.182  -4.208   2.034  0.00  0.00    -0.141 NA
ENDBRANCH  32  35
ENDBRANCH  28  29
ENDBRANCH  25  28
ENDBRANCH  24  25
ENDBRANCH   4  24
TORSDOF 8
