REMARK  Name = CHEMBL598448
REMARK  3 active torsions:
REMARK  status: ('A' for Active; 'I' for Inactive)
REMARK    1  A    between atoms: C_10  and  C_11
REMARK    2  A    between atoms: C_11  and  C_12
REMARK    3  A    between atoms: C_12  and  N_28
REMARK                            x       y       z     vdW  Elec       q    Type
REMARK                         _______ _______ _______ _____ _____    ______ ____
ROOT
ATOM      1  C   UNL     1       5.280   0.426   1.427  0.00  0.00    -0.064 C 
ATOM      2  C   UNL     1       4.112   1.173   2.075  0.00  0.00    +0.006 C 
ATOM      3  C   UNL     1       3.875   2.489   1.328  0.00  0.00    +0.105 C 
ATOM      4  N   UNL     1       5.133   3.248   1.296  0.00  0.00    -0.315 N 
ATOM      5  C   UNL     1       6.340   2.592   0.775  0.00  0.00    +0.105 C 
ATOM      6  C   UNL     1       6.549   1.274   1.528  0.00  0.00    +0.006 C 
ATOM      7  C   UNL     1       5.179   4.554   1.747  0.00  0.00    +0.134 A 
ATOM      8  C   UNL     1       4.839   5.620   0.899  0.00  0.00    +0.059 A 
ATOM      9  C   UNL     1       4.397   5.739  -0.489  0.00  0.00    +0.032 A 
ATOM     10  C   UNL     1       4.227   7.050  -0.731  0.00  0.00    +0.085 A 
ATOM     11  N   UNL     1       4.526   7.773   0.395  0.00  0.00    -0.346 N 
ATOM     12  H   UNL     1       4.477   8.739   0.465  0.00  0.00    +0.167 HD
ATOM     13  C   UNL     1       4.902   6.931   1.406  0.00  0.00    +0.143 A 
ATOM     14  N   UNL     1       5.284   7.108   2.670  0.00  0.00    -0.218 NA
ATOM     15  C   UNL     1       5.594   6.079   3.428  0.00  0.00    +0.225 A 
ATOM     16  N   UNL     1       5.543   4.832   2.995  0.00  0.00    -0.220 NA
ENDROOT
BRANCH   1  17
ATOM     17  N   UNL     1       5.489  -0.852   2.120  0.00  0.00    +0.382 N 
ATOM     18  H   UNL     1       6.258  -1.345   1.692  0.00  0.00    -0.089 HD
ATOM     19  H   UNL     1       5.699  -0.677   3.091  0.00  0.00    -0.089 HD
ATOM     20  H   UNL     1       4.652  -1.412   2.053  0.00  0.00    -0.089 HD
ENDBRANCH   1  17
BRANCH   1  21
ATOM     21  C   UNL     1       4.960   0.161  -0.046  0.00  0.00    +0.023 C 
BRANCH  21  31
ATOM     22  C   UNL     1       5.950  -4.832  -0.589  0.00  0.00    +0.001 A 
ATOM     23  C   UNL     1       4.917  -4.094  -0.013  0.00  0.00    +0.001 A 
ATOM     24  C   UNL     1       4.936  -2.733  -0.027  0.00  0.00    +0.009 A 
ATOM     25  C   UNL     1       6.012  -2.059  -0.628  0.00  0.00    -0.015 A 
ATOM     26  C   UNL     1       7.063  -2.809  -1.213  0.00  0.00    -0.018 A 
ATOM     27  C   UNL     1       7.008  -4.213  -1.180  0.00  0.00    +0.008 A 
ATOM     28  C   UNL     1       8.140  -2.135  -1.814  0.00  0.00    +0.008 A 
ATOM     29  C   UNL     1       8.159  -0.774  -1.827  0.00  0.00    +0.001 A 
ATOM     30  C   UNL     1       7.126  -0.037  -1.252  0.00  0.00    +0.004 A 
ATOM     31  C   UNL     1       6.067  -0.655  -0.661  0.00  0.00    -0.041 A 
ENDBRANCH  21  31
ENDBRANCH   1  21
TORSDOF 3
