REMARK  Name = CHEMBL261260
REMARK  2 active torsions:
REMARK  status: ('A' for Active; 'I' for Inactive)
REMARK    1  A    between atoms: C_7  and  N_11
REMARK    2  A    between atoms: C_14  and  N_17
REMARK                            x       y       z     vdW  Elec       q    Type
REMARK                         _______ _______ _______ _____ _____    ______ ____
ROOT
ATOM      1  C   UNL     1       0.040   1.262   0.627  0.00  0.00    +0.198 A 
ATOM      2  N   UNL     1       1.301   1.753   0.465  0.00  0.00    -0.329 N 
ATOM      3  H   UNL     1       1.566   2.685   0.523  0.00  0.00    +0.168 HD
ATOM      4  C   UNL     1       2.127   0.690   0.203  0.00  0.00    +0.163 A 
ATOM      5  C   UNL     1       1.306  -0.451   0.217  0.00  0.00    +0.147 A 
ATOM      6  N   UNL     1       0.045  -0.032   0.481  0.00  0.00    -0.231 NA
ATOM      7  C   UNL     1       1.902  -1.700  -0.025  0.00  0.00    +0.152 A 
ATOM      8  N   UNL     1       3.210  -1.744  -0.256  0.00  0.00    -0.218 NA
ATOM      9  C   UNL     1       3.941  -0.644  -0.258  0.00  0.00    +0.225 A 
ATOM     10  N   UNL     1       3.426   0.547  -0.036  0.00  0.00    -0.216 NA
ENDROOT
BRANCH   7  11
ATOM     11  N   UNL     1       1.144  -2.858  -0.024  0.00  0.00    -0.313 N 
ATOM     12  C   UNL     1      -0.319  -2.795   0.095  0.00  0.00    +0.105 C 
ATOM     13  C   UNL     1      -0.942  -3.574  -1.067  0.00  0.00    +0.003 C 
ATOM     14  C   UNL     1      -0.373  -4.995  -1.087  0.00  0.00    -0.072 C 
ATOM     15  C   UNL     1       1.141  -4.937  -1.301  0.00  0.00    +0.003 C 
ATOM     16  C   UNL     1       1.787  -4.173  -0.147  0.00  0.00    +0.105 C 
BRANCH  14  17
ATOM     17  N   UNL     1      -0.993  -5.755  -2.181  0.00  0.00    +0.380 N 
ATOM     18  H   UNL     1      -0.796  -5.301  -3.060  0.00  0.00    -0.090 HD
ATOM     19  H   UNL     1      -0.619  -6.692  -2.194  0.00  0.00    -0.090 HD
ATOM     20  H   UNL     1      -1.992  -5.794  -2.039  0.00  0.00    -0.090 HD
ENDBRANCH  14  17
ENDBRANCH   7  11
TORSDOF 2
