REMARK  Name = CHEMBL605326
REMARK  3 active torsions:
REMARK  status: ('A' for Active; 'I' for Inactive)
REMARK    1  A    between atoms: C_4  and  C_7
REMARK    2  A    between atoms: C_12  and  C_14
REMARK    3  A    between atoms: C_14  and  N_30
REMARK                            x       y       z     vdW  Elec       q    Type
REMARK                         _______ _______ _______ _____ _____    ______ ____
ROOT
ATOM      1  C   UNL     1       3.350  -3.179   2.850  0.00  0.00    +0.097 C 
ATOM      2  C   UNL     1       1.963  -3.817   2.745  0.00  0.00    +0.050 C 
ATOM      3  C   UNL     1       0.921  -2.866   3.342  0.00  0.00    +0.109 C 
ATOM      4  N   UNL     1       1.325  -2.522   4.712  0.00  0.00    -0.314 N 
ATOM      5  C   UNL     1       2.675  -1.985   4.937  0.00  0.00    +0.109 C 
ATOM      6  C   UNL     1       3.696  -2.947   4.322  0.00  0.00    +0.050 C 
ATOM      7  C   UNL     1       0.452  -2.700   5.770  0.00  0.00    +0.134 A 
ATOM      8  C   UNL     1      -0.348  -1.641   6.228  0.00  0.00    +0.059 A 
ATOM      9  C   UNL     1      -0.532  -0.242   5.847  0.00  0.00    +0.032 A 
ATOM     10  C   UNL     1      -1.459   0.267   6.675  0.00  0.00    +0.085 A 
ATOM     11  N   UNL     1      -1.878  -0.699   7.553  0.00  0.00    -0.346 N 
ATOM     12  H   UNL     1      -2.544  -0.569   8.247  0.00  0.00    +0.167 HD
ATOM     13  C   UNL     1      -1.221  -1.873   7.307  0.00  0.00    +0.143 A 
ATOM     14  N   UNL     1      -1.252  -3.088   7.851  0.00  0.00    -0.218 NA
ATOM     15  C   UNL     1      -0.482  -4.051   7.390  0.00  0.00    +0.225 A 
ATOM     16  N   UNL     1       0.346  -3.878   6.376  0.00  0.00    -0.220 NA
ENDROOT
BRANCH   1  22
ATOM     17  C   UNL     1       4.665  -0.070   0.954  0.00  0.00    +0.106 C 
ATOM     18  C   UNL     1       6.177   0.196   0.794  0.00  0.00    +0.029 C 
ATOM     19  C   UNL     1       6.796  -0.589   1.980  0.00  0.00    +0.021 C 
ATOM     20  C   UNL     1       5.863  -1.824   2.056  0.00  0.00    +0.108 C 
ATOM     21  N   UNL     1       4.520  -1.302   1.743  0.00  0.00    -0.293 N 
ATOM     22  C   UNL     1       3.353  -1.862   2.119  0.00  0.00    +0.236 C 
ATOM     23  O   UNL     1       2.305  -1.305   1.868  0.00  0.00    -0.274 OA
BRANCH  17  27
ATOM     24  C   UNL     1       2.866  -0.583  -2.886  0.00  0.00    +0.000 A 
ATOM     25  C   UNL     1       2.724   0.615  -2.210  0.00  0.00    +0.000 A 
ATOM     26  C   UNL     1       3.305   0.780  -0.967  0.00  0.00    +0.005 A 
ATOM     27  C   UNL     1       4.030  -0.251  -0.400  0.00  0.00    -0.027 A 
ATOM     28  C   UNL     1       4.172  -1.449  -1.076  0.00  0.00    +0.005 A 
ATOM     29  C   UNL     1       3.591  -1.614  -2.319  0.00  0.00    +0.000 A 
ENDBRANCH  17  27
ENDBRANCH   1  22
BRANCH   1  30
ATOM     30  N   UNL     1       4.347  -4.075   2.248  0.00  0.00    -0.317 NA
ATOM     31  H   UNL     1       4.223  -4.135   1.249  0.00  0.00    +0.119 HD
ATOM     32  H   UNL     1       5.284  -3.780   2.479  0.00  0.00    +0.119 HD
ENDBRANCH   1  30
TORSDOF 3
