REMARK  Name = CHEMBL265451
REMARK  2 active torsions:
REMARK  status: ('A' for Active; 'I' for Inactive)
REMARK    1  A    between atoms: C_10  and  N_11
REMARK    2  A    between atoms: C_14  and  N_17
REMARK                            x       y       z     vdW  Elec       q    Type
REMARK                         _______ _______ _______ _____ _____    ______ ____
ROOT
ATOM      1  C   UNL     1       2.284   2.865  -2.571  0.00  0.00    +0.147 A 
ATOM      2  C   UNL     1       2.397   2.499  -1.212  0.00  0.00    +0.078 A 
ATOM      3  C   UNL     1       3.174   1.325  -1.164  0.00  0.00    +0.161 A 
ATOM      4  N   UNL     1       3.500   1.023  -2.453  0.00  0.00    -0.260 N 
ATOM      5  H   UNL     1       4.032   0.265  -2.741  0.00  0.00    +0.191 HD
ATOM      6  N   UNL     1       2.933   1.993  -3.288  0.00  0.00    -0.180 NA
ATOM      7  N   UNL     1       3.429   0.772   0.020  0.00  0.00    -0.216 NA
ATOM      8  C   UNL     1       2.964   1.310   1.126  0.00  0.00    +0.225 A 
ATOM      9  N   UNL     1       2.231   2.409   1.131  0.00  0.00    -0.220 NA
ATOM     10  C   UNL     1       1.922   3.035   0.000  0.00  0.00    +0.135 A 
ENDROOT
BRANCH  10  11
ATOM     11  N   UNL     1       1.155   4.184   0.014  0.00  0.00    -0.315 N 
ATOM     12  C   UNL     1      -0.309   4.107  -0.076  0.00  0.00    +0.105 C 
ATOM     13  C   UNL     1      -0.917   4.879   1.099  0.00  0.00    +0.003 C 
ATOM     14  C   UNL     1      -0.362   6.306   1.108  0.00  0.00    -0.072 C 
ATOM     15  C   UNL     1       1.157   6.262   1.293  0.00  0.00    +0.003 C 
ATOM     16  C   UNL     1       1.788   5.505   0.126  0.00  0.00    +0.105 C 
BRANCH  14  17
ATOM     17  N   UNL     1      -0.968   7.059   2.214  0.00  0.00    +0.380 N 
ATOM     18  H   UNL     1      -0.749   6.607   3.089  0.00  0.00    -0.090 HD
ATOM     19  H   UNL     1      -0.602   7.999   2.220  0.00  0.00    -0.090 HD
ATOM     20  H   UNL     1      -1.969   7.089   2.092  0.00  0.00    -0.090 HD
ENDBRANCH  14  17
ENDBRANCH  10  11
TORSDOF 2
