REMARK  Name = CHEMBL228652
REMARK  5 active torsions:
REMARK  status: ('A' for Active; 'I' for Inactive)
REMARK    1  A    between atoms: C_3  and  C_28
REMARK    2  A    between atoms: C_5  and  C_7
REMARK    3  A    between atoms: C_9  and  C_13
REMARK    4  A    between atoms: C_17  and  N_24
REMARK    5  A    between atoms: C_28  and  N_29
REMARK                            x       y       z     vdW  Elec       q    Type
REMARK                         _______ _______ _______ _____ _____    ______ ____
ROOT
ATOM      1  C   UNL     1      -0.186  -5.485   0.004  0.00  0.00    +0.039 C 
ATOM      2  C   UNL     1       0.429  -6.716  -0.118  0.00  0.00    +0.048 C 
ATOM      3  C   UNL     1      -0.223  -8.037  -0.258  0.00  0.00    +0.010 A 
ATOM      4  C   UNL     1      -1.552  -8.443  -0.309  0.00  0.00    +0.033 A 
ATOM      5  C   UNL     1      -1.854  -9.789  -0.450  0.00  0.00    +0.035 A 
ATOM      6  C   UNL     1      -0.829 -10.724  -0.539  0.00  0.00    +0.025 A 
ATOM      7  C   UNL     1       0.491 -10.326  -0.488  0.00  0.00    +0.026 A 
ATOM      8  C   UNL     1       0.810  -8.980  -0.348  0.00  0.00    +0.042 A 
ATOM      9  N   UNL     1       2.035  -8.323  -0.272  0.00  0.00    -0.281 N 
ATOM     10  C   UNL     1       1.870  -6.995  -0.143  0.00  0.00    +0.249 C 
ATOM     11  O   UNL     1       2.761  -6.169  -0.058  0.00  0.00    -0.270 OA
ATOM     12  H   UNL     1       2.897  -8.766  -0.312  0.00  0.00    +0.155 HD
ENDROOT
BRANCH   5  13
ATOM     13  N   UNL     1      -3.191 -10.206  -0.501  0.00  0.00    -0.270 N 
ATOM     14  C   UNL     1      -4.116  -9.432  -1.103  0.00  0.00    +0.301 C 
ATOM     15  O   UNL     1      -3.808  -8.334  -1.526  0.00  0.00    -0.253 OA
ATOM     16  N   UNL     1      -5.382  -9.874  -1.234  0.00  0.00    -0.313 N 
ATOM     17  H   UNL     1      -3.450 -11.052  -0.104  0.00  0.00    +0.156 HD
ATOM     18  H   UNL     1      -5.628 -10.749  -0.897  0.00  0.00    +0.146 HD
ATOM     19  H   UNL     1      -6.048  -9.317  -1.667  0.00  0.00    +0.146 HD
ENDBRANCH   5  13
BRANCH   1  22
ATOM     20  C   UNL     1       0.533  -2.405  -1.745  0.00  0.00    -0.000 A 
ATOM     21  C   UNL     1      -0.386  -3.282  -1.141  0.00  0.00    +0.035 A 
ATOM     22  C   UNL     1       0.339  -4.364  -0.672  0.00  0.00    +0.041 A 
ATOM     23  N   UNL     1       1.665  -4.151  -0.982  0.00  0.00    -0.361 N 
ATOM     24  H   UNL     1       2.396  -4.753  -0.771  0.00  0.00    +0.165 HD
ATOM     25  C   UNL     1       1.782  -2.975  -1.633  0.00  0.00    +0.091 A 
BRANCH  20  30
ATOM     26  C   UNL     1      -1.393   0.555  -3.035  0.00  0.00    +0.001 A 
ATOM     27  C   UNL     1      -0.381   1.313  -3.596  0.00  0.00    +0.002 A 
ATOM     28  C   UNL     1       0.927   0.866  -3.556  0.00  0.00    -0.064 A 
ATOM     29  C   UNL     1       1.229  -0.340  -2.957  0.00  0.00    +0.010 A 
ATOM     30  C   UNL     1       0.214  -1.107  -2.391  0.00  0.00    -0.016 A 
ATOM     31  C   UNL     1      -1.102  -0.652  -2.433  0.00  0.00    +0.008 A 
BRANCH  28  32
ATOM     32  C   UNL     1       2.025   1.697  -4.170  0.00  0.00    -0.051 C 
BRANCH  32  33
ATOM     33  N   UNL     1       2.567   2.615  -3.159  0.00  0.00    +0.381 N 
ATOM     34  H   UNL     1       3.301   3.172  -3.570  0.00  0.00    -0.090 HD
ATOM     35  H   UNL     1       1.831   3.221  -2.827  0.00  0.00    -0.090 HD
ATOM     36  H   UNL     1       2.939   2.084  -2.386  0.00  0.00    -0.090 HD
ENDBRANCH  32  33
ENDBRANCH  28  32
ENDBRANCH  20  30
ENDBRANCH   1  22
TORSDOF 5
