REMARK  Name = CHEMBL599448
REMARK  5 active torsions:
REMARK  status: ('A' for Active; 'I' for Inactive)
REMARK    1  A    between atoms: C_6  and  C_7
REMARK    2  A    between atoms: C_7  and  N_8
REMARK    3  A    between atoms: C_9  and  C_11
REMARK    4  A    between atoms: C_11  and  N_27
REMARK    5  A    between atoms: N_14  and  C_17
REMARK                            x       y       z     vdW  Elec       q    Type
REMARK                         _______ _______ _______ _____ _____    ______ ____
ROOT
ATOM      1  C   UNL     1      -3.313  -1.943  -3.024  0.00  0.00    +0.010 C 
ATOM      2  C   UNL     1      -4.200  -0.787  -3.490  0.00  0.00    +0.015 C 
ATOM      3  C   UNL     1      -5.409  -0.668  -2.557  0.00  0.00    +0.104 C 
ATOM      4  N   UNL     1      -6.092  -1.967  -2.500  0.00  0.00    -0.329 N 
ATOM      5  C   UNL     1      -5.311  -3.161  -2.150  0.00  0.00    +0.104 C 
ATOM      6  C   UNL     1      -4.103  -3.252  -3.087  0.00  0.00    +0.015 C 
ENDROOT
BRANCH   4   7
ATOM      7  C   UNL     1      -7.452  -2.065  -2.771  0.00  0.00    +0.042 A 
ATOM      8  C   UNL     1      -7.911  -2.300  -4.063  0.00  0.00    +0.043 A 
ATOM      9  C   UNL     1      -9.272  -2.391  -4.292  0.00  0.00    +0.115 A 
ATOM     10  N   UNL     1     -10.147  -2.261  -3.317  0.00  0.00    -0.237 NA
ATOM     11  C   UNL     1      -9.771  -2.035  -2.063  0.00  0.00    +0.140 A 
ATOM     12  C   UNL     1      -8.405  -1.936  -1.749  0.00  0.00    +0.040 A 
ATOM     13  C   UNL     1      -8.332  -1.698  -0.307  0.00  0.00    +0.031 A 
ATOM     14  C   UNL     1      -9.594  -1.674   0.149  0.00  0.00    +0.085 A 
ATOM     15  N   UNL     1     -10.467  -1.865  -0.890  0.00  0.00    -0.346 N 
ATOM     16  H   UNL     1     -11.433  -1.887  -0.808  0.00  0.00    +0.167 HD
ENDBRANCH   4   7
BRANCH   1  18
ATOM     17  N   UNL     1      -1.831  -0.868  -1.361  0.00  0.00    -0.312 N 
ATOM     18  C   UNL     1      -2.867  -1.694  -1.606  0.00  0.00    +0.202 C 
ATOM     19  O   UNL     1      -3.441  -2.236  -0.686  0.00  0.00    -0.277 OA
ATOM     20  H   UNL     1      -1.372  -0.434  -2.097  0.00  0.00    +0.149 HD
BRANCH  17  21
ATOM     21  C   UNL     1      -1.397  -0.625   0.017  0.00  0.00    +0.139 C 
BRANCH  21  27
ATOM     22  C   UNL     1      -0.450   1.690   0.091  0.00  0.00    +0.006 A 
ATOM     23  C   UNL     1       0.620   2.564   0.091  0.00  0.00    +0.020 A 
ATOM     24  C   UNL     1       1.913   2.075   0.016  0.00  0.00    +0.041 A 
ATOM     25  C   UNL     1       2.132   0.712  -0.058  0.00  0.00    +0.020 A 
ATOM     26  C   UNL     1       1.061  -0.162  -0.058  0.00  0.00    +0.006 A 
ATOM     27  C   UNL     1      -0.230   0.327   0.017  0.00  0.00    -0.030 A 
ATOM     28 CL   UNL     1       3.257   3.173   0.015  0.00  0.00    -0.084 Cl
ENDBRANCH  21  27
ENDBRANCH  17  21
ENDBRANCH   1  18
BRANCH   1  29
ATOM     29  N   UNL     1      -2.135  -2.039  -3.897  0.00  0.00    +0.388 N 
ATOM     30  H   UNL     1      -1.550  -2.801  -3.590  0.00  0.00    -0.089 HD
ATOM     31  H   UNL     1      -2.434  -2.206  -4.847  0.00  0.00    -0.089 HD
ATOM     32  H   UNL     1      -1.614  -1.176  -3.856  0.00  0.00    -0.089 HD
ENDBRANCH   1  29
TORSDOF 5
