REMARK  Name = CHEMBL603882
REMARK  3 active torsions:
REMARK  status: ('A' for Active; 'I' for Inactive)
REMARK    1  A    between atoms: C_6  and  C_11
REMARK    2  A    between atoms: C_11  and  C_12
REMARK    3  A    between atoms: C_12  and  N_28
REMARK                            x       y       z     vdW  Elec       q    Type
REMARK                         _______ _______ _______ _____ _____    ______ ____
ROOT
ATOM      1  C   UNL     1       5.425  -2.872   1.401  0.00  0.00    -0.064 C 
ATOM      2  C   UNL     1       5.598  -1.487   2.028  0.00  0.00    +0.006 C 
ATOM      3  C   UNL     1       6.663  -0.708   1.251  0.00  0.00    +0.105 C 
ATOM      4  N   UNL     1       7.895  -1.507   1.205  0.00  0.00    -0.315 N 
ATOM      5  C   UNL     1       7.824  -2.886   0.704  0.00  0.00    +0.105 C 
ATOM      6  C   UNL     1       6.745  -3.641   1.488  0.00  0.00    +0.006 C 
ATOM      7  C   UNL     1       9.098  -0.972   1.627  0.00  0.00    +0.134 A 
ATOM      8  C   UNL     1       9.939  -0.296   0.728  0.00  0.00    +0.059 A 
ATOM      9  C   UNL     1       9.882   0.034  -0.695  0.00  0.00    +0.032 A 
ATOM     10  C   UNL     1      11.008   0.707  -0.982  0.00  0.00    +0.085 A 
ATOM     11  N   UNL     1      11.776   0.832   0.147  0.00  0.00    -0.346 N 
ATOM     12  H   UNL     1      12.635   1.281   0.189  0.00  0.00    +0.167 HD
ATOM     13  C   UNL     1      11.152   0.231   1.206  0.00  0.00    +0.143 A 
ATOM     14  N   UNL     1      11.455   0.068   2.493  0.00  0.00    -0.218 NA
ATOM     15  C   UNL     1      10.637  -0.573   3.299  0.00  0.00    +0.225 A 
ATOM     16  N   UNL     1       9.486  -1.078   2.894  0.00  0.00    -0.220 NA
ENDROOT
BRANCH   1  17
ATOM     17  N   UNL     1       4.381  -3.610   2.124  0.00  0.00    +0.382 N 
ATOM     18  H   UNL     1       4.266  -4.524   1.710  0.00  0.00    -0.089 HD
ATOM     19  H   UNL     1       4.649  -3.711   3.092  0.00  0.00    -0.089 HD
ATOM     20  H   UNL     1       3.510  -3.104   2.067  0.00  0.00    -0.089 HD
ENDBRANCH   1  17
BRANCH   1  21
ATOM     21  C   UNL     1       5.019  -2.721  -0.066  0.00  0.00    +0.022 C 
BRANCH  21  27
ATOM     22  C   UNL     1       0.112   1.457  -0.486  0.00  0.00    +0.001 A 
ATOM     23  C   UNL     1       1.317   2.158  -0.507  0.00  0.00    +0.001 A 
ATOM     24  C   UNL     1       2.509   1.505  -0.432  0.00  0.00    +0.008 A 
ATOM     25  C   UNL     1       2.528   0.103  -0.330  0.00  0.00    -0.018 A 
ATOM     26  C   UNL     1       3.739  -0.606  -0.250  0.00  0.00    +0.012 A 
ATOM     27  C   UNL     1       3.719  -1.963  -0.152  0.00  0.00    -0.048 A 
ATOM     28  C   UNL     1       2.514  -2.664  -0.130  0.00  0.00    +0.004 A 
ATOM     29  C   UNL     1       1.322  -2.011  -0.206  0.00  0.00    +0.009 A 
ATOM     30  C   UNL     1       1.303  -0.609  -0.308  0.00  0.00    -0.018 A 
ATOM     31  C   UNL     1       0.092   0.100  -0.388  0.00  0.00    +0.008 A 
ENDBRANCH  21  27
ENDBRANCH   1  21
TORSDOF 3
