REMARK  Name = CHEMBL369506
REMARK  8 active torsions:
REMARK  status: ('A' for Active; 'I' for Inactive)
REMARK    1  A    between atoms: C_1  and  C_2
REMARK    2  A    between atoms: C_2  and  C_3
REMARK    3  A    between atoms: C_2  and  C_4
REMARK    4  A    between atoms: C_7  and  C_35
REMARK    5  A    between atoms: C_8  and  C_12
REMARK    6  A    between atoms: C_15  and  C_18
REMARK    7  A    between atoms: C_18  and  N_19
REMARK    8  A    between atoms: C_22  and  N_25
REMARK                            x       y       z     vdW  Elec       q    Type
REMARK                         _______ _______ _______ _____ _____    ______ ____
ROOT
ATOM      1  C   UNL     1      -3.700  -1.865  -4.676  0.00  0.00    -0.056 A 
ATOM      2  C   UNL     1      -3.966  -0.539  -4.960  0.00  0.00    +0.002 A 
ATOM      3  C   UNL     1      -4.727  -0.208  -6.066  0.00  0.00    +0.002 A 
ATOM      4  C   UNL     1      -5.221  -1.204  -6.888  0.00  0.00    -0.064 A 
ATOM      5  C   UNL     1      -4.955  -2.530  -6.604  0.00  0.00    +0.002 A 
ATOM      6  C   UNL     1      -4.190  -2.861  -5.501  0.00  0.00    +0.002 A 
ENDROOT
BRANCH   1  11
ATOM      7  C   UNL     1      -1.227  -0.427  -0.137  0.00  0.00    -0.000 C 
ATOM      8  C   UNL     1      -1.755  -1.146  -1.126  0.00  0.00    +0.052 C 
ATOM      9  N   UNL     1      -3.090  -1.414  -1.160  0.00  0.00    -0.257 NA
ATOM     10  C   UNL     1      -3.644  -1.907  -2.225  0.00  0.00    +0.039 C 
ATOM     11  C   UNL     1      -2.870  -2.226  -3.471  0.00  0.00    +0.014 C 
ATOM     12  N   UNL     1      -1.610  -1.475  -3.509  0.00  0.00    +0.410 N 
ATOM     13  C   UNL     1      -0.889  -1.682  -2.245  0.00  0.00    +0.152 C 
ATOM     14  O   UNL     1      -0.652  -3.077  -2.050  0.00  0.00    -0.245 OA
ATOM     15  H   UNL     1      -1.045  -1.802  -4.279  0.00  0.00    -0.080 HD
ATOM     16  H   UNL     1      -1.806  -0.492  -3.626  0.00  0.00    -0.080 HD
BRANCH  10  17
ATOM     17  C   UNL     1      -5.094  -2.163  -2.211  0.00  0.00    -0.005 A 
ATOM     18  C   UNL     1      -5.622  -3.251  -2.913  0.00  0.00    +0.009 A 
ATOM     19  C   UNL     1      -6.981  -3.484  -2.895  0.00  0.00    +0.001 A 
ATOM     20  C   UNL     1      -7.822  -2.645  -2.184  0.00  0.00    +0.000 A 
ATOM     21  C   UNL     1      -7.306  -1.566  -1.487  0.00  0.00    +0.001 A 
ATOM     22  C   UNL     1      -5.949  -1.323  -1.490  0.00  0.00    +0.009 A 
ENDBRANCH  10  17
BRANCH   7  24
ATOM     23  C   UNL     1       0.639   1.198  -0.289  0.00  0.00    +0.011 C 
ATOM     24  C   UNL     1       0.268  -0.265  -0.039  0.00  0.00    +0.007 C 
ATOM     25  C   UNL     1       0.735  -0.678   1.358  0.00  0.00    +0.011 C 
ENDBRANCH   7  24
ENDBRANCH   1  11
BRANCH   4  26
ATOM     26  C   UNL     1      -6.052  -0.843  -8.092  0.00  0.00    -0.043 C 
BRANCH  26  27
ATOM     27  N   UNL     1      -5.173  -0.659  -9.255  0.00  0.00    +0.382 N 
ATOM     28  C   UNL     1      -4.291   0.491  -9.023  0.00  0.00    -0.076 C 
ATOM     29  C   UNL     1      -3.318   0.637 -10.196  0.00  0.00    +0.006 C 
ATOM     30  C   UNL     1      -4.114   0.855 -11.486  0.00  0.00    +0.089 C 
ATOM     31  C   UNL     1      -5.084  -0.314 -11.680  0.00  0.00    +0.006 C 
ATOM     32  C   UNL     1      -5.990  -0.426 -10.452  0.00  0.00    -0.076 C 
ATOM     33  H   UNL     1      -4.614  -1.488  -9.387  0.00  0.00    -0.081 HD
BRANCH  30  34
ATOM     34  N   UNL     1      -3.193   0.920 -12.624  0.00  0.00    -0.288 N 
ATOM     35  C   UNL     1      -3.030   1.990 -13.488  0.00  0.00    +0.072 A 
ATOM     36  C   UNL     1      -3.610   3.246 -13.585  0.00  0.00    +0.028 A 
ATOM     37  C   UNL     1      -3.219   4.106 -14.589  0.00  0.00    +0.002 A 
ATOM     38  C   UNL     1      -2.250   3.724 -15.505  0.00  0.00    +0.002 A 
ATOM     39  C   UNL     1      -1.663   2.481 -15.424  0.00  0.00    +0.030 A 
ATOM     40  C   UNL     1      -2.047   1.598 -14.412  0.00  0.00    +0.093 A 
ATOM     41  N   UNL     1      -1.665   0.337 -14.078  0.00  0.00    -0.191 NA
ATOM     42  C   UNL     1      -2.332  -0.059 -13.025  0.00  0.00    +0.350 A 
ATOM     43  O   UNL     1      -2.192  -1.264 -12.425  0.00  0.00    -0.244 OA
ENDBRANCH  30  34
ENDBRANCH  26  27
ENDBRANCH   4  26
TORSDOF 6
