REMARK  Name = CHEMBL388395
REMARK  6 active torsions:
REMARK  status: ('A' for Active; 'I' for Inactive)
REMARK    1  A    between atoms: C_1  and  N_2
REMARK    2  A    between atoms: N_2  and  C_3
REMARK    3  A    between atoms: N_2  and  C_4
REMARK    4  A    between atoms: C_9  and  C_11
REMARK    5  A    between atoms: C_13  and  C_17
REMARK    6  A    between atoms: C_21  and  N_28
REMARK                            x       y       z     vdW  Elec       q    Type
REMARK                         _______ _______ _______ _____ _____    ______ ____
ROOT
ATOM      1  C   UNL     1       2.646  -2.685   9.287  0.00  0.00    +0.039 C 
ATOM      2  C   UNL     1       2.795  -4.051   9.418  0.00  0.00    +0.048 C 
ATOM      3  C   UNL     1       2.644  -4.859  10.649  0.00  0.00    +0.010 A 
ATOM      4  C   UNL     1       2.331  -4.539  11.966  0.00  0.00    +0.033 A 
ATOM      5  C   UNL     1       2.264  -5.543  12.919  0.00  0.00    +0.035 A 
ATOM      6  C   UNL     1       2.508  -6.863  12.555  0.00  0.00    +0.025 A 
ATOM      7  C   UNL     1       2.818  -7.185  11.250  0.00  0.00    +0.026 A 
ATOM      8  C   UNL     1       2.890  -6.189  10.282  0.00  0.00    +0.042 A 
ATOM      9  N   UNL     1       3.178  -6.241   8.921  0.00  0.00    -0.281 N 
ATOM     10  C   UNL     1       3.130  -5.019   8.364  0.00  0.00    +0.249 C 
ATOM     11  O   UNL     1       3.333  -4.758   7.192  0.00  0.00    -0.270 OA
ATOM     12  H   UNL     1       3.383  -7.055   8.436  0.00  0.00    +0.155 HD
ENDROOT
BRANCH   5  13
ATOM     13  N   UNL     1       1.950  -5.229  14.248  0.00  0.00    -0.270 N 
ATOM     14  C   UNL     1       1.007  -4.304  14.518  0.00  0.00    +0.301 C 
ATOM     15  O   UNL     1       0.343  -3.833  13.615  0.00  0.00    -0.253 OA
ATOM     16  N   UNL     1       0.800  -3.903  15.787  0.00  0.00    -0.313 N 
ATOM     17  H   UNL     1       2.412  -5.677  14.975  0.00  0.00    +0.156 HD
ATOM     18  H   UNL     1       1.330  -4.279  16.508  0.00  0.00    +0.146 HD
ATOM     19  H   UNL     1       0.122  -3.237  15.981  0.00  0.00    +0.146 HD
ENDBRANCH   5  13
BRANCH   1  22
ATOM     20  C   UNL     1       1.172  -0.930   6.490  0.00  0.00    +0.055 A 
ATOM     21  C   UNL     1       1.244  -1.190   7.875  0.00  0.00    +0.040 A 
ATOM     22  C   UNL     1       2.236  -2.135   8.053  0.00  0.00    +0.041 A 
ATOM     23  N   UNL     1       2.757  -2.445   6.814  0.00  0.00    -0.360 N 
ATOM     24  H   UNL     1       3.469  -3.083   6.648  0.00  0.00    +0.165 HD
ATOM     25  C   UNL     1       2.118  -1.730   5.873  0.00  0.00    +0.096 A 
BRANCH  20  31
ATOM     26  C   UNL     1       0.237   1.325   2.393  0.00  0.00    -0.050 C 
ATOM     27  C   UNL     1       0.895  -0.058   2.143  0.00  0.00    +0.005 C 
ATOM     28  C   UNL     1       1.194  -0.562   3.570  0.00  0.00    +0.106 C 
ATOM     29  N   UNL     1       0.293   0.156   4.484  0.00  0.00    -0.299 N 
ATOM     30  C   UNL     1      -0.563   1.058   3.692  0.00  0.00    +0.093 C 
ATOM     31  C   UNL     1       0.256   0.012   5.824  0.00  0.00    +0.248 C 
ATOM     32  O   UNL     1      -0.535   0.661   6.482  0.00  0.00    -0.270 OA
BRANCH  26  34
ATOM     33  C   UNL     1      -1.377   2.925   1.627  0.00  0.00    -0.096 C 
ATOM     34  N   UNL     1      -0.659   1.689   1.288  0.00  0.00    +0.379 N 
ATOM     35  C   UNL     1       0.130   1.900   0.067  0.00  0.00    -0.096 C 
ATOM     36  H   UNL     1      -1.324   0.945   1.134  0.00  0.00    -0.082 HD
ENDBRANCH  26  34
ENDBRANCH  20  31
ENDBRANCH   1  22
TORSDOF 4
