REMARK  Name = CHEMBL596990
REMARK  2 active torsions:
REMARK  status: ('A' for Active; 'I' for Inactive)
REMARK    1  A    between atoms: C_11  and  C_13
REMARK    2  A    between atoms: C_13  and  N_29
REMARK                            x       y       z     vdW  Elec       q    Type
REMARK                         _______ _______ _______ _____ _____    ______ ____
ROOT
ATOM      1  C   UNL     1       5.590  -2.091   1.676  0.00  0.00    +0.097 C 
ATOM      2  C   UNL     1       6.821  -2.065   0.768  0.00  0.00    +0.050 C 
ATOM      3  C   UNL     1       7.165  -3.495   0.338  0.00  0.00    +0.109 C 
ATOM      4  N   UNL     1       7.319  -4.326   1.540  0.00  0.00    -0.314 N 
ATOM      5  C   UNL     1       6.229  -4.352   2.525  0.00  0.00    +0.109 C 
ATOM      6  C   UNL     1       5.897  -2.912   2.930  0.00  0.00    +0.050 C 
ATOM      7  C   UNL     1       8.468  -5.070   1.739  0.00  0.00    +0.134 A 
ATOM      8  C   UNL     1       8.528  -6.418   1.354  0.00  0.00    +0.059 A 
ATOM      9  C   UNL     1       7.601  -7.358   0.728  0.00  0.00    +0.032 A 
ATOM     10  C   UNL     1       8.251  -8.528   0.614  0.00  0.00    +0.085 A 
ATOM     11  N   UNL     1       9.520  -8.405   1.120  0.00  0.00    -0.346 N 
ATOM     12  H   UNL     1      10.179  -9.116   1.147  0.00  0.00    +0.167 HD
ATOM     13  C   UNL     1       9.719  -7.132   1.579  0.00  0.00    +0.143 A 
ATOM     14  N   UNL     1      10.743  -6.498   2.148  0.00  0.00    -0.218 NA
ATOM     15  C   UNL     1      10.642  -5.233   2.494  0.00  0.00    +0.225 A 
ATOM     16  N   UNL     1       9.545  -4.524   2.296  0.00  0.00    -0.220 NA
ENDROOT
BRANCH   1  27
ATOM     17  C   UNL     1       1.934   1.540  -2.705  0.00  0.00    +0.000 A 
ATOM     18  C   UNL     1       3.244   1.935  -2.504  0.00  0.00    +0.000 A 
ATOM     19  C   UNL     1       4.137   1.067  -1.912  0.00  0.00    +0.005 A 
ATOM     20  C   UNL     1       3.730  -0.199  -1.512  0.00  0.00    -0.027 A 
ATOM     21  C   UNL     1       2.424  -0.590  -1.703  0.00  0.00    -0.041 A 
ATOM     22  C   UNL     1       1.528   0.284  -2.307  0.00  0.00    +0.004 A 
ATOM     23  C   UNL     1       1.903  -1.935  -1.268  0.00  0.00    +0.054 C 
ATOM     24  C   UNL     1       3.048  -2.929  -1.083  0.00  0.00    +0.113 C 
ATOM     25  N   UNL     1       4.097  -2.268  -0.288  0.00  0.00    -0.295 N 
ATOM     26  C   UNL     1       4.760  -1.103  -0.884  0.00  0.00    +0.143 C 
ATOM     27  C   UNL     1       4.434  -2.716   0.937  0.00  0.00    +0.236 C 
ATOM     28  O   UNL     1       3.808  -3.622   1.445  0.00  0.00    -0.274 OA
ENDBRANCH   1  27
BRANCH   1  29
ATOM     29  N   UNL     1       5.238  -0.719   2.063  0.00  0.00    -0.317 NA
ATOM     30  H   UNL     1       4.874  -0.203   1.276  0.00  0.00    +0.119 HD
ATOM     31  H   UNL     1       4.585  -0.716   2.832  0.00  0.00    +0.119 HD
ENDBRANCH   1  29
TORSDOF 2
