REMARK  Name = CHEMBL259141
REMARK  2 active torsions:
REMARK  status: ('A' for Active; 'I' for Inactive)
REMARK    1  A    between atoms: C_7  and  N_11
REMARK    2  A    between atoms: C_14  and  N_17
REMARK                            x       y       z     vdW  Elec       q    Type
REMARK                         _______ _______ _______ _____ _____    ______ ____
ROOT
ATOM      1  C   UNL     1      -0.644  -1.326   2.614  0.00  0.00    +0.032 A 
ATOM      2  C   UNL     1       0.471  -1.652   3.288  0.00  0.00    +0.085 A 
ATOM      3  N   UNL     1       1.511  -1.819   2.410  0.00  0.00    -0.346 N 
ATOM      4  H   UNL     1       2.418  -2.056   2.661  0.00  0.00    +0.167 HD
ATOM      5  C   UNL     1       1.083  -1.601   1.130  0.00  0.00    +0.143 A 
ATOM      6  C   UNL     1      -0.286  -1.283   1.198  0.00  0.00    +0.059 A 
ATOM      7  C   UNL     1      -0.974  -1.012   0.006  0.00  0.00    +0.134 A 
ATOM      8  N   UNL     1      -0.300  -1.068  -1.139  0.00  0.00    -0.220 NA
ATOM      9  C   UNL     1       0.986  -1.371  -1.158  0.00  0.00    +0.225 A 
ATOM     10  N   UNL     1       1.671  -1.632  -0.065  0.00  0.00    -0.218 NA
ENDROOT
BRANCH   7  11
ATOM     11  N   UNL     1      -2.321  -0.695   0.021  0.00  0.00    -0.315 N 
ATOM     12  C   UNL     1      -2.759   0.703   0.137  0.00  0.00    +0.105 C 
ATOM     13  C   UNL     1      -3.717   1.017  -1.016  0.00  0.00    +0.003 C 
ATOM     14  C   UNL     1      -4.859  -0.003  -1.018  0.00  0.00    -0.072 C 
ATOM     15  C   UNL     1      -4.290  -1.407  -1.230  0.00  0.00    +0.003 C 
ATOM     16  C   UNL     1      -3.339  -1.748  -0.085  0.00  0.00    +0.105 C 
BRANCH  14  17
ATOM     17  N   UNL     1      -5.797   0.315  -2.102  0.00  0.00    +0.380 N 
ATOM     18  H   UNL     1      -5.313   0.279  -2.987  0.00  0.00    -0.090 HD
ATOM     19  H   UNL     1      -6.550  -0.357  -2.103  0.00  0.00    -0.090 HD
ATOM     20  H   UNL     1      -6.173   1.241  -1.962  0.00  0.00    -0.090 HD
ENDBRANCH  14  17
ENDBRANCH   7  11
TORSDOF 2
