REMARK  Name = CHEMBL448926
REMARK  6 active torsions:
REMARK  status: ('A' for Active; 'I' for Inactive)
REMARK    1  A    between atoms: C_4  and  C_7
REMARK    2  A    between atoms: C_16  and  C_17
REMARK    3  A    between atoms: C_20  and  C_23
REMARK    4  A    between atoms: C_23  and  N_24
REMARK    5  A    between atoms: C_27  and  C_30
REMARK    6  A    between atoms: C_33  and  C_36
REMARK                            x       y       z     vdW  Elec       q    Type
REMARK                         _______ _______ _______ _____ _____    ______ ____
ROOT
ATOM      1  C   UNL     1       2.905  -2.082   1.876  0.00  0.00    +0.001 A 
ATOM      2  C   UNL     1       2.078  -1.094   2.410  0.00  0.00    +0.010 A 
ATOM      3  C   UNL     1       1.107  -1.434   3.329  0.00  0.00    +0.002 A 
ATOM      4  C   UNL     1       0.953  -2.751   3.722  0.00  0.00    -0.064 A 
ATOM      5  C   UNL     1       1.771  -3.736   3.197  0.00  0.00    +0.002 A 
ATOM      6  C   UNL     1       2.741  -3.409   2.271  0.00  0.00    +0.010 A 
ENDROOT
BRANCH   1  16
ATOM      7  C   UNL     1       3.698  -0.688  -0.038  0.00  0.00    +0.009 A 
ATOM      8  C   UNL     1       4.676  -0.346  -0.961  0.00  0.00    +0.023 A 
ATOM      9  C   UNL     1       5.884  -1.061  -0.933  0.00  0.00    +0.038 A 
ATOM     10  C   UNL     1       6.932  -0.783  -1.829  0.00  0.00    +0.126 A 
ATOM     11  N   UNL     1       8.037  -1.496  -1.743  0.00  0.00    -0.219 NA
ATOM     12  C   UNL     1       8.172  -2.458  -0.835  0.00  0.00    +0.238 A 
ATOM     13  N   UNL     1       7.226  -2.762   0.029  0.00  0.00    -0.192 NA
ATOM     14  C   UNL     1       6.064  -2.095   0.023  0.00  0.00    +0.166 A 
ATOM     15  N   UNL     1       5.092  -2.385   0.888  0.00  0.00    -0.227 NA
ATOM     16  C   UNL     1       3.949  -1.724   0.888  0.00  0.00    +0.081 A 
ATOM     17  N   UNL     1       9.366  -3.176  -0.797  0.00  0.00    -0.274 N 
ATOM     18  C   UNL     1      10.455  -2.993  -1.612  0.00  0.00    +0.115 A 
ATOM     19  C   UNL     1      11.380  -3.893  -1.233  0.00  0.00    +0.130 A 
ATOM     20  N   UNL     1      10.878  -4.609  -0.215  0.00  0.00    -0.244 NA
ATOM     21  C   UNL     1       9.675  -4.186   0.060  0.00  0.00    +0.206 A 
BRANCH   7  25
ATOM     22  C   UNL     1      -0.017   1.379   0.010  0.00  0.00    +0.000 A 
ATOM     23  C   UNL     1       1.169   2.092   0.002  0.00  0.00    +0.001 A 
ATOM     24  C   UNL     1       2.377   1.427  -0.013  0.00  0.00    +0.008 A 
ATOM     25  C   UNL     1       2.403   0.033  -0.021  0.00  0.00    -0.016 A 
ATOM     26  C   UNL     1       1.205  -0.680  -0.013  0.00  0.00    +0.008 A 
ATOM     27  C   UNL     1       0.002  -0.004   0.002  0.00  0.00    +0.001 A 
ENDBRANCH   7  25
ENDBRANCH   1  16
BRANCH   4  28
ATOM     28  C   UNL     1      -0.109  -3.115   4.728  0.00  0.00    -0.043 C 
BRANCH  28  29
ATOM     29  N   UNL     1      -1.359  -3.435   4.025  0.00  0.00    +0.382 N 
ATOM     30  C   UNL     1      -1.855  -2.234   3.341  0.00  0.00    -0.078 C 
ATOM     31  C   UNL     1      -3.112  -2.581   2.542  0.00  0.00    -0.007 C 
ATOM     32  C   UNL     1      -4.188  -3.107   3.496  0.00  0.00    +0.055 C 
ATOM     33  C   UNL     1      -3.634  -4.315   4.258  0.00  0.00    -0.007 C 
ATOM     34  C   UNL     1      -2.357  -3.904   4.994  0.00  0.00    -0.078 C 
ATOM     35  H   UNL     1      -1.185  -4.159   3.345  0.00  0.00    -0.081 HD
BRANCH  32  36
ATOM     36  C   UNL     1      -5.402  -3.524   2.706  0.00  0.00    +0.154 A 
ATOM     37  N   UNL     1      -6.622  -3.015   2.844  0.00  0.00    -0.210 NA
ATOM     38  H   UNL     1      -7.077  -5.104   0.604  0.00  0.00    +0.191 HD
ATOM     39  C   UNL     1      -7.448  -3.602   2.002  0.00  0.00    +0.175 A 
ATOM     40  N   UNL     1      -6.741  -4.516   1.299  0.00  0.00    -0.257 N 
ATOM     41  N   UNL     1      -5.421  -4.440   1.772  0.00  0.00    -0.157 NA
BRANCH  39  42
ATOM     42  C   UNL     1      -8.892  -3.312   1.851  0.00  0.00    +0.107 A 
ATOM     43  C   UNL     1      -9.487  -2.334   2.646  0.00  0.00    +0.031 A 
ATOM     44  C   UNL     1     -10.838  -2.074   2.493  0.00  0.00    +0.004 A 
ATOM     45  C   UNL     1     -11.550  -2.802   1.551  0.00  0.00    +0.020 A 
ATOM     46  C   UNL     1     -10.896  -3.759   0.796  0.00  0.00    +0.111 A 
ATOM     47  N   UNL     1      -9.608  -3.983   0.957  0.00  0.00    -0.252 NA
ENDBRANCH  39  42
ENDBRANCH  32  36
ENDBRANCH  28  29
ENDBRANCH   4  28
TORSDOF 6
