REMARK  Name = CHEMBL226712
REMARK  4 active torsions:
REMARK  status: ('A' for Active; 'I' for Inactive)
REMARK    1  A    between atoms: C_3  and  C_17
REMARK    2  A    between atoms: C_6  and  C_7
REMARK    3  A    between atoms: C_17  and  C_18
REMARK    4  A    between atoms: C_17  and  N_25
REMARK                            x       y       z     vdW  Elec       q    Type
REMARK                         _______ _______ _______ _____ _____    ______ ____
ROOT
ATOM      1  C   UNL     1      -0.017   1.391   0.010  0.00  0.00    +0.010 A 
ATOM      2  C   UNL     1       1.170   2.094   0.002  0.00  0.00    +0.003 A 
ATOM      3  C   UNL     1       2.378   1.418  -0.013  0.00  0.00    -0.058 A 
ATOM      4  C   UNL     1       2.403   0.035  -0.021  0.00  0.00    +0.003 A 
ATOM      5  C   UNL     1       1.222  -0.679  -0.013  0.00  0.00    +0.010 A 
ATOM      6  C   UNL     1       0.002  -0.004   0.002  0.00  0.00    +0.003 A 
ENDROOT
BRANCH   6   7
ATOM      7  C   UNL     1      -1.269  -0.765   0.011  0.00  0.00    +0.102 A 
ATOM      8  C   UNL     1      -1.383  -1.983  -0.683  0.00  0.00    +0.134 A 
ATOM      9  C   UNL     1      -2.618  -2.660  -0.636  0.00  0.00    +0.161 A 
ATOM     10  N   UNL     1      -2.452  -3.798  -1.385  0.00  0.00    -0.329 N 
ATOM     11  H   UNL     1      -3.122  -4.479  -1.550  0.00  0.00    +0.168 HD
ATOM     12  C   UNL     1      -1.173  -3.795  -1.855  0.00  0.00    +0.198 A 
ATOM     13  N   UNL     1      -0.549  -2.729  -1.442  0.00  0.00    -0.232 NA
ATOM     14  N   UNL     1      -3.618  -2.128   0.054  0.00  0.00    -0.216 NA
ATOM     15  C   UNL     1      -3.465  -0.984   0.688  0.00  0.00    +0.224 A 
ATOM     16  N   UNL     1      -2.328  -0.315   0.679  0.00  0.00    -0.233 NA
ENDBRANCH   6   7
BRANCH   3  17
ATOM     17  C   UNL     1       3.671   2.193  -0.022  0.00  0.00    -0.013 C 
BRANCH  17  18
ATOM     18  C   UNL     1       4.242   2.232   1.372  0.00  0.00    -0.058 A 
ATOM     19  C   UNL     1       4.942   1.145   1.863  0.00  0.00    +0.004 A 
ATOM     20  C   UNL     1       5.466   1.181   3.141  0.00  0.00    +0.020 A 
ATOM     21  C   UNL     1       5.290   2.304   3.930  0.00  0.00    +0.041 A 
ATOM     22  C   UNL     1       4.590   3.391   3.438  0.00  0.00    +0.020 A 
ATOM     23  C   UNL     1       4.071   3.357   2.158  0.00  0.00    +0.004 A 
ATOM     24 CL   UNL     1       5.948   2.349   5.536  0.00  0.00    -0.084 Cl
ENDBRANCH  17  18
BRANCH  17  25
ATOM     25  N   UNL     1       4.627   1.538  -0.925  0.00  0.00    +0.385 N 
ATOM     26  H   UNL     1       5.493   2.057  -0.930  0.00  0.00    -0.089 HD
ATOM     27  H   UNL     1       4.801   0.597  -0.606  0.00  0.00    -0.089 HD
ATOM     28  H   UNL     1       4.244   1.512  -1.858  0.00  0.00    -0.089 HD
ENDBRANCH  17  25
ENDBRANCH   3  17
TORSDOF 4
