REMARK  Name = CHEMBL227605
REMARK  5 active torsions:
REMARK  status: ('A' for Active; 'I' for Inactive)
REMARK    1  A    between atoms: C_4  and  C_7
REMARK    2  A    between atoms: C_7  and  C_8
REMARK    3  A    between atoms: C_8  and  C_9
REMARK    4  A    between atoms: C_8  and  N_25
REMARK    5  A    between atoms: C_12  and  C_15
REMARK                            x       y       z     vdW  Elec       q    Type
REMARK                         _______ _______ _______ _____ _____    ______ ____
ROOT
ATOM      1  C   UNL     1       5.422  -1.804   1.383  0.00  0.00    -0.062 A 
ATOM      2  C   UNL     1       6.647  -1.212   1.137  0.00  0.00    +0.002 A 
ATOM      3  C   UNL     1       7.796  -1.977   1.122  0.00  0.00    +0.010 A 
ATOM      4  C   UNL     1       7.719  -3.350   1.356  0.00  0.00    +0.003 A 
ATOM      5  C   UNL     1       6.480  -3.941   1.603  0.00  0.00    +0.010 A 
ATOM      6  C   UNL     1       5.340  -3.165   1.621  0.00  0.00    +0.002 A 
ENDROOT
BRANCH   4   7
ATOM      7  C   UNL     1       8.948  -4.177   1.341  0.00  0.00    +0.102 A 
ATOM      8  C   UNL     1       9.086  -5.277   2.205  0.00  0.00    +0.134 A 
ATOM      9  C   UNL     1      10.278  -6.025   2.143  0.00  0.00    +0.161 A 
ATOM     10  N   UNL     1      10.148  -7.021   3.078  0.00  0.00    -0.329 N 
ATOM     11  H   UNL     1      10.802  -7.707   3.280  0.00  0.00    +0.168 HD
ATOM     12  C   UNL     1       8.929  -6.870   3.668  0.00  0.00    +0.198 A 
ATOM     13  N   UNL     1       8.309  -5.846   3.155  0.00  0.00    -0.232 NA
ATOM     14  N   UNL     1      11.219  -5.667   1.279  0.00  0.00    -0.216 NA
ATOM     15  C   UNL     1      11.046  -4.627   0.488  0.00  0.00    +0.224 A 
ATOM     16  N   UNL     1       9.945  -3.900   0.504  0.00  0.00    -0.233 NA
ENDBRANCH   4   7
BRANCH   1  17
ATOM     17  C   UNL     1       4.171  -0.963   1.399  0.00  0.00    -0.040 C 
BRANCH  17  18
ATOM     18  N   UNL     1       4.452   0.319   2.059  0.00  0.00    +0.383 N 
ATOM     19  H   UNL     1       4.755   0.150   3.006  0.00  0.00    -0.089 HD
ATOM     20  H   UNL     1       5.178   0.805   1.555  0.00  0.00    -0.089 HD
ATOM     21  H   UNL     1       3.615   0.882   2.070  0.00  0.00    -0.089 HD
ENDBRANCH  17  18
BRANCH  17  22
ATOM     22  C   UNL     1       3.711  -0.707  -0.038  0.00  0.00    +0.023 C 
BRANCH  22  26
ATOM     23  C   UNL     1      -0.017   1.378   0.010  0.00  0.00    +0.000 A 
ATOM     24  C   UNL     1       1.171   2.086   0.002  0.00  0.00    +0.000 A 
ATOM     25  C   UNL     1       2.377   1.411  -0.013  0.00  0.00    +0.003 A 
ATOM     26  C   UNL     1       2.396   0.029  -0.020  0.00  0.00    -0.049 A 
ATOM     27  C   UNL     1       1.208  -0.679  -0.012  0.00  0.00    +0.003 A 
ATOM     28  C   UNL     1       0.002  -0.004   0.002  0.00  0.00    +0.000 A 
ENDBRANCH  22  26
ENDBRANCH  17  22
ENDBRANCH   1  17
TORSDOF 5
