REMARK  Name = CHEMBL228133
REMARK  3 active torsions:
REMARK  status: ('A' for Active; 'I' for Inactive)
REMARK    1  A    between atoms: C_3  and  C_17
REMARK    2  A    between atoms: C_6  and  C_7
REMARK    3  A    between atoms: C_17  and  C_23
REMARK                            x       y       z     vdW  Elec       q    Type
REMARK                         _______ _______ _______ _____ _____    ______ ____
ROOT
ATOM      1  C   UNL     1      -0.071   2.138   0.467  0.00  0.00    +0.010 A 
ATOM      2  C   UNL     1       1.224   2.591   0.316  0.00  0.00    +0.005 A 
ATOM      3  C   UNL     1       2.259   1.690   0.143  0.00  0.00    -0.037 A 
ATOM      4  C   UNL     1       2.004   0.331   0.120  0.00  0.00    +0.005 A 
ATOM      5  C   UNL     1       0.714  -0.135   0.270  0.00  0.00    +0.010 A 
ATOM      6  C   UNL     1      -0.334   0.768   0.445  0.00  0.00    +0.003 A 
ENDROOT
BRANCH   6   7
ATOM      7  C   UNL     1      -1.722   0.275   0.608  0.00  0.00    +0.100 A 
ATOM      8  C   UNL     1      -2.160  -0.865  -0.072  0.00  0.00    +0.111 A 
ATOM      9  C   UNL     1      -3.487  -1.293   0.116  0.00  0.00    +0.181 A 
ATOM     10  N   UNL     1      -3.652  -2.395  -0.640  0.00  0.00    -0.216 NA
ATOM     11  H   UNL     1      -0.681  -1.738  -1.285  0.00  0.00    +0.167 HD
ATOM     12  C   UNL     1      -2.542  -2.669  -1.267  0.00  0.00    +0.199 A 
ATOM     13  N   UNL     1      -1.592  -1.758  -0.952  0.00  0.00    -0.341 N 
ATOM     14  N   UNL     1      -4.275  -0.593   0.935  0.00  0.00    -0.215 NA
ATOM     15  C   UNL     1      -3.819   0.474   1.554  0.00  0.00    +0.224 A 
ATOM     16  N   UNL     1      -2.580   0.904   1.409  0.00  0.00    -0.233 NA
ENDBRANCH   6   7
BRANCH   3  17
ATOM     17  C   UNL     1       3.671   2.192  -0.022  0.00  0.00    +0.017 C 
ATOM     18  C   UNL     1       4.036   3.091   1.162  0.00  0.00    -0.003 C 
ATOM     19  C   UNL     1       5.495   3.533   1.029  0.00  0.00    -0.081 C 
ATOM     20  N   UNL     1       6.368   2.353   1.021  0.00  0.00    +0.379 N 
ATOM     21  C   UNL     1       6.072   1.522  -0.152  0.00  0.00    -0.081 C 
ATOM     22  C   UNL     1       4.635   1.004  -0.065  0.00  0.00    -0.003 C 
ATOM     23  H   UNL     1       7.332   2.650   0.987  0.00  0.00    -0.086 HD
ATOM     24  H   UNL     1       6.213   1.815   1.861  0.00  0.00    -0.086 HD
BRANCH  17  25
ATOM     25  C   UNL     1       3.780   2.976  -1.305  0.00  0.00    -0.037 A 
ATOM     26  C   UNL     1       3.669   2.329  -2.521  0.00  0.00    +0.006 A 
ATOM     27  C   UNL     1       3.769   3.047  -3.698  0.00  0.00    +0.020 A 
ATOM     28  C   UNL     1       3.981   4.414  -3.658  0.00  0.00    +0.041 A 
ATOM     29  C   UNL     1       4.092   5.061  -2.440  0.00  0.00    +0.020 A 
ATOM     30  C   UNL     1       3.986   4.342  -1.264  0.00  0.00    +0.006 A 
ATOM     31 CL   UNL     1       4.108   5.317  -5.135  0.00  0.00    -0.084 Cl
ENDBRANCH  17  25
ENDBRANCH   3  17
TORSDOF 3
