REMARK  Name = CHEMBL178468
REMARK  9 active torsions:
REMARK  status: ('A' for Active; 'I' for Inactive)
REMARK    1  A    between atoms: C_1  and  C_2
REMARK    2  A    between atoms: C_2  and  C_3
REMARK    3  A    between atoms: C_2  and  C_4
REMARK    4  A    between atoms: C_4  and  C_5
REMARK    5  A    between atoms: C_8  and  C_17
REMARK    6  A    between atoms: C_9  and  C_11
REMARK    7  A    between atoms: C_20  and  C_23
REMARK    8  A    between atoms: C_23  and  N_24
REMARK    9  A    between atoms: C_27  and  N_30
REMARK                            x       y       z     vdW  Elec       q    Type
REMARK                         _______ _______ _______ _____ _____    ______ ____
ROOT
ATOM      1  C   UNL     1      -3.942   0.700  -4.939  0.00  0.00    +0.000 A 
ATOM      2  C   UNL     1      -3.266   1.492  -5.871  0.00  0.00    +0.010 A 
ATOM      3  C   UNL     1      -3.832   1.735  -7.105  0.00  0.00    +0.002 A 
ATOM      4  C   UNL     1      -5.067   1.196  -7.421  0.00  0.00    -0.064 A 
ATOM      5  C   UNL     1      -5.742   0.410  -6.504  0.00  0.00    +0.002 A 
ATOM      6  C   UNL     1      -5.186   0.154  -5.268  0.00  0.00    +0.010 A 
ENDROOT
BRANCH   1  10
ATOM      7  C   UNL     1      -2.226   0.031  -1.178  0.00  0.00    +0.106 A 
ATOM      8  C   UNL     1      -2.708  -1.062  -1.931  0.00  0.00    +0.271 A 
ATOM      9  N   UNL     1      -3.261  -0.845  -3.143  0.00  0.00    -0.319 N 
ATOM     10  C   UNL     1      -3.343   0.435  -3.618  0.00  0.00    +0.075 A 
ATOM     11  C   UNL     1      -2.856   1.486  -2.846  0.00  0.00    +0.095 A 
ATOM     12  N   UNL     1      -2.317   1.251  -1.647  0.00  0.00    -0.244 NA
ATOM     13  O   UNL     1      -2.625  -2.196  -1.488  0.00  0.00    -0.266 OA
ATOM     14  H   UNL     1      -3.596  -1.587  -3.670  0.00  0.00    +0.169 HD
BRANCH  11  15
ATOM     15  C   UNL     1      -2.941   2.875  -3.355  0.00  0.00    +0.002 A 
ATOM     16  C   UNL     1      -4.149   3.366  -3.849  0.00  0.00    +0.010 A 
ATOM     17  C   UNL     1      -4.223   4.660  -4.322  0.00  0.00    +0.001 A 
ATOM     18  C   UNL     1      -3.101   5.470  -4.307  0.00  0.00    +0.000 A 
ATOM     19  C   UNL     1      -1.900   4.988  -3.818  0.00  0.00    +0.001 A 
ATOM     20  C   UNL     1      -1.815   3.698  -3.336  0.00  0.00    +0.010 A 
ENDBRANCH  11  15
BRANCH   7  21
ATOM     21  C   UNL     1      -1.608  -0.206   0.175  0.00  0.00    +0.064 C 
BRANCH  21  23
ATOM     22  C   UNL     1      -2.401   1.999   1.042  0.00  0.00    +0.007 C 
ATOM     23  C   UNL     1      -1.169   1.130   0.777  0.00  0.00    -0.011 C 
ATOM     24  C   UNL     1      -0.431   0.879   2.094  0.00  0.00    +0.007 C 
ENDBRANCH  21  23
ENDBRANCH   7  21
ENDBRANCH   1  10
BRANCH   4  25
ATOM     25  C   UNL     1      -5.679   1.466  -8.771  0.00  0.00    -0.043 C 
BRANCH  25  26
ATOM     26  N   UNL     1      -5.255   0.426  -9.719  0.00  0.00    +0.382 N 
ATOM     27  C   UNL     1      -3.803   0.510  -9.917  0.00  0.00    -0.076 C 
ATOM     28  C   UNL     1      -3.345  -0.622 -10.840  0.00  0.00    +0.006 C 
ATOM     29  C   UNL     1      -4.055  -0.491 -12.190  0.00  0.00    +0.089 C 
ATOM     30  C   UNL     1      -5.569  -0.505 -11.963  0.00  0.00    +0.006 C 
ATOM     31  C   UNL     1      -5.945   0.622 -10.999  0.00  0.00    -0.076 C 
ATOM     32  H   UNL     1      -5.490  -0.482  -9.347  0.00  0.00    -0.081 HD
BRANCH  29  33
ATOM     33  N   UNL     1      -3.679  -1.615 -13.052  0.00  0.00    -0.289 N 
ATOM     34  C   UNL     1      -3.040  -1.517 -14.286  0.00  0.00    +0.070 A 
ATOM     35  C   UNL     1      -2.589  -0.446 -15.042  0.00  0.00    +0.028 A 
ATOM     36  C   UNL     1      -1.978  -0.672 -16.259  0.00  0.00    +0.002 A 
ATOM     37  C   UNL     1      -1.813  -1.965 -16.728  0.00  0.00    +0.002 A 
ATOM     38  C   UNL     1      -2.259  -3.038 -15.982  0.00  0.00    +0.028 A 
ATOM     39  C   UNL     1      -2.874  -2.820 -14.758  0.00  0.00    +0.067 A 
ATOM     40  N   UNL     1      -3.417  -3.669 -13.797  0.00  0.00    -0.306 N 
ATOM     41  C   UNL     1      -3.886  -2.917 -12.784  0.00  0.00    +0.328 A 
ATOM     42  O   UNL     1      -4.420  -3.350 -11.779  0.00  0.00    -0.247 OA
ATOM     43  H   UNL     1      -3.448  -4.638 -13.847  0.00  0.00    +0.170 HD
ENDBRANCH  29  33
ENDBRANCH  25  26
ENDBRANCH   4  25
TORSDOF 7
