REMARK  Name = CHEMBL227605
REMARK  5 active torsions:
REMARK  status: ('A' for Active; 'I' for Inactive)
REMARK    1  A    between atoms: C_4  and  C_7
REMARK    2  A    between atoms: C_7  and  C_8
REMARK    3  A    between atoms: C_8  and  C_9
REMARK    4  A    between atoms: C_8  and  N_25
REMARK    5  A    between atoms: C_12  and  C_15
REMARK                            x       y       z     vdW  Elec       q    Type
REMARK                         _______ _______ _______ _____ _____    ______ ____
ROOT
ATOM      1  C   UNL     1       5.422  -1.804   1.383  0.00  0.00    -0.062 A 
ATOM      2  C   UNL     1       6.647  -1.212   1.137  0.00  0.00    +0.002 A 
ATOM      3  C   UNL     1       7.796  -1.978   1.122  0.00  0.00    +0.010 A 
ATOM      4  C   UNL     1       7.719  -3.350   1.355  0.00  0.00    +0.003 A 
ATOM      5  C   UNL     1       6.480  -3.941   1.602  0.00  0.00    +0.010 A 
ATOM      6  C   UNL     1       5.340  -3.165   1.621  0.00  0.00    +0.002 A 
ENDROOT
BRANCH   4   7
ATOM      7  C   UNL     1       8.948  -4.178   1.339  0.00  0.00    +0.100 A 
ATOM      8  C   UNL     1       9.085  -5.271   2.198  0.00  0.00    +0.111 A 
ATOM      9  C   UNL     1      10.273  -6.025   2.144  0.00  0.00    +0.181 A 
ATOM     10  N   UNL     1      10.152  -7.006   3.059  0.00  0.00    -0.216 NA
ATOM     11  H   UNL     1       7.419  -5.573   3.445  0.00  0.00    +0.167 HD
ATOM     12  C   UNL     1       8.999  -6.910   3.659  0.00  0.00    +0.199 A 
ATOM     13  N   UNL     1       8.303  -5.859   3.167  0.00  0.00    -0.341 N 
ATOM     14  N   UNL     1      11.220  -5.666   1.275  0.00  0.00    -0.215 NA
ATOM     15  C   UNL     1      11.046  -4.628   0.486  0.00  0.00    +0.224 A 
ATOM     16  N   UNL     1       9.947  -3.899   0.501  0.00  0.00    -0.233 NA
ENDBRANCH   4   7
BRANCH   1  17
ATOM     17  C   UNL     1       4.171  -0.963   1.399  0.00  0.00    -0.040 C 
BRANCH  17  18
ATOM     18  N   UNL     1       4.452   0.319   2.059  0.00  0.00    +0.383 N 
ATOM     19  H   UNL     1       4.755   0.150   3.006  0.00  0.00    -0.089 HD
ATOM     20  H   UNL     1       5.178   0.805   1.555  0.00  0.00    -0.089 HD
ATOM     21  H   UNL     1       3.615   0.882   2.070  0.00  0.00    -0.089 HD
ENDBRANCH  17  18
BRANCH  17  22
ATOM     22  C   UNL     1       3.711  -0.707  -0.038  0.00  0.00    +0.023 C 
BRANCH  22  26
ATOM     23  C   UNL     1      -0.017   1.378   0.010  0.00  0.00    +0.000 A 
ATOM     24  C   UNL     1       1.171   2.086   0.002  0.00  0.00    +0.000 A 
ATOM     25  C   UNL     1       2.377   1.411  -0.013  0.00  0.00    +0.003 A 
ATOM     26  C   UNL     1       2.396   0.029  -0.020  0.00  0.00    -0.049 A 
ATOM     27  C   UNL     1       1.208  -0.679  -0.012  0.00  0.00    +0.003 A 
ATOM     28  C   UNL     1       0.002  -0.004   0.002  0.00  0.00    +0.000 A 
ENDBRANCH  22  26
ENDBRANCH  17  22
ENDBRANCH   1  17
TORSDOF 5
