REMARK  Name = CHEMBL180231
REMARK  5 active torsions:
REMARK  status: ('A' for Active; 'I' for Inactive)
REMARK    1  A    between atoms: C_4  and  C_7
REMARK    2  A    between atoms: C_8  and  C_21
REMARK    3  A    between atoms: C_24  and  C_27
REMARK    4  A    between atoms: C_27  and  N_28
REMARK    5  A    between atoms: C_31  and  N_34
REMARK                            x       y       z     vdW  Elec       q    Type
REMARK                         _______ _______ _______ _____ _____    ______ ____
ROOT
ATOM      1  C   UNL     1       2.741  -2.395   1.590  0.00  0.00    +0.002 A 
ATOM      2  C   UNL     1       1.806  -1.501   2.111  0.00  0.00    +0.010 A 
ATOM      3  C   UNL     1       0.760  -1.971   2.879  0.00  0.00    +0.002 A 
ATOM      4  C   UNL     1       0.640  -3.326   3.133  0.00  0.00    -0.064 A 
ATOM      5  C   UNL     1       1.565  -4.217   2.619  0.00  0.00    +0.002 A 
ATOM      6  C   UNL     1       2.611  -3.760   1.844  0.00  0.00    +0.010 A 
ENDROOT
BRANCH   1   8
ATOM      7  C   UNL     1       3.617  -0.902  -0.278  0.00  0.00    +0.098 A 
ATOM      8  C   UNL     1       3.866  -1.896   0.764  0.00  0.00    +0.098 A 
ATOM      9  N   UNL     1       5.085  -2.352   0.974  0.00  0.00    -0.243 NA
ATOM     10  C   UNL     1       6.102  -1.901   0.227  0.00  0.00    +0.091 A 
ATOM     11  C   UNL     1       7.404  -2.369   0.430  0.00  0.00    +0.041 A 
ATOM     12  C   UNL     1       8.439  -1.884  -0.359  0.00  0.00    +0.022 A 
ATOM     13  C   UNL     1       9.876  -2.162  -0.400  0.00  0.00    +0.142 A 
ATOM     14  N   UNL     1      10.398  -1.430  -1.340  0.00  0.00    -0.181 NA
ATOM     15  N   UNL     1       9.411  -0.656  -1.958  0.00  0.00    -0.277 N 
ATOM     16  H   UNL     1       9.560  -0.032  -2.685  0.00  0.00    +0.189 HD
ATOM     17  C   UNL     1       8.196  -0.921  -1.368  0.00  0.00    +0.068 A 
ATOM     18  C   UNL     1       6.921  -0.439  -1.593  0.00  0.00    +0.057 A 
ATOM     19  C   UNL     1       5.853  -0.904  -0.818  0.00  0.00    +0.092 A 
ATOM     20  N   UNL     1       4.608  -0.454  -1.024  0.00  0.00    -0.243 NA
BRANCH   7  24
ATOM     21  C   UNL     1      -0.328   0.541  -0.921  0.00  0.00    +0.000 A 
ATOM     22  C   UNL     1       0.732   1.429  -0.880  0.00  0.00    +0.001 A 
ATOM     23  C   UNL     1       2.015   0.967  -0.671  0.00  0.00    +0.010 A 
ATOM     24  C   UNL     1       2.242  -0.399  -0.501  0.00  0.00    +0.002 A 
ATOM     25  C   UNL     1       1.169  -1.289  -0.543  0.00  0.00    +0.010 A 
ATOM     26  C   UNL     1      -0.110  -0.815  -0.753  0.00  0.00    +0.001 A 
ENDBRANCH   7  24
ENDBRANCH   1   8
BRANCH   4  27
ATOM     27  C   UNL     1      -0.504  -3.833   3.974  0.00  0.00    -0.043 C 
BRANCH  27  28
ATOM     28  N   UNL     1      -1.649  -4.142   3.107  0.00  0.00    +0.382 N 
ATOM     29  C   UNL     1      -2.134  -2.907   2.480  0.00  0.00    -0.076 C 
ATOM     30  C   UNL     1      -3.275  -3.234   1.514  0.00  0.00    +0.006 C 
ATOM     31  C   UNL     1      -4.417  -3.899   2.288  0.00  0.00    +0.089 C 
ATOM     32  C   UNL     1      -3.882  -5.146   2.998  0.00  0.00    +0.006 C 
ATOM     33  C   UNL     1      -2.719  -4.747   3.909  0.00  0.00    -0.076 C 
ATOM     34  H   UNL     1      -1.361  -4.790   2.389  0.00  0.00    -0.081 HD
BRANCH  31  35
ATOM     35  N   UNL     1      -5.481  -4.284   1.357  0.00  0.00    -0.289 N 
ATOM     36  C   UNL     1      -6.797  -3.828   1.389  0.00  0.00    +0.070 A 
ATOM     37  C   UNL     1      -7.480  -2.952   2.219  0.00  0.00    +0.028 A 
ATOM     38  C   UNL     1      -8.818  -2.693   1.992  0.00  0.00    +0.002 A 
ATOM     39  C   UNL     1      -9.479  -3.305   0.941  0.00  0.00    +0.002 A 
ATOM     40  C   UNL     1      -8.806  -4.179   0.110  0.00  0.00    +0.028 A 
ATOM     41  C   UNL     1      -7.463  -4.445   0.329  0.00  0.00    +0.067 A 
ATOM     42  N   UNL     1      -6.532  -5.256  -0.315  0.00  0.00    -0.306 N 
ATOM     43  H   UNL     1      -6.703  -5.811  -1.092  0.00  0.00    +0.170 HD
ATOM     44  C   UNL     1      -5.351  -5.133   0.321  0.00  0.00    +0.328 A 
ATOM     45  O   UNL     1      -4.324  -5.707   0.009  0.00  0.00    -0.247 OA
ENDBRANCH  31  35
ENDBRANCH  27  28
ENDBRANCH   4  27
TORSDOF 5
