REMARK  Name = CHEMBL253693
REMARK  8 active torsions:
REMARK  status: ('A' for Active; 'I' for Inactive)
REMARK    1  A    between atoms: C_1  and  S_2
REMARK    2  A    between atoms: S_2  and  C_3
REMARK    3  A    between atoms: C_8  and  C_36
REMARK    4  A    between atoms: C_9  and  C_13
REMARK    5  A    between atoms: C_16  and  C_19
REMARK    6  A    between atoms: C_19  and  N_20
REMARK    7  A    between atoms: C_23  and  N_26
REMARK    8  A    between atoms: C_31  and  N_35
REMARK                            x       y       z     vdW  Elec       q    Type
REMARK                         _______ _______ _______ _____ _____    ______ ____
ROOT
ATOM      1  C   UNL     1       2.782  -5.141   4.539  0.00  0.00    +0.001 A 
ATOM      2  C   UNL     1       3.953  -5.576   5.159  0.00  0.00    +0.010 A 
ATOM      3  C   UNL     1       4.133  -6.918   5.424  0.00  0.00    +0.002 A 
ATOM      4  C   UNL     1       3.155  -7.832   5.075  0.00  0.00    -0.064 A 
ATOM      5  C   UNL     1       1.991  -7.407   4.459  0.00  0.00    +0.002 A 
ATOM      6  C   UNL     1       1.797  -6.067   4.195  0.00  0.00    +0.010 A 
ENDROOT
BRANCH   1  13
ATOM      7  C   UNL     1       0.877  -0.427   1.472  0.00  0.00    +0.190 A 
ATOM      8  N   UNL     1       1.317   0.555   2.258  0.00  0.00    -0.230 NA
ATOM      9  C   UNL     1       1.977   0.301   3.369  0.00  0.00    +0.125 A 
ATOM     10  C   UNL     1       2.211  -1.041   3.719  0.00  0.00    +0.038 A 
ATOM     11  C   UNL     1       2.905  -1.392   4.886  0.00  0.00    +0.023 A 
ATOM     12  C   UNL     1       3.091  -2.741   5.153  0.00  0.00    +0.009 A 
ATOM     13  C   UNL     1       2.582  -3.702   4.252  0.00  0.00    +0.081 A 
ATOM     14  N   UNL     1       1.933  -3.345   3.159  0.00  0.00    -0.227 NA
ATOM     15  C   UNL     1       1.728  -2.063   2.858  0.00  0.00    +0.165 A 
ATOM     16  N   UNL     1       1.064  -1.703   1.752  0.00  0.00    -0.202 NA
BRANCH  12  17
ATOM     17  C   UNL     1       3.817  -3.169   6.372  0.00  0.00    -0.016 A 
ATOM     18  C   UNL     1       3.265  -4.134   7.213  0.00  0.00    +0.008 A 
ATOM     19  C   UNL     1       3.946  -4.529   8.346  0.00  0.00    +0.001 A 
ATOM     20  C   UNL     1       5.174  -3.969   8.649  0.00  0.00    +0.000 A 
ATOM     21  C   UNL     1       5.727  -3.011   7.818  0.00  0.00    +0.001 A 
ATOM     22  C   UNL     1       5.058  -2.612   6.679  0.00  0.00    +0.008 A 
ENDBRANCH  12  17
BRANCH   7  24
ATOM     23  C   UNL     1      -0.022   1.810   0.012  0.00  0.00    +0.093 C 
ATOM     24  S   UNL     1       0.002  -0.004   0.002  0.00  0.00    -0.089 S 
ENDBRANCH   7  24
ENDBRANCH   1  13
BRANCH   4  25
ATOM     25  C   UNL     1       3.358  -9.297   5.367  0.00  0.00    -0.043 C 
BRANCH  25  26
ATOM     26  N   UNL     1       2.828  -9.608   6.702  0.00  0.00    +0.382 N 
ATOM     27  C   UNL     1       3.608  -8.889   7.716  0.00  0.00    -0.076 C 
ATOM     28  C   UNL     1       3.010  -9.146   9.101  0.00  0.00    +0.008 C 
ATOM     29  C   UNL     1       3.047 -10.648   9.396  0.00  0.00    +0.106 C 
ATOM     30  C   UNL     1       2.293 -11.394   8.291  0.00  0.00    +0.008 C 
ATOM     31  C   UNL     1       2.917 -11.054   6.936  0.00  0.00    -0.076 C 
ATOM     32  H   UNL     1       1.863  -9.319   6.755  0.00  0.00    -0.081 HD
BRANCH  29  33
ATOM     33  N   UNL     1       2.407 -10.909  10.688  0.00  0.00    -0.243 N 
ATOM     34  C   UNL     1       3.002 -11.480  11.774  0.00  0.00    +0.163 A 
ATOM     35  C   UNL     1       2.023 -11.536  12.785  0.00  0.00    +0.078 A 
ATOM     36  C   UNL     1       0.843 -10.979  12.248  0.00  0.00    +0.148 A 
ATOM     37  N   UNL     1       1.080 -10.610  11.022  0.00  0.00    -0.177 NA
ATOM     38  C   UNL     1       2.381 -12.089  14.029  0.00  0.00    +0.130 A 
ATOM     39  N   UNL     1       3.624 -12.532  14.190  0.00  0.00    -0.220 NA
ATOM     40  C   UNL     1       4.508 -12.458  13.211  0.00  0.00    +0.225 A 
ATOM     41  N   UNL     1       4.221 -11.950  12.033  0.00  0.00    -0.216 NA
BRANCH  38  42
ATOM     42  N   UNL     1       1.463 -12.170  15.058  0.00  0.00    -0.342 N 
ATOM     43  H   UNL     1       0.559 -11.843  14.928  0.00  0.00    +0.144 HD
ATOM     44  H   UNL     1       1.722 -12.553  15.910  0.00  0.00    +0.144 HD
ENDBRANCH  38  42
ENDBRANCH  29  33
ENDBRANCH  25  26
ENDBRANCH   4  25
TORSDOF 7
