REMARK  Name = CHEMBL590957
REMARK  3 active torsions:
REMARK  status: ('A' for Active; 'I' for Inactive)
REMARK    1  A    between atoms: C_3  and  C_9
REMARK    2  A    between atoms: C_9  and  C_10
REMARK    3  A    between atoms: C_10  and  N_27
REMARK                            x       y       z     vdW  Elec       q    Type
REMARK                         _______ _______ _______ _____ _____    ______ ____
ROOT
ATOM      1  C   UNL     1       4.269   2.225   1.385  0.00  0.00    -0.064 C 
ATOM      2  C   UNL     1       3.282   2.897   2.343  0.00  0.00    +0.006 C 
ATOM      3  C   UNL     1       2.978   4.313   1.845  0.00  0.00    +0.105 C 
ATOM      4  N   UNL     1       4.244   5.038   1.677  0.00  0.00    -0.313 N 
ATOM      5  C   UNL     1       5.298   4.437   0.849  0.00  0.00    +0.105 C 
ATOM      6  C   UNL     1       5.577   3.019   1.357  0.00  0.00    +0.006 C 
ATOM      7  C   UNL     1       4.441   6.266   2.288  0.00  0.00    +0.152 A 
ATOM      8  C   UNL     1       3.395   6.902   2.977  0.00  0.00    +0.151 A 
ATOM      9  C   UNL     1       3.655   8.145   3.576  0.00  0.00    +0.166 A 
ATOM     10  N   UNL     1       2.478   8.534   4.172  0.00  0.00    -0.289 N 
ATOM     11  H   UNL     1       2.330   9.354   4.669  0.00  0.00    +0.172 HD
ATOM     12  C   UNL     1       1.555   7.556   3.933  0.00  0.00    +0.348 A 
ATOM     13  O   UNL     1       0.271   7.577   4.359  0.00  0.00    -0.245 OA
ATOM     14  N   UNL     1       2.098   6.597   3.229  0.00  0.00    -0.187 NA
ATOM     15  N   UNL     1       4.870   8.671   3.471  0.00  0.00    -0.216 NA
ATOM     16  C   UNL     1       5.821   8.040   2.816  0.00  0.00    +0.225 A 
ATOM     17  N   UNL     1       5.626   6.866   2.241  0.00  0.00    -0.218 NA
ENDROOT
BRANCH   1  18
ATOM     18  N   UNL     1       4.538   0.855   1.842  0.00  0.00    +0.382 N 
ATOM     19  H   UNL     1       5.188   0.412   1.210  0.00  0.00    -0.089 HD
ATOM     20  H   UNL     1       4.935   0.881   2.769  0.00  0.00    -0.089 HD
ATOM     21  H   UNL     1       3.676   0.331   1.859  0.00  0.00    -0.089 HD
ENDBRANCH   1  18
BRANCH   1  22
ATOM     22  C   UNL     1       3.667   2.185  -0.021  0.00  0.00    +0.024 C 
BRANCH  22  25
ATOM     23  C   UNL     1      -0.014   1.351   0.065  0.00  0.00    +0.020 A 
ATOM     24  C   UNL     1       1.168   2.068   0.042  0.00  0.00    +0.006 A 
ATOM     25  C   UNL     1       2.379   1.403   0.006  0.00  0.00    -0.030 A 
ATOM     26  C   UNL     1       2.410   0.020  -0.005  0.00  0.00    +0.045 A 
ATOM     27  C   UNL     1       1.228  -0.698   0.019  0.00  0.00    +0.040 A 
ATOM     28  C   UNL     1       0.015  -0.032   0.054  0.00  0.00    +0.042 A 
ATOM     29 CL   UNL     1      -1.469  -0.932   0.085  0.00  0.00    -0.083 Cl
ATOM     30 CL   UNL     1       3.931  -0.815  -0.051  0.00  0.00    -0.083 Cl
ENDBRANCH  22  25
ENDBRANCH   1  22
TORSDOF 3
