REMARK  Name = CHEMBL259998
REMARK  2 active torsions:
REMARK  status: ('A' for Active; 'I' for Inactive)
REMARK    1  A    between atoms: C_6  and  C_7
REMARK    2  A    between atoms: C_7  and  N_23
REMARK                            x       y       z     vdW  Elec       q    Type
REMARK                         _______ _______ _______ _____ _____    ______ ____
ROOT
ATOM      1  C   UNL     1      -1.273  -0.815  -0.073  0.00  0.00    -0.042 C 
ATOM      2  C   UNL     1      -1.591  -1.100   1.396  0.00  0.00    +0.011 C 
ATOM      3  C   UNL     1      -2.945  -1.810   1.494  0.00  0.00    +0.105 C 
ATOM      4  N   UNL     1      -2.914  -3.006   0.640  0.00  0.00    -0.315 N 
ATOM      5  C   UNL     1      -2.532  -2.856  -0.771  0.00  0.00    +0.105 C 
ATOM      6  C   UNL     1      -1.183  -2.135  -0.843  0.00  0.00    +0.011 C 
ATOM      7  C   UNL     1      -3.239  -4.248   1.155  0.00  0.00    +0.134 A 
ATOM      8  C   UNL     1      -4.562  -4.715   1.128  0.00  0.00    +0.059 A 
ATOM      9  C   UNL     1      -5.837  -4.185   0.648  0.00  0.00    +0.032 A 
ATOM     10  C   UNL     1      -6.767  -5.119   0.908  0.00  0.00    +0.085 A 
ATOM     11  N   UNL     1      -6.183  -6.200   1.516  0.00  0.00    -0.346 N 
ATOM     12  H   UNL     1      -6.653  -7.000   1.798  0.00  0.00    +0.167 HD
ATOM     13  C   UNL     1      -4.840  -5.985   1.664  0.00  0.00    +0.143 A 
ATOM     14  N   UNL     1      -3.836  -6.694   2.176  0.00  0.00    -0.218 NA
ATOM     15  C   UNL     1      -2.610  -6.216   2.181  0.00  0.00    +0.225 A 
ATOM     16  N   UNL     1      -2.304  -5.032   1.683  0.00  0.00    -0.220 NA
ENDROOT
BRANCH   1  22
ATOM     17  C   UNL     1       0.071   1.296  -0.135  0.00  0.00    +0.003 A 
ATOM     18  C   UNL     1       1.277   1.965  -0.223  0.00  0.00    +0.020 A 
ATOM     19  C   UNL     1       2.456   1.251  -0.348  0.00  0.00    +0.041 A 
ATOM     20  C   UNL     1       2.427  -0.132  -0.384  0.00  0.00    +0.020 A 
ATOM     21  C   UNL     1       1.220  -0.799  -0.295  0.00  0.00    +0.003 A 
ATOM     22  C   UNL     1       0.042  -0.086  -0.171  0.00  0.00    -0.059 A 
ATOM     23 CL   UNL     1       3.971   2.091  -0.460  0.00  0.00    -0.084 Cl
ENDBRANCH   1  22
BRANCH   1  24
ATOM     24  N   UNL     1      -2.337   0.017  -0.651  0.00  0.00    +0.385 N 
ATOM     25  H   UNL     1      -2.128   0.205  -1.620  0.00  0.00    -0.089 HD
ATOM     26  H   UNL     1      -3.218  -0.471  -0.586  0.00  0.00    -0.089 HD
ATOM     27  H   UNL     1      -2.397   0.887  -0.144  0.00  0.00    -0.089 HD
ENDBRANCH   1  24
TORSDOF 2
