REMARK  Name = CHEMBL598842
REMARK  4 active torsions:
REMARK  status: ('A' for Active; 'I' for Inactive)
REMARK    1  A    between atoms: C_6  and  C_7
REMARK    2  A    between atoms: C_7  and  N_8
REMARK    3  A    between atoms: C_9  and  C_11
REMARK    4  A    between atoms: C_11  and  N_28
REMARK                            x       y       z     vdW  Elec       q    Type
REMARK                         _______ _______ _______ _____ _____    ______ ____
ROOT
ATOM      1  C   UNL     1      -3.313  -1.945  -3.024  0.00  0.00    +0.096 C 
ATOM      2  C   UNL     1      -4.200  -0.789  -3.492  0.00  0.00    +0.050 C 
ATOM      3  C   UNL     1      -5.409  -0.668  -2.559  0.00  0.00    +0.109 C 
ATOM      4  N   UNL     1      -6.092  -1.967  -2.500  0.00  0.00    -0.313 N 
ATOM      5  C   UNL     1      -5.311  -3.161  -2.147  0.00  0.00    +0.109 C 
ATOM      6  C   UNL     1      -4.103  -3.254  -3.085  0.00  0.00    +0.050 C 
ATOM      7  C   UNL     1      -7.448  -2.065  -2.770  0.00  0.00    +0.150 A 
ATOM      8  C   UNL     1      -8.392  -1.833  -1.771  0.00  0.00    +0.128 A 
ATOM      9  C   UNL     1      -9.755  -1.944  -2.093  0.00  0.00    +0.186 A 
ATOM     10  N   UNL     1     -10.450  -1.676  -0.971  0.00  0.00    -0.172 NA
ATOM     11  H   UNL     1      -7.536  -1.345   0.094  0.00  0.00    +0.171 HD
ATOM     12  C   UNL     1      -9.623  -1.411   0.011  0.00  0.00    +0.348 A 
ATOM     13  O   UNL     1      -9.992  -1.100   1.274  0.00  0.00    -0.245 OA
ATOM     14  N   UNL     1      -8.338  -1.494  -0.431  0.00  0.00    -0.300 N 
ATOM     15  N   UNL     1     -10.093  -2.267  -3.346  0.00  0.00    -0.214 NA
ATOM     16  C   UNL     1      -9.167  -2.476  -4.256  0.00  0.00    +0.225 A 
ATOM     17  N   UNL     1      -7.878  -2.377  -3.991  0.00  0.00    -0.219 NA
ENDROOT
BRANCH   1  19
ATOM     18  N   UNL     1      -1.771  -2.312  -1.125  0.00  0.00    -0.310 N 
ATOM     19  C   UNL     1      -2.867  -1.693  -1.606  0.00  0.00    +0.233 C 
ATOM     20  O   UNL     1      -3.495  -0.934  -0.899  0.00  0.00    -0.274 OA
ATOM     21  H   UNL     1      -1.269  -2.920  -1.690  0.00  0.00    +0.149 HD
BRANCH  18  22
ATOM     22  C   UNL     1      -1.338  -2.067   0.253  0.00  0.00    +0.139 C 
BRANCH  22  28
ATOM     23  C   UNL     1       1.151  -2.332   0.297  0.00  0.00    +0.006 A 
ATOM     24  C   UNL     1       2.288  -3.071   0.561  0.00  0.00    +0.020 A 
ATOM     25  C   UNL     1       2.178  -4.353   1.069  0.00  0.00    +0.041 A 
ATOM     26  C   UNL     1       0.928  -4.895   1.313  0.00  0.00    +0.020 A 
ATOM     27  C   UNL     1      -0.209  -4.155   1.049  0.00  0.00    +0.006 A 
ATOM     28  C   UNL     1      -0.098  -2.874   0.541  0.00  0.00    -0.030 A 
ATOM     29 CL   UNL     1       3.607  -5.282   1.400  0.00  0.00    -0.084 Cl
ENDBRANCH  22  28
ENDBRANCH  18  22
ENDBRANCH   1  19
BRANCH   1  30
ATOM     30  N   UNL     1      -2.135  -2.043  -3.897  0.00  0.00    -0.317 NA
ATOM     31  H   UNL     1      -1.596  -1.191  -3.874  0.00  0.00    +0.119 HD
ATOM     32  H   UNL     1      -1.566  -2.838  -3.648  0.00  0.00    +0.119 HD
ENDBRANCH   1  30
TORSDOF 4
