REMARK  Name = CHEMBL265451
REMARK  1 active torsions:
REMARK  status: ('A' for Active; 'I' for Inactive)
REMARK    1  A    between atoms: C_14  and  N_17
REMARK                            x       y       z     vdW  Elec       q    Type
REMARK                         _______ _______ _______ _____ _____    ______ ____
ROOT
ATOM      1  C   UNL     1       2.576   2.218   2.572  0.00  0.00    +0.118 A 
ATOM      2  C   UNL     1       2.336   2.453   1.237  0.00  0.00    +0.078 A 
ATOM      3  C   UNL     1       1.723   3.790   1.147  0.00  0.00    +0.186 A 
ATOM      4  N   UNL     1       1.640   4.248   2.377  0.00  0.00    -0.154 NA
ATOM      5  H   UNL     1       2.203   3.387   4.221  0.00  0.00    +0.188 HD
ATOM      6  N   UNL     1       2.155   3.289   3.257  0.00  0.00    -0.282 N 
ATOM      7  N   UNL     1       1.394   4.246  -0.077  0.00  0.00    -0.214 NA
ATOM      8  C   UNL     1       1.612   3.524  -1.145  0.00  0.00    +0.225 A 
ATOM      9  N   UNL     1       2.157   2.318  -1.137  0.00  0.00    -0.220 NA
ATOM     10  C   UNL     1       2.538   1.724  -0.013  0.00  0.00    +0.135 A 
ATOM     11  N   UNL     1       3.104   0.469  -0.025  0.00  0.00    -0.315 N 
ATOM     12  C   UNL     1       2.264  -0.732   0.081  0.00  0.00    +0.105 C 
ATOM     13  C   UNL     1       2.585  -1.664  -1.091  0.00  0.00    +0.003 C 
ATOM     14  C   UNL     1       4.089  -1.949  -1.115  0.00  0.00    -0.072 C 
ATOM     15  C   UNL     1       4.855  -0.639  -1.315  0.00  0.00    +0.003 C 
ATOM     16  C   UNL     1       4.559   0.305  -0.151  0.00  0.00    +0.105 C 
ENDROOT
BRANCH  14  17
ATOM     17  N   UNL     1       4.396  -2.869  -2.218  0.00  0.00    +0.380 N 
ATOM     18  H   UNL     1       4.119  -2.449  -3.093  0.00  0.00    -0.090 HD
ATOM     19  H   UNL     1       5.387  -3.056  -2.233  0.00  0.00    -0.090 HD
ATOM     20  H   UNL     1       3.892  -3.732  -2.085  0.00  0.00    -0.090 HD
ENDBRANCH  14  17
TORSDOF 1
