REMARK  Name = CHEMBL224956
REMARK  8 active torsions:
REMARK  status: ('A' for Active; 'I' for Inactive)
REMARK    1  A    between atoms: C_1  and  C_2
REMARK    2  A    between atoms: C_5  and  C_36
REMARK    3  A    between atoms: C_7  and  N_8
REMARK    4  A    between atoms: N_15  and  C_16
REMARK    5  A    between atoms: N_22  and  C_23
REMARK    6  A    between atoms: C_23  and  C_24
REMARK    7  A    between atoms: C_33  and  C_34
REMARK    8  A    between atoms: C_33  and  C_35
REMARK                            x       y       z     vdW  Elec       q    Type
REMARK                         _______ _______ _______ _____ _____    ______ ____
ROOT
ATOM      1  N   UNL     1       0.025  -0.016   2.511  0.00  0.00    -0.283 N 
ATOM      2  C   UNL     1      -0.046  -0.721   3.697  0.00  0.00    +0.225 A 
ATOM      3  N   UNL     1      -0.022  -2.050   3.682  0.00  0.00    -0.181 NA
ATOM      4  C   UNL     1      -0.090  -2.729   4.823  0.00  0.00    +0.221 A 
ATOM      5  N   UNL     1      -0.183  -2.078   5.979  0.00  0.00    -0.181 NA
ATOM      6  C   UNL     1      -0.208  -0.749   5.993  0.00  0.00    +0.221 A 
ATOM      7  N   UNL     1      -0.134  -0.070   4.853  0.00  0.00    -0.181 NA
ATOM      8  N   UNL     1      -0.305  -0.074   7.193  0.00  0.00    -0.312 N 
ATOM      9  N   UNL     1      -0.066  -4.109   4.807  0.00  0.00    -0.313 N 
ATOM     10  H   UNL     1       0.097   0.952   2.525  0.00  0.00    +0.155 HD
ATOM     11  H   UNL     1      -0.355  -0.569   8.025  0.00  0.00    +0.149 HD
ATOM     12  H   UNL     1      -0.116  -4.604   5.640  0.00  0.00    +0.149 HD
ENDROOT
BRANCH   1  19
ATOM     13  C   UNL     1       1.275   1.203   0.269  0.00  0.00    +0.045 C 
ATOM     14  C   UNL     1       0.593  -0.137   0.167  0.00  0.00    -0.029 A 
ATOM     15  C   UNL     1       0.571  -0.808  -1.041  0.00  0.00    +0.006 A 
ATOM     16  C   UNL     1      -0.052  -2.036  -1.142  0.00  0.00    +0.013 A 
ATOM     17  C   UNL     1      -0.661  -2.604  -0.022  0.00  0.00    +0.038 A 
ATOM     18  C   UNL     1      -0.638  -1.927   1.197  0.00  0.00    +0.036 A 
ATOM     19  C   UNL     1      -0.006  -0.696   1.289  0.00  0.00    +0.037 A 
BRANCH  17  20
ATOM     20  C   UNL     1      -1.329  -3.919  -0.127  0.00  0.00    +0.242 C 
ATOM     21  O   UNL     1      -1.859  -4.412   0.849  0.00  0.00    -0.270 OA
ATOM     22  N   UNL     1      -1.350  -4.571  -1.306  0.00  0.00    -0.325 N 
ATOM     23  H   UNL     1      -0.927  -4.178  -2.086  0.00  0.00    +0.145 HD
ATOM     24  H   UNL     1      -1.788  -5.434  -1.376  0.00  0.00    +0.145 HD
ENDBRANCH  17  20
ENDBRANCH   1  19
BRANCH   8  25
ATOM     25  C   UNL     1      -0.331   1.391   7.209  0.00  0.00    +0.054 C 
ATOM     26  C   UNL     1      -1.782   1.902   7.057  0.00  0.00    +0.001 C 
ATOM     27  C   UNL     1      -2.211   2.170   8.521  0.00  0.00    -0.081 C 
ATOM     28  N   UNL     1      -0.974   2.709   9.144  0.00  0.00    +0.380 N 
ATOM     29  C   UNL     1       0.142   1.919   8.576  0.00  0.00    -0.060 C 
ATOM     30  H   UNL     1      -0.864   3.684   8.911  0.00  0.00    -0.086 HD
ATOM     31  H   UNL     1      -1.010   2.591  10.146  0.00  0.00    -0.086 HD
ENDBRANCH   8  25
BRANCH   9  32
ATOM     32  C   UNL     1       0.036  -4.825   3.534  0.00  0.00    +0.108 C 
BRANCH  32  33
ATOM     33  C   UNL     1       0.044  -6.334   3.796  0.00  0.00    +0.010 C 
ATOM     34  C   UNL     1       1.258  -6.732   4.623  0.00  0.00    +0.005 C 
ATOM     35  C   UNL     1       1.780  -8.124   4.292  0.00  0.00    +0.004 C 
ATOM     36  C   UNL     1       1.328  -8.611   2.915  0.00  0.00    -0.005 C 
ATOM     37  C   UNL     1      -0.210  -8.622   2.797  0.00  0.00    +0.008 C 
ATOM     38  C   UNL     1      -0.043  -7.114   2.484  0.00  0.00    -0.000 C 
ATOM     39  C   UNL     1       1.293  -7.505   1.850  0.00  0.00    -0.029 C 
ATOM     40  C   UNL     1       2.425  -6.485   1.930  0.00  0.00    +0.011 C 
ATOM     41  C   UNL     1       1.149  -8.054   0.417  0.00  0.00    +0.011 C 
ENDBRANCH  32  33
ENDBRANCH   9  32
TORSDOF 5
