REMARK  Name = CHEMBL495902
REMARK  4 active torsions:
REMARK  status: ('A' for Active; 'I' for Inactive)
REMARK    1  A    between atoms: C_1  and  C_2
REMARK    2  A    between atoms: C_5  and  C_18
REMARK    3  A    between atoms: C_7  and  C_8
REMARK    4  A    between atoms: N_20  and  C_21
REMARK                            x       y       z     vdW  Elec       q    Type
REMARK                         _______ _______ _______ _____ _____    ______ ____
ROOT
ATOM      1  C   UNL     1      -0.018   1.503   0.010  0.00  0.00    +0.044 C 
ATOM      2  C   UNL     1       0.002  -0.004   0.002  0.00  0.00    -0.043 A 
ATOM      3  C   UNL     1       0.006  -0.686  -1.199  0.00  0.00    +0.005 A 
ATOM      4  C   UNL     1       0.024  -2.066  -1.216  0.00  0.00    +0.013 A 
ATOM      5  C   UNL     1       0.039  -2.781  -0.016  0.00  0.00    +0.037 A 
ATOM      6  C   UNL     1       0.036  -2.097   1.198  0.00  0.00    +0.021 A 
ATOM      7  C   UNL     1       0.023  -0.706   1.206  0.00  0.00    -0.014 A 
ENDROOT
BRANCH   7   8
ATOM      8  C   UNL     1       0.025   0.030   2.495  0.00  0.00    -0.017 A 
ATOM      9  C   UNL     1       0.939   1.070   2.704  0.00  0.00    +0.010 A 
ATOM     10  C   UNL     1       0.956   1.757   3.881  0.00  0.00    +0.028 A 
ATOM     11  C   UNL     1       0.058   1.429   4.896  0.00  0.00    +0.066 A 
ATOM     12  C   UNL     1      -0.867   0.385   4.699  0.00  0.00    +0.020 A 
ATOM     13  C   UNL     1      -0.881  -0.311   3.487  0.00  0.00    +0.020 A 
ATOM     14  C   UNL     1      -1.650   0.294   5.928  0.00  0.00    +0.142 A 
ATOM     15  N   UNL     1      -1.210   1.204   6.748  0.00  0.00    -0.181 NA
ATOM     16  N   UNL     1      -0.165   1.920   6.156  0.00  0.00    -0.277 N 
ATOM     17  H   UNL     1       0.324   2.649   6.570  0.00  0.00    +0.189 HD
ENDBRANCH   7   8
BRANCH   5  18
ATOM     18  C   UNL     1       0.058  -4.259  -0.033  0.00  0.00    +0.244 C 
ATOM     19  O   UNL     1       0.071  -4.880   1.012  0.00  0.00    -0.270 OA
ATOM     20  N   UNL     1       0.061  -4.919  -1.209  0.00  0.00    -0.308 N 
ATOM     21  H   UNL     1       0.051  -4.424  -2.043  0.00  0.00    +0.149 HD
BRANCH  20  22
ATOM     22  C   UNL     1       0.080  -6.384  -1.226  0.00  0.00    +0.073 C 
ATOM     23  C   UNL     1       1.021  -7.066  -2.221  0.00  0.00    +0.024 C 
ATOM     24  C   UNL     1      -0.490  -7.083  -2.462  0.00  0.00    +0.024 C 
ENDBRANCH  20  22
ENDBRANCH   5  18
TORSDOF 3
