REMARK  Name = CHEMBL404115
REMARK  6 active torsions:
REMARK  status: ('A' for Active; 'I' for Inactive)
REMARK    1  A    between atoms: C_1  and  C_2
REMARK    2  A    between atoms: C_2  and  C_3
REMARK    3  A    between atoms: C_3  and  C_5
REMARK    4  A    between atoms: C_3  and  N_6
REMARK    5  A    between atoms: C_12  and  C_16
REMARK    6  A    between atoms: C_17  and  C_23
REMARK                            x       y       z     vdW  Elec       q    Type
REMARK                         _______ _______ _______ _____ _____    ______ ____
ROOT
ATOM      1  C   UNL     1       6.285   0.604   7.712  0.00  0.00    +0.049 A 
ATOM      2  C   UNL     1       6.362   1.702   8.557  0.00  0.00    +0.078 A 
ATOM      3  N   UNL     1       7.532   1.594   9.249  0.00  0.00    -0.275 N 
ATOM      4  N   UNL     1       8.180   0.427   8.832  0.00  0.00    -0.158 NA
ATOM      5  H   UNL     1       7.858   2.219   9.916  0.00  0.00    +0.189 HD
ATOM      6  C   UNL     1       7.446  -0.170   7.925  0.00  0.00    +0.146 A 
ATOM      7  N   UNL     1       7.761  -1.368   7.276  0.00  0.00    -0.341 N 
ATOM      8  H   UNL     1       7.155  -1.734   6.614  0.00  0.00    +0.144 HD
ATOM      9  H   UNL     1       8.586  -1.832   7.489  0.00  0.00    +0.144 HD
ENDROOT
BRANCH   1  16
ATOM     10  N   UNL     1       1.647  -0.746   1.661  0.00  0.00    -0.321 N 
ATOM     11  C   UNL     1       2.465  -0.508   2.747  0.00  0.00    +0.159 A 
ATOM     12  N   UNL     1       2.167  -0.545   4.026  0.00  0.00    -0.225 NA
ATOM     13  C   UNL     1       3.077  -0.287   4.991  0.00  0.00    +0.080 A 
ATOM     14  C   UNL     1       2.885  -0.294   6.393  0.00  0.00    +0.029 A 
ATOM     15  C   UNL     1       3.907  -0.011   7.241  0.00  0.00    +0.011 A 
ATOM     16  C   UNL     1       5.186   0.298   6.766  0.00  0.00    -0.011 A 
ATOM     17  C   UNL     1       5.412   0.314   5.390  0.00  0.00    +0.026 A 
ATOM     18  C   UNL     1       4.378   0.027   4.536  0.00  0.00    +0.041 A 
ATOM     19  S   UNL     1       4.199  -0.078   2.772  0.00  0.00    -0.052 S 
ATOM     20  H   UNL     1       2.006  -0.687   0.761  0.00  0.00    +0.148 HD
BRANCH  10  21
ATOM     21  C   UNL     1       0.238  -1.087   1.866  0.00  0.00    +0.069 C 
ATOM     22  C   UNL     1       0.108  -2.593   2.107  0.00  0.00    +0.028 C 
BRANCH  21  24
ATOM     23  C   UNL     1      -0.540   0.821   0.453  0.00  0.00    +0.005 C 
ATOM     24  C   UNL     1      -0.567  -0.699   0.624  0.00  0.00    +0.018 C 
ENDBRANCH  21  24
ENDBRANCH  10  21
ENDBRANCH   1  16
BRANCH   2  25
ATOM     25  C   UNL     1       5.364   2.785   8.683  0.00  0.00    +0.036 A 
ATOM     26  C   UNL     1       4.651   2.946   9.872  0.00  0.00    +0.013 A 
ATOM     27  C   UNL     1       3.721   3.959   9.983  0.00  0.00    +0.001 A 
ATOM     28  C   UNL     1       3.494   4.815   8.919  0.00  0.00    +0.003 A 
ATOM     29  C   UNL     1       4.196   4.663   7.738  0.00  0.00    +0.039 A 
ATOM     30  C   UNL     1       5.135   3.656   7.614  0.00  0.00    +0.133 A 
ATOM     31  F   UNL     1       5.825   3.510   6.461  0.00  0.00    -0.205 F 
ENDBRANCH   2  25
TORSDOF 4
