REMARK  Name = CHEMBL496528
REMARK  5 active torsions:
REMARK  status: ('A' for Active; 'I' for Inactive)
REMARK    1  A    between atoms: C_1  and  C_2
REMARK    2  A    between atoms: C_5  and  C_24
REMARK    3  A    between atoms: C_7  and  C_8
REMARK    4  A    between atoms: C_15  and  C_19
REMARK    5  A    between atoms: N_26  and  C_27
REMARK                            x       y       z     vdW  Elec       q    Type
REMARK                         _______ _______ _______ _____ _____    ______ ____
ROOT
ATOM      1  C   UNL     1       0.025   0.029   2.495  0.00  0.00    -0.014 A 
ATOM      2  C   UNL     1       0.938   1.067   2.701  0.00  0.00    +0.009 A 
ATOM      3  C   UNL     1       0.948   1.750   3.884  0.00  0.00    +0.016 A 
ATOM      4  C   UNL     1       0.043   1.411   4.890  0.00  0.00    +0.064 A 
ATOM      5  C   UNL     1       0.032   2.133   6.179  0.00  0.00    +0.193 A 
ATOM      6  O   UNL     1       0.811   3.046   6.401  0.00  0.00    -0.287 OA
ATOM      7  C   UNL     1      -0.914   1.729   7.142  0.00  0.00    +0.099 A 
ATOM      8  C   UNL     1      -1.776   0.695   6.852  0.00  0.00    +0.146 A 
ATOM      9  O   UNL     1      -1.750   0.049   5.674  0.00  0.00    -0.454 OA
ATOM     10  C   UNL     1      -0.879   0.371   4.695  0.00  0.00    +0.140 A 
ATOM     11  C   UNL     1      -0.886  -0.314   3.489  0.00  0.00    +0.055 A 
ENDROOT
BRANCH   1  18
ATOM     12  C   UNL     1      -0.018   1.503   0.010  0.00  0.00    +0.044 C 
ATOM     13  C   UNL     1       0.002  -0.004   0.002  0.00  0.00    -0.043 A 
ATOM     14  C   UNL     1       0.006  -0.686  -1.199  0.00  0.00    +0.005 A 
ATOM     15  C   UNL     1       0.025  -2.067  -1.216  0.00  0.00    +0.013 A 
ATOM     16  C   UNL     1       0.040  -2.781  -0.016  0.00  0.00    +0.037 A 
ATOM     17  C   UNL     1       0.037  -2.098   1.199  0.00  0.00    +0.021 A 
ATOM     18  C   UNL     1       0.023  -0.706   1.207  0.00  0.00    -0.014 A 
BRANCH  16  19
ATOM     19  C   UNL     1       0.060  -4.260  -0.034  0.00  0.00    +0.244 C 
ATOM     20  O   UNL     1       0.073  -4.880   1.012  0.00  0.00    -0.270 OA
ATOM     21  N   UNL     1       0.063  -4.919  -1.209  0.00  0.00    -0.308 N 
ATOM     22  H   UNL     1       0.052  -4.424  -2.043  0.00  0.00    +0.149 HD
BRANCH  21  23
ATOM     23  C   UNL     1       0.082  -6.384  -1.227  0.00  0.00    +0.073 C 
ATOM     24  C   UNL     1       1.023  -7.066  -2.223  0.00  0.00    +0.024 C 
ATOM     25  C   UNL     1      -0.488  -7.083  -2.463  0.00  0.00    +0.024 C 
ENDBRANCH  21  23
ENDBRANCH  16  19
ENDBRANCH   1  18
BRANCH   8  26
ATOM     26  C   UNL     1      -2.755   0.284   7.862  0.00  0.00    +0.055 A 
ATOM     27  C   UNL     1      -3.708  -0.722   7.799  0.00  0.00    +0.019 A 
ATOM     28  C   UNL     1      -4.492  -0.872   8.919  0.00  0.00    +0.008 A 
ATOM     29  C   UNL     1      -4.289  -0.054   9.980  0.00  0.00    +0.046 A 
ATOM     30  S   UNL     1      -3.025   0.942   9.497  0.00  0.00    -0.094 S 
ENDBRANCH   8  26
TORSDOF 4
