REMARK  Name = CHEMBL142425
REMARK  6 active torsions:
REMARK  status: ('A' for Active; 'I' for Inactive)
REMARK    1  A    between atoms: C_1  and  C_2
REMARK    2  A    between atoms: C_2  and  C_4
REMARK    3  A    between atoms: C_2  and  O_29
REMARK    4  A    between atoms: C_4  and  N_5
REMARK    5  A    between atoms: C_8  and  C_12
REMARK    6  A    between atoms: C_13  and  C_22
REMARK                            x       y       z     vdW  Elec       q    Type
REMARK                         _______ _______ _______ _____ _____    ______ ____
ROOT
ATOM      1  C   UNL     1       3.087  -1.837  -5.535  0.00  0.00    +0.057 A 
ATOM      2  C   UNL     1       3.110  -2.219  -6.861  0.00  0.00    +0.031 A 
ATOM      3  C   UNL     1       4.073  -1.336  -7.534  0.00  0.00    +0.073 A 
ATOM      4  C   UNL     1       4.568  -0.469  -6.543  0.00  0.00    +0.064 A 
ATOM      5  N   UNL     1       3.954  -0.789  -5.352  0.00  0.00    -0.352 N 
ATOM      6  H   UNL     1       4.113  -0.340  -4.507  0.00  0.00    +0.166 HD
ATOM      7  C   UNL     1       5.512   0.491  -6.900  0.00  0.00    +0.029 A 
ATOM      8  C   UNL     1       5.922   0.549  -8.220  0.00  0.00    +0.019 A 
ATOM      9  C   UNL     1       5.390  -0.338  -9.144  0.00  0.00    +0.083 A 
ATOM     10  N   UNL     1       4.499  -1.239  -8.790  0.00  0.00    -0.359 N 
ATOM     11  H   UNL     1       4.146  -1.845  -9.459  0.00  0.00    +0.165 HD
ENDROOT
BRANCH   1  15
ATOM     12  N   UNL     1       2.517  -3.717  -1.043  0.00  0.00    -0.327 N 
ATOM     13  C   UNL     1       1.986  -3.373  -2.281  0.00  0.00    +0.119 A 
ATOM     14  C   UNL     1       2.805  -2.795  -3.243  0.00  0.00    +0.053 A 
ATOM     15  C   UNL     1       2.256  -2.454  -4.482  0.00  0.00    +0.004 A 
ATOM     16  C   UNL     1       0.895  -2.714  -4.698  0.00  0.00    +0.030 A 
ATOM     17  C   UNL     1       0.153  -3.290  -3.691  0.00  0.00    +0.113 A 
ATOM     18  N   UNL     1       0.706  -3.604  -2.533  0.00  0.00    -0.240 NA
ATOM     19  H   UNL     1       1.950  -4.125  -0.369  0.00  0.00    +0.148 HD
BRANCH  12  20
ATOM     20  C   UNL     1       3.931  -3.465  -0.756  0.00  0.00    +0.134 C 
BRANCH  20  22
ATOM     21  C   UNL     1       5.697  -3.558   1.008  0.00  0.00    +0.039 C 
ATOM     22  C   UNL     1       4.255  -3.934   0.664  0.00  0.00    +0.128 C 
BRANCH  22  23
ATOM     23  O   UNL     1       4.100  -5.352   0.744  0.00  0.00    -0.391 OA
ATOM     24  H   UNL     1       4.289  -5.719   1.619  0.00  0.00    +0.210 HD
ENDBRANCH  22  23
ENDBRANCH  20  22
ENDBRANCH  12  20
ENDBRANCH   1  15
BRANCH   2  25
ATOM     25  C   UNL     1       2.321  -3.306  -7.483  0.00  0.00    -0.014 A 
ATOM     26  C   UNL     1       2.550  -4.634  -7.121  0.00  0.00    +0.011 A 
ATOM     27  C   UNL     1       1.811  -5.642  -7.703  0.00  0.00    +0.039 A 
ATOM     28  C   UNL     1       0.843  -5.339  -8.646  0.00  0.00    +0.123 A 
ATOM     29  C   UNL     1       0.611  -4.022  -9.010  0.00  0.00    +0.039 A 
ATOM     30  C   UNL     1       1.340  -3.005  -8.429  0.00  0.00    +0.011 A 
ATOM     31  F   UNL     1       0.122  -6.331  -9.214  0.00  0.00    -0.205 F 
ENDBRANCH   2  25
TORSDOF 5
