REMARK  Name = CHEMBL569552
REMARK  6 active torsions:
REMARK  status: ('A' for Active; 'I' for Inactive)
REMARK    1  A    between atoms: C_1  and  C_2
REMARK    2  A    between atoms: C_2  and  C_3
REMARK    3  A    between atoms: C_2  and  C_4
REMARK    4  A    between atoms: C_5  and  C_16
REMARK    5  A    between atoms: C_6  and  C_9
REMARK    6  A    between atoms: N_22  and  C_23
REMARK                            x       y       z     vdW  Elec       q    Type
REMARK                         _______ _______ _______ _____ _____    ______ ____
ROOT
ATOM      1  C   UNL     1       0.707  -0.490  -1.238  0.00  0.00    +0.148 A 
ATOM      2  C   UNL     1       1.823  -1.263  -1.266  0.00  0.00    +0.052 A 
ATOM      3  C   UNL     1       2.152  -1.488  -2.679  0.00  0.00    +0.121 A 
ATOM      4  N   UNL     1       1.246  -0.860  -3.387  0.00  0.00    -0.077 NA
ATOM      5  O   UNL     1       0.338  -0.238  -2.500  0.00  0.00    -0.358 OA
ENDROOT
BRANCH   2   6
ATOM      6  C   UNL     1       2.569  -1.781  -0.093  0.00  0.00    -0.008 A 
ATOM      7  C   UNL     1       3.215  -0.907   0.790  0.00  0.00    +0.028 A 
ATOM      8  C   UNL     1       3.897  -1.425   1.869  0.00  0.00    +0.113 A 
ATOM      9  N   UNL     1       3.948  -2.728   2.078  0.00  0.00    -0.240 NA
ATOM     10  C   UNL     1       3.352  -3.592   1.269  0.00  0.00    +0.119 A 
ATOM     11  C   UNL     1       2.639  -3.151   0.162  0.00  0.00    +0.052 A 
ATOM     12  N   UNL     1       3.437  -4.954   1.534  0.00  0.00    -0.326 N 
ATOM     13  H   UNL     1       3.930  -5.268   2.308  0.00  0.00    +0.148 HD
BRANCH  12  14
ATOM     14  C   UNL     1       2.780  -5.916   0.645  0.00  0.00    +0.076 C 
ATOM     15  C   UNL     1       1.317  -6.085   1.064  0.00  0.00    +0.050 C 
ATOM     16  C   UNL     1       0.661  -7.149   0.180  0.00  0.00    +0.161 C 
ATOM     17  O   UNL     1       1.386  -8.375   0.294  0.00  0.00    -0.380 OA
ATOM     18  C   UNL     1       2.749  -8.288  -0.128  0.00  0.00    +0.161 C 
ATOM     19  C   UNL     1       3.489  -7.270   0.743  0.00  0.00    +0.050 C 
ENDBRANCH  12  14
ENDBRANCH   2   6
BRANCH   3  20
ATOM     20  C   UNL     1       3.292  -2.277  -3.206  0.00  0.00    +0.004 A 
ATOM     21  C   UNL     1       4.509  -2.285  -2.526  0.00  0.00    +0.013 A 
ATOM     22  C   UNL     1       5.567  -3.020  -3.019  0.00  0.00    +0.039 A 
ATOM     23  C   UNL     1       5.422  -3.750  -4.188  0.00  0.00    +0.123 A 
ATOM     24  C   UNL     1       4.214  -3.744  -4.867  0.00  0.00    +0.039 A 
ATOM     25  C   UNL     1       3.149  -3.017  -4.378  0.00  0.00    +0.013 A 
ATOM     26  F   UNL     1       6.461  -4.468  -4.668  0.00  0.00    -0.205 F 
ENDBRANCH   3  20
BRANCH   1  28
ATOM     27  C   UNL     1      -0.019   1.526   0.010  0.00  0.00    +0.015 C 
ATOM     28  C   UNL     1       0.002  -0.004   0.002  0.00  0.00    +0.052 C 
ATOM     29  C   UNL     1      -1.433  -0.534   0.013  0.00  0.00    +0.015 C 
ENDBRANCH   1  28
TORSDOF 4
