REMARK  Name = CHEMBL355790
REMARK  7 active torsions:
REMARK  status: ('A' for Active; 'I' for Inactive)
REMARK    1  A    between atoms: C_1  and  C_2
REMARK    2  A    between atoms: C_2  and  N_3
REMARK    3  A    between atoms: C_7  and  C_15
REMARK    4  A    between atoms: N_10  and  C_13
REMARK    5  A    between atoms: C_13  and  C_14
REMARK    6  A    between atoms: C_16  and  C_26
REMARK    7  A    between atoms: N_19  and  C_20
REMARK                            x       y       z     vdW  Elec       q    Type
REMARK                         _______ _______ _______ _____ _____    ______ ____
ROOT
ATOM      1  C   UNL     1      -5.113  -1.906   3.963  0.00  0.00    +0.077 A 
ATOM      2  C   UNL     1      -6.455  -1.572   3.931  0.00  0.00    +0.097 A 
ATOM      3  N   UNL     1      -7.036  -2.127   5.011  0.00  0.00    -0.235 NA
ATOM      4  C   UNL     1      -6.143  -2.778   5.702  0.00  0.00    +0.200 A 
ATOM      5  N   UNL     1      -4.936  -2.676   5.090  0.00  0.00    -0.327 N 
ENDROOT
BRANCH   1  10
ATOM      6  N   UNL     1      -1.372  -0.511   0.012  0.00  0.00    -0.292 N 
ATOM      7  C   UNL     1      -2.128  -0.794   1.148  0.00  0.00    +0.070 A 
ATOM      8  C   UNL     1      -1.867  -0.703   2.509  0.00  0.00    +0.028 A 
ATOM      9  C   UNL     1      -2.833  -1.063   3.422  0.00  0.00    +0.012 A 
ATOM     10  C   UNL     1      -4.079  -1.521   2.982  0.00  0.00    +0.003 A 
ATOM     11  C   UNL     1      -4.345  -1.613   1.615  0.00  0.00    +0.038 A 
ATOM     12  C   UNL     1      -3.371  -1.250   0.701  0.00  0.00    +0.070 A 
ATOM     13  N   UNL     1      -3.331  -1.230  -0.692  0.00  0.00    -0.292 N 
ATOM     14  C   UNL     1      -2.122  -0.777  -1.074  0.00  0.00    +0.330 A 
ATOM     15  O   UNL     1      -1.760  -0.633  -2.227  0.00  0.00    -0.246 OA
BRANCH   6  17
ATOM     16  C   UNL     1      -0.019   1.526   0.010  0.00  0.00    +0.027 C 
ATOM     17  C   UNL     1       0.002  -0.004   0.002  0.00  0.00    +0.123 C 
ENDBRANCH   6  17
BRANCH  13  18
ATOM     18  C   UNL     1      -4.420  -1.627  -1.587  0.00  0.00    +0.123 C 
ATOM     19  C   UNL     1      -5.298  -0.412  -1.893  0.00  0.00    +0.027 C 
ENDBRANCH  13  18
ENDBRANCH   1  10
BRANCH   5  20
ATOM     20  C   UNL     1      -3.678  -3.272   5.546  0.00  0.00    +0.085 C 
ATOM     21  C   UNL     1      -3.829  -4.794   5.619  0.00  0.00    +0.006 C 
ATOM     22  C   UNL     1      -2.538  -5.403   6.172  0.00  0.00    -0.081 C 
ATOM     23  N   UNL     1      -2.278  -4.870   7.515  0.00  0.00    +0.379 N 
ATOM     24  C   UNL     1      -2.061  -3.421   7.442  0.00  0.00    -0.081 C 
ATOM     25  C   UNL     1      -3.333  -2.735   6.939  0.00  0.00    +0.006 C 
ATOM     26  H   UNL     1      -3.069  -5.062   8.111  0.00  0.00    -0.086 HD
ATOM     27  H   UNL     1      -1.456  -5.314   7.897  0.00  0.00    -0.086 HD
ENDBRANCH   5  20
BRANCH   2  28
ATOM     28  C   UNL     1      -7.128  -0.753   2.896  0.00  0.00    +0.003 A 
ATOM     29  C   UNL     1      -6.451   0.307   2.293  0.00  0.00    +0.013 A 
ATOM     30  C   UNL     1      -7.083   1.067   1.330  0.00  0.00    +0.039 A 
ATOM     31  C   UNL     1      -8.387   0.778   0.962  0.00  0.00    +0.123 A 
ATOM     32  C   UNL     1      -9.064  -0.273   1.559  0.00  0.00    +0.039 A 
ATOM     33  C   UNL     1      -8.439  -1.042   2.519  0.00  0.00    +0.013 A 
ATOM     34  F   UNL     1      -9.002   1.525   0.019  0.00  0.00    -0.205 F 
ENDBRANCH   2  28
TORSDOF 5
