REMARK  Name = CHEMBL382175
REMARK  7 active torsions:
REMARK  status: ('A' for Active; 'I' for Inactive)
REMARK    1  A    between atoms: C_3  and  C_22
REMARK    2  A    between atoms: C_5  and  C_7
REMARK    3  A    between atoms: C_7  and  C_9
REMARK    4  A    between atoms: N_12  and  C_15
REMARK    5  A    between atoms: C_13  and  N_14
REMARK    6  A    between atoms: C_23  and  C_24
REMARK    7  A    between atoms: C_24  and  N_25
REMARK                            x       y       z     vdW  Elec       q    Type
REMARK                         _______ _______ _______ _____ _____    ______ ____
ROOT
ATOM      1  C   UNL     1       1.238  -2.168  -0.022  0.00  0.00    +0.198 C 
ATOM      2  O   UNL     1       2.211  -2.767   0.396  0.00  0.00    -0.286 OA
ENDROOT
BRANCH   1   7
ATOM      3  C   UNL     1      -0.031   1.367   0.144  0.00  0.00    +0.002 A 
ATOM      4  C   UNL     1       1.144   2.088   0.053  0.00  0.00    +0.017 A 
ATOM      5  C   UNL     1       2.367   1.424  -0.064  0.00  0.00    +0.026 A 
ATOM      6  C   UNL     1       2.400   0.032  -0.088  0.00  0.00    +0.028 A 
ATOM      7  C   UNL     1       1.212  -0.689   0.004  0.00  0.00    +0.024 A 
ATOM      8  C   UNL     1      -0.005  -0.013   0.120  0.00  0.00    +0.012 A 
BRANCH   5   9
ATOM      9  C   UNL     1       3.584   2.173  -0.159  0.00  0.00    -0.068 C 
ATOM     10  C   UNL     1       4.581   2.787  -0.237  0.00  0.00    -0.116 C 
BRANCH  10  11
ATOM     11  C   UNL     1       5.832   3.557  -0.334  0.00  0.00    +0.013 C 
BRANCH  11  12
ATOM     12  N   UNL     1       6.968   2.633  -0.448  0.00  0.00    +0.387 N 
ATOM     13  C   UNL     1       7.082   1.846   0.786  0.00  0.00    -0.078 C 
ATOM     14  C   UNL     1       8.213   0.825   0.642  0.00  0.00    -0.019 C 
ATOM     15  C   UNL     1       9.529   1.564   0.383  0.00  0.00    -0.004 C 
ATOM     16  C   UNL     1       9.375   2.439  -0.865  0.00  0.00    -0.019 C 
ATOM     17  C   UNL     1       8.201   3.399  -0.665  0.00  0.00    -0.078 C 
ATOM     18  H   UNL     1       6.818   2.011  -1.228  0.00  0.00    -0.080 HD
ENDBRANCH  11  12
ENDBRANCH  10  11
ENDBRANCH   5   9
ENDBRANCH   1   7
BRANCH   1  19
ATOM     19  C   UNL     1       0.091  -2.912  -0.551  0.00  0.00    +0.081 A 
ATOM     20  C   UNL     1      -1.053  -2.363  -1.180  0.00  0.00    +0.148 A 
ATOM     21  N   UNL     1      -1.846  -3.343  -1.510  0.00  0.00    -0.172 NA
ATOM     22  N   UNL     1      -1.270  -4.556  -1.120  0.00  0.00    -0.218 N 
ATOM     23  C   UNL     1      -0.079  -4.298  -0.537  0.00  0.00    +0.131 A 
BRANCH  22  24
ATOM     24  C   UNL     1      -1.832  -5.827  -1.307  0.00  0.00    +0.068 A 
ATOM     25  C   UNL     1      -1.013  -6.917  -1.573  0.00  0.00    +0.030 A 
ATOM     26  C   UNL     1      -1.568  -8.168  -1.758  0.00  0.00    +0.040 A 
ATOM     27  C   UNL     1      -2.940  -8.336  -1.678  0.00  0.00    +0.124 A 
ATOM     28  C   UNL     1      -3.759  -7.251  -1.413  0.00  0.00    +0.040 A 
ATOM     29  C   UNL     1      -3.207  -5.999  -1.221  0.00  0.00    +0.030 A 
ATOM     30  F   UNL     1      -3.481  -9.561  -1.859  0.00  0.00    -0.205 F 
ENDBRANCH  22  24
BRANCH  23  31
ATOM     31  N   UNL     1       0.801  -5.226  -0.022  0.00  0.00    -0.342 N 
ATOM     32  H   UNL     1       1.634  -4.934   0.380  0.00  0.00    +0.144 HD
ATOM     33  H   UNL     1       0.587  -6.171  -0.063  0.00  0.00    +0.144 HD
ENDBRANCH  23  31
ENDBRANCH   1  19
TORSDOF 7
