REMARK  Name = CHEMBL576985
REMARK  7 active torsions:
REMARK  status: ('A' for Active; 'I' for Inactive)
REMARK    1  A    between atoms: C_1  and  C_2
REMARK    2  A    between atoms: C_7  and  C_8
REMARK    3  A    between atoms: N_18  and  C_19
REMARK    4  A    between atoms: C_23  and  N_24
REMARK    5  A    between atoms: N_24  and  C_25
REMARK    6  A    between atoms: C_34  and  C_35
REMARK    7  A    between atoms: C_34  and  C_36
REMARK                            x       y       z     vdW  Elec       q    Type
REMARK                         _______ _______ _______ _____ _____    ______ ____
ROOT
ATOM      1  C   UNL     1      -0.878   1.421   0.072  0.00  0.00    +0.044 C 
ATOM      2  C   UNL     1      -0.618  -0.063   0.047  0.00  0.00    -0.042 A 
ATOM      3  C   UNL     1      -0.661  -0.748  -1.162  0.00  0.00    +0.004 A 
ATOM      4  C   UNL     1      -0.431  -2.091  -1.221  0.00  0.00    +0.012 A 
ATOM      5  C   UNL     1      -0.144  -2.804  -0.049  0.00  0.00    +0.023 A 
ATOM      6  C   UNL     1      -0.096  -2.121   1.191  0.00  0.00    -0.005 A 
ATOM      7  C   UNL     1      -0.333  -0.730   1.228  0.00  0.00    -0.007 A 
ATOM      8  C   UNL     1       0.194  -2.861   2.350  0.00  0.00    +0.029 A 
ATOM      9  C   UNL     1       0.417  -4.200   2.237  0.00  0.00    +0.113 A 
ATOM     10  N   UNL     1       0.368  -4.824   1.068  0.00  0.00    -0.240 NA
ATOM     11  C   UNL     1       0.102  -4.196  -0.062  0.00  0.00    +0.131 A 
ENDROOT
BRANCH   7  12
ATOM     12  C   UNL     1      -0.283   0.006   2.511  0.00  0.00    -0.016 A 
ATOM     13  C   UNL     1       0.932   0.111   3.208  0.00  0.00    +0.010 A 
ATOM     14  C   UNL     1       1.006   0.781   4.388  0.00  0.00    +0.029 A 
ATOM     15  C   UNL     1      -0.144   1.380   4.927  0.00  0.00    +0.076 A 
ATOM     16  C   UNL     1      -1.377   1.280   4.231  0.00  0.00    +0.019 A 
ATOM     17  C   UNL     1      -1.434   0.591   3.014  0.00  0.00    +0.020 A 
ATOM     18  C   UNL     1      -2.515   1.891   4.794  0.00  0.00    +0.124 A 
ATOM     19  N   UNL     1      -2.384   2.526   5.940  0.00  0.00    -0.222 NA
ATOM     20  C   UNL     1      -1.211   2.600   6.565  0.00  0.00    +0.215 A 
ATOM     21  N   UNL     1      -0.113   2.048   6.086  0.00  0.00    -0.215 NA
ATOM     22  N   UNL     1      -1.141   3.283   7.766  0.00  0.00    -0.317 N 
ATOM     23  C   UNL     1      -2.342   3.908   8.325  0.00  0.00    +0.128 C 
ATOM     24  H   UNL     1      -0.296   3.349   8.238  0.00  0.00    +0.149 HD
ENDBRANCH   7  12
BRANCH  11  25
ATOM     25  N   UNL     1       0.063  -4.898  -1.255  0.00  0.00    -0.299 N 
ATOM     26  H   UNL     1      -0.051  -4.423  -2.094  0.00  0.00    +0.154 HD
BRANCH  25  27
ATOM     27  C   UNL     1       0.188  -6.290  -1.251  0.00  0.00    +0.034 A 
ATOM     28  C   UNL     1      -0.394  -7.035  -0.232  0.00  0.00    +0.024 A 
ATOM     29  C   UNL     1      -0.269  -8.412  -0.232  0.00  0.00    +0.008 A 
ATOM     30  C   UNL     1       0.430  -9.040  -1.238  0.00  0.00    -0.012 A 
ATOM     31  C   UNL     1       1.018  -8.310  -2.264  0.00  0.00    +0.039 A 
ATOM     32  C   UNL     1       0.887  -6.923  -2.267  0.00  0.00    +0.047 A 
ATOM     33  N   UNL     1       1.665  -9.165  -3.156  0.00  0.00    -0.284 N 
ATOM     34  C   UNL     1       1.554 -10.455  -2.796  0.00  0.00    +0.227 C 
ATOM     35  O   UNL     1       2.016 -11.410  -3.384  0.00  0.00    -0.275 OA
ATOM     36  C   UNL     1       0.742 -10.493  -1.518  0.00  0.00    +0.068 C 
ATOM     37  C   UNL     1      -0.548 -11.288  -1.727  0.00  0.00    +0.025 C 
ATOM     38  C   UNL     1       1.566 -11.094  -0.378  0.00  0.00    +0.025 C 
ATOM     39  H   UNL     1       2.141  -8.864  -3.945  0.00  0.00    +0.155 HD
ENDBRANCH  25  27
ENDBRANCH  11  25
TORSDOF 3
