REMARK  Name = CHEMBL277409
REMARK  4 active torsions:
REMARK  status: ('A' for Active; 'I' for Inactive)
REMARK    1  A    between atoms: C_6  and  C_7
REMARK    2  A    between atoms: C_8  and  C_21
REMARK    3  A    between atoms: C_11  and  C_13
REMARK    4  A    between atoms: C_13  and  O_20
REMARK                            x       y       z     vdW  Elec       q    Type
REMARK                         _______ _______ _______ _____ _____    ______ ____
ROOT
ATOM      1  C   UNL     1      -1.265  -0.763   0.011  0.00  0.00    +0.074 A 
ATOM      2  C   UNL     1      -1.583  -1.856  -0.775  0.00  0.00    +0.097 A 
ATOM      3  N   UNL     1      -2.833  -2.239  -0.448  0.00  0.00    -0.229 NA
ATOM      4  H   UNL     1      -2.451   0.174   1.469  0.00  0.00    +0.167 HD
ATOM      5  C   UNL     1      -3.300  -1.454   0.483  0.00  0.00    +0.140 A 
ATOM      6  N   UNL     1      -2.362  -0.527   0.804  0.00  0.00    -0.339 N 
ENDROOT
BRANCH   1  12
ATOM      7  C   UNL     1      -0.017   1.392   0.010  0.00  0.00    +0.013 A 
ATOM      8  C   UNL     1       1.169   2.095   0.002  0.00  0.00    +0.039 A 
ATOM      9  C   UNL     1       2.379   1.419  -0.013  0.00  0.00    +0.123 A 
ATOM     10  C   UNL     1       2.404   0.033  -0.022  0.00  0.00    +0.039 A 
ATOM     11  C   UNL     1       1.224  -0.680  -0.014  0.00  0.00    +0.013 A 
ATOM     12  C   UNL     1       0.002  -0.004   0.002  0.00  0.00    +0.001 A 
ATOM     13  F   UNL     1       3.538   2.113  -0.021  0.00  0.00    -0.205 F 
ENDBRANCH   1  12
BRANCH   5  14
ATOM     14  C   UNL     1      -4.666  -1.564   1.109  0.00  0.00    +0.123 C 
ATOM     15  C   UNL     1      -5.486  -0.355   0.747  0.00  0.00    +0.043 C 
ATOM     16  C   UNL     1      -6.449   0.062   1.875  0.00  0.00    +0.003 C 
ATOM     17  C   UNL     1      -7.140  -1.140   2.547  0.00  0.00    +0.000 C 
ATOM     18  C   UNL     1      -7.582  -2.179   1.553  0.00  0.00    +0.000 C 
ATOM     19  C   UNL     1      -6.474  -3.247   1.435  0.00  0.00    +0.003 C 
ATOM     20  C   UNL     1      -5.382  -2.821   0.573  0.00  0.00    +0.043 C 
BRANCH  14  21
ATOM     21  O   UNL     1      -4.537  -1.654   2.529  0.00  0.00    -0.381 OA
ATOM     22  H   UNL     1      -4.100  -0.892   2.934  0.00  0.00    +0.211 HD
ENDBRANCH  14  21
ENDBRANCH   5  14
BRANCH   2  23
ATOM     23  C   UNL     1      -0.711  -2.490  -1.788  0.00  0.00    +0.005 A 
ATOM     24  C   UNL     1       0.169  -1.723  -2.561  0.00  0.00    +0.030 A 
ATOM     25  C   UNL     1       0.963  -2.354  -3.494  0.00  0.00    +0.111 A 
ATOM     26  N   UNL     1       0.902  -3.662  -3.663  0.00  0.00    -0.263 NA
ATOM     27  C   UNL     1       0.087  -4.422  -2.956  0.00  0.00    +0.111 A 
ATOM     28  C   UNL     1      -0.738  -3.874  -1.997  0.00  0.00    +0.030 A 
ENDBRANCH   2  23
TORSDOF 4
