REMARK  Name = CHEMBL483192
REMARK  12 active torsions:
REMARK  status: ('A' for Active; 'I' for Inactive)
REMARK    1  A    between atoms: C_1  and  C_2
REMARK    2  A    between atoms: C_3  and  C_11
REMARK    3  A    between atoms: C_5  and  C_7
REMARK    4  A    between atoms: C_7  and  C_8
REMARK    5  A    between atoms: C_7  and  C_9
REMARK    6  A    between atoms: C_7  and  C_10
REMARK    7  A    between atoms: C_11  and  C_13
REMARK    8  A    between atoms: N_15  and  C_16
REMARK    9  A    between atoms: C_19  and  O_26
REMARK   10  A    between atoms: O_26  and  C_27
REMARK   11  A    between atoms: C_27  and  C_28
REMARK   12  A    between atoms: C_28  and  N_29
REMARK                            x       y       z     vdW  Elec       q    Type
REMARK                         _______ _______ _______ _____ _____    ______ ____
ROOT
ATOM      1  C   UNL     1      -6.051  -1.916  -0.201  0.00  0.00    +0.042 A 
ATOM      2  C   UNL     1      -5.751  -3.256  -0.077  0.00  0.00    +0.027 A 
ATOM      3  C   UNL     1      -6.750  -4.221  -0.163  0.00  0.00    +0.048 A 
ATOM      4  C   UNL     1      -8.062  -3.862  -0.375  0.00  0.00    +0.128 A 
ATOM      5  C   UNL     1      -8.402  -2.501  -0.506  0.00  0.00    +0.026 A 
ATOM      6  C   UNL     1      -7.388  -1.516  -0.412  0.00  0.00    +0.007 A 
ATOM      7  C   UNL     1      -7.730  -0.161  -0.537  0.00  0.00    +0.010 A 
ATOM      8  C   UNL     1      -9.030   0.191  -0.740  0.00  0.00    +0.001 A 
ATOM      9  C   UNL     1     -10.029  -0.777  -0.826  0.00  0.00    +0.001 A 
ATOM     10  C   UNL     1      -9.731  -2.101  -0.722  0.00  0.00    +0.012 A 
ENDROOT
BRANCH   1  13
ATOM     11  C   UNL     1      -3.807  -1.237  -0.584  0.00  0.00    +0.289 C 
ATOM     12  O   UNL     1      -3.553  -2.347  -1.005  0.00  0.00    -0.266 OA
ATOM     13  N   UNL     1      -5.038  -0.960  -0.112  0.00  0.00    -0.278 N 
ATOM     14  H   UNL     1      -5.221  -0.096   0.289  0.00  0.00    +0.155 HD
BRANCH  11  15
ATOM     15  C   UNL     1      -2.755  -0.180  -0.588  0.00  0.00    +0.251 C 
ATOM     16  O   UNL     1      -3.009   0.930  -0.166  0.00  0.00    -0.282 OA
BRANCH  15  19
ATOM     17  C   UNL     1      -0.316   1.817  -0.737  0.00  0.00    +0.087 C 
ATOM     18  C   UNL     1      -0.333   0.375  -1.176  0.00  0.00    +0.113 A 
ATOM     19  C   UNL     1      -1.413  -0.482  -1.101  0.00  0.00    +0.068 A 
ATOM     20  C   UNL     1      -0.933  -1.762  -1.647  0.00  0.00    +0.057 A 
ATOM     21  C   UNL     1       0.348  -1.562  -1.987  0.00  0.00    +0.111 A 
ATOM     22  O   UNL     1       0.692  -0.294  -1.709  0.00  0.00    -0.464 OA
BRANCH  21  23
ATOM     23  C   UNL     1       1.259  -2.598  -2.592  0.00  0.00    +0.020 C 
ATOM     24  C   UNL     1       0.673  -3.079  -3.921  0.00  0.00    +0.019 C 
ATOM     25  C   UNL     1       2.639  -1.984  -2.835  0.00  0.00    +0.019 C 
ATOM     26  C   UNL     1       1.390  -3.784  -1.634  0.00  0.00    +0.019 C 
ENDBRANCH  21  23
ENDBRANCH  15  19
ENDBRANCH  11  15
ENDBRANCH   1  13
BRANCH   4  27
ATOM     27  O   UNL     1      -9.025  -4.817  -0.457  0.00  0.00    -0.490 OA
BRANCH  27  28
ATOM     28  C   UNL     1      -8.605  -6.176  -0.316  0.00  0.00    +0.244 C 
BRANCH  28  29
ATOM     29  C   UNL     1      -9.819  -7.099  -0.436  0.00  0.00    +0.125 C 
BRANCH  29  30
ATOM     30  N   UNL     1     -10.393  -6.980  -1.783  0.00  0.00    -0.295 NA
ATOM     31  C   UNL     1     -11.696  -7.656  -1.862  0.00  0.00    +0.112 C 
ATOM     32  C   UNL     1     -12.285  -7.456  -3.262  0.00  0.00    +0.175 C 
ATOM     33  O   UNL     1     -11.360  -7.946  -4.237  0.00  0.00    -0.377 OA
ATOM     34  C   UNL     1     -10.081  -7.309  -4.188  0.00  0.00    +0.175 C 
ATOM     35  C   UNL     1      -9.470  -7.508  -2.798  0.00  0.00    +0.112 C 
ENDBRANCH  29  30
ENDBRANCH  28  29
ENDBRANCH  27  28
ENDBRANCH   4  27
TORSDOF 8
