REMARK  Name = CHEMBL184659
REMARK  10 active torsions:
REMARK  status: ('A' for Active; 'I' for Inactive)
REMARK    1  A    between atoms: C_1  and  C_2
REMARK    2  A    between atoms: C_5  and  N_29
REMARK    3  A    between atoms: C_7  and  N_8
REMARK    4  A    between atoms: C_12  and  O_21
REMARK    5  A    between atoms: C_13  and  O_19
REMARK    6  A    between atoms: O_19  and  C_20
REMARK    7  A    between atoms: O_21  and  C_22
REMARK    8  A    between atoms: C_22  and  C_23
REMARK    9  A    between atoms: C_23  and  N_24
REMARK   10  A    between atoms: C_30  and  C_32
REMARK                            x       y       z     vdW  Elec       q    Type
REMARK                         _______ _______ _______ _____ _____    ______ ____
ROOT
ATOM      1  C   UNL     1      -1.226   1.054   0.113  0.00  0.00    +0.045 C 
ATOM      2  C   UNL     1      -0.376  -0.166  -0.135  0.00  0.00    -0.029 A 
ATOM      3  C   UNL     1      -0.479  -0.846  -1.333  0.00  0.00    +0.007 A 
ATOM      4  C   UNL     1       0.297  -1.965  -1.565  0.00  0.00    +0.024 A 
ATOM      5  C   UNL     1       1.186  -2.409  -0.593  0.00  0.00    +0.035 A 
ATOM      6  C   UNL     1       1.292  -1.728   0.612  0.00  0.00    +0.046 A 
ATOM      7  C   UNL     1       0.514  -0.601   0.839  0.00  0.00    +0.037 A 
ENDROOT
BRANCH   7   8
ATOM      8  N   UNL     1       0.622   0.092   2.048  0.00  0.00    -0.299 N 
ATOM      9  C   UNL     1       1.123  -0.545   3.166  0.00  0.00    +0.134 A 
ATOM     10  C   UNL     1       1.367   0.172   4.362  0.00  0.00    +0.044 A 
ATOM     11  C   UNL     1       1.115   1.545   4.467  0.00  0.00    +0.062 A 
ATOM     12  C   UNL     1       1.367   2.191   5.644  0.00  0.00    +0.163 A 
ATOM     13  C   UNL     1       1.876   1.493   6.749  0.00  0.00    +0.164 A 
ATOM     14  C   UNL     1       2.132   0.143   6.671  0.00  0.00    +0.078 A 
ATOM     15  C   UNL     1       1.881  -0.539   5.474  0.00  0.00    +0.080 A 
ATOM     16  N   UNL     1       2.113  -1.855   5.346  0.00  0.00    -0.235 NA
ATOM     17  C   UNL     1       1.867  -2.467   4.213  0.00  0.00    +0.223 A 
ATOM     18  N   UNL     1       1.382  -1.846   3.150  0.00  0.00    -0.220 NA
ATOM     19  H   UNL     1       0.346   1.020   2.101  0.00  0.00    +0.154 HD
BRANCH  13  20
ATOM     20  O   UNL     1       2.119   2.158   7.909  0.00  0.00    -0.491 OA
ATOM     21  C   UNL     1       2.637   1.392   8.998  0.00  0.00    +0.277 C 
ENDBRANCH  13  20
BRANCH  12  22
ATOM     22  O   UNL     1       1.122   3.524   5.745  0.00  0.00    -0.490 OA
BRANCH  22  23
ATOM     23  C   UNL     1       0.605   4.179   4.585  0.00  0.00    +0.211 C 
BRANCH  23  24
ATOM     24  C   UNL     1       0.395   5.664   4.888  0.00  0.00    -0.037 C 
BRANCH  24  25
ATOM     25  N   UNL     1       1.694   6.299   5.145  0.00  0.00    +0.382 N 
ATOM     26  C   UNL     1       2.496   6.350   3.896  0.00  0.00    -0.079 C 
ATOM     27  C   UNL     1       3.510   7.489   4.172  0.00  0.00    -0.020 C 
ATOM     28  C   UNL     1       2.669   8.515   4.964  0.00  0.00    -0.020 C 
ATOM     29  C   UNL     1       1.501   7.707   5.557  0.00  0.00    -0.079 C 
ATOM     30  H   UNL     1       2.194   5.793   5.861  0.00  0.00    -0.082 HD
ENDBRANCH  24  25
ENDBRANCH  23  24
ENDBRANCH  22  23
ENDBRANCH  12  22
ENDBRANCH   7   8
BRANCH   5  31
ATOM     31  N   UNL     1       1.971  -3.542  -0.827  0.00  0.00    -0.281 N 
ATOM     32  C   UNL     1       2.517  -3.744  -2.043  0.00  0.00    +0.248 C 
ATOM     33  O   UNL     1       2.253  -2.990  -2.960  0.00  0.00    -0.270 OA
ATOM     34  H   UNL     1       2.124  -4.183  -0.115  0.00  0.00    +0.155 HD
BRANCH  32  35
ATOM     35  C   UNL     1       3.438  -4.883  -2.262  0.00  0.00    +0.042 A 
ATOM     36  C   UNL     1       3.750  -5.765  -1.220  0.00  0.00    +0.033 A 
ATOM     37  C   UNL     1       4.611  -6.814  -1.464  0.00  0.00    +0.113 A 
ATOM     38  N   UNL     1       5.142  -6.996  -2.658  0.00  0.00    -0.240 NA
ATOM     39  C   UNL     1       4.876  -6.188  -3.672  0.00  0.00    +0.122 A 
ATOM     40  C   UNL     1       4.013  -5.109  -3.513  0.00  0.00    +0.056 A 
ATOM     41  N   UNL     1       5.462  -6.423  -4.910  0.00  0.00    -0.311 N 
ATOM     42  C   UNL     1       6.198  -7.670  -5.176  0.00  0.00    +0.134 C 
ATOM     43  C   UNL     1       5.668  -8.276  -6.480  0.00  0.00    +0.178 C 
ATOM     44  O   UNL     1       5.706  -7.284  -7.509  0.00  0.00    -0.377 OA
ATOM     45  C   UNL     1       4.875  -6.149  -7.259  0.00  0.00    +0.178 C 
ATOM     46  C   UNL     1       5.360  -5.436  -5.997  0.00  0.00    +0.134 C 
ENDBRANCH  32  35
ENDBRANCH   5  31
TORSDOF 8
