REMARK  Name = CHEMBL521424
REMARK  6 active torsions:
REMARK  status: ('A' for Active; 'I' for Inactive)
REMARK    1  A    between atoms: C_3  and  C_10
REMARK    2  A    between atoms: C_5  and  C_7
REMARK    3  A    between atoms: C_10  and  N_11
REMARK    4  A    between atoms: C_14  and  C_26
REMARK    5  A    between atoms: C_15  and  C_16
REMARK    6  A    between atoms: N_22  and  C_23
REMARK                            x       y       z     vdW  Elec       q    Type
REMARK                         _______ _______ _______ _____ _____    ______ ____
ROOT
ATOM      1  N   UNL     1       4.329   2.566   1.258  0.00  0.00    -0.324 N 
ATOM      2  C   UNL     1       4.024   3.641   2.014  0.00  0.00    +0.200 A 
ATOM      3  N   UNL     1       4.515   3.485   3.213  0.00  0.00    -0.235 NA
ATOM      4  C   UNL     1       5.157   2.305   3.288  0.00  0.00    +0.098 A 
ATOM      5  C   UNL     1       5.046   1.696   2.049  0.00  0.00    +0.095 A 
ENDROOT
BRANCH   5   6
ATOM      6  C   UNL     1       5.589   0.383   1.657  0.00  0.00    +0.094 A 
ATOM      7  C   UNL     1       4.973  -0.369   0.647  0.00  0.00    +0.050 A 
ATOM      8  C   UNL     1       5.519  -1.593   0.313  0.00  0.00    +0.116 A 
ATOM      9  N   UNL     1       6.600  -2.018   0.952  0.00  0.00    -0.223 NA
ATOM     10  C   UNL     1       7.163  -1.286   1.903  0.00  0.00    +0.216 A 
ATOM     11  N   UNL     1       6.678  -0.106   2.252  0.00  0.00    -0.213 NA
ATOM     12  N   UNL     1       8.291  -1.768   2.544  0.00  0.00    -0.311 N 
ATOM     13  H   UNL     1       8.714  -1.244   3.242  0.00  0.00    +0.149 HD
BRANCH  12  14
ATOM     14  C   UNL     1       8.847  -3.071   2.168  0.00  0.00    +0.073 C 
ATOM     15  C   UNL     1      10.366  -3.173   2.017  0.00  0.00    +0.024 C 
ATOM     16  C   UNL     1       9.672  -3.816   3.219  0.00  0.00    +0.024 C 
ENDBRANCH  12  14
ENDBRANCH   5   6
BRANCH   4  17
ATOM     17  C   UNL     1       5.849   1.757   4.477  0.00  0.00    +0.003 A 
ATOM     18  C   UNL     1       5.840   0.384   4.720  0.00  0.00    +0.013 A 
ATOM     19  C   UNL     1       6.486  -0.122   5.829  0.00  0.00    +0.039 A 
ATOM     20  C   UNL     1       7.143   0.731   6.701  0.00  0.00    +0.123 A 
ATOM     21  C   UNL     1       7.154   2.096   6.464  0.00  0.00    +0.039 A 
ATOM     22  C   UNL     1       6.516   2.611   5.354  0.00  0.00    +0.013 A 
ATOM     23  F   UNL     1       7.774   0.231   7.785  0.00  0.00    -0.205 F 
ENDBRANCH   4  17
BRANCH   1  24
ATOM     24  C   UNL     1       3.959   2.359  -0.145  0.00  0.00    +0.158 C 
BRANCH  24  27
ATOM     25  C   UNL     1       3.490   5.784  -1.671  0.00  0.00    +0.001 A 
ATOM     26  C   UNL     1       4.083   4.636  -1.177  0.00  0.00    +0.005 A 
ATOM     27  C   UNL     1       3.304   3.606  -0.681  0.00  0.00    -0.027 A 
ATOM     28  C   UNL     1       1.929   3.718  -0.676  0.00  0.00    +0.018 A 
ATOM     29  C   UNL     1       1.324   4.874  -1.173  0.00  0.00    +0.037 A 
ATOM     30  C   UNL     1       2.116   5.909  -1.672  0.00  0.00    +0.013 A 
BRANCH  29  31
ATOM     31  C   UNL     1      -0.149   5.000  -1.171  0.00  0.00    +0.242 C 
ATOM     32  O   UNL     1      -0.836   4.097  -0.736  0.00  0.00    -0.270 OA
ATOM     33  N   UNL     1      -0.730   6.118  -1.651  0.00  0.00    -0.325 N 
ATOM     34  H   UNL     1      -0.181   6.839  -1.998  0.00  0.00    +0.145 HD
ATOM     35  H   UNL     1      -1.696   6.201  -1.650  0.00  0.00    +0.145 HD
ENDBRANCH  29  31
ENDBRANCH  24  27
ENDBRANCH   1  24
TORSDOF 6
