REMARK  Name = CHEMBL1089520
REMARK  5 active torsions:
REMARK  status: ('A' for Active; 'I' for Inactive)
REMARK    1  A    between atoms: C_6  and  C_7
REMARK    2  A    between atoms: C_8  and  C_23
REMARK    3  A    between atoms: C_9  and  C_13
REMARK    4  A    between atoms: N_16  and  S_19
REMARK    5  A    between atoms: S_19  and  N_22
REMARK                            x       y       z     vdW  Elec       q    Type
REMARK                         _______ _______ _______ _____ _____    ______ ____
ROOT
ATOM      1  C   UNL     1      -1.249  -0.804   0.061  0.00  0.00    +0.100 A 
ATOM      2  C   UNL     1      -1.542  -1.947  -0.726  0.00  0.00    +0.031 A 
ATOM      3  C   UNL     1      -2.841  -2.287  -0.486  0.00  0.00    +0.048 A 
ATOM      4  N   UNL     1      -3.341  -1.406   0.404  0.00  0.00    -0.280 N 
ATOM      5  H   UNL     1      -4.244  -1.408   0.756  0.00  0.00    +0.189 HD
ATOM      6  N   UNL     1      -2.333  -0.494   0.738  0.00  0.00    -0.173 NA
ENDROOT
BRANCH   1  12
ATOM      7  C   UNL     1       0.775   0.133  -1.052  0.00  0.00    +0.011 A 
ATOM      8  C   UNL     1       1.983   0.797  -0.996  0.00  0.00    +0.020 A 
ATOM      9  C   UNL     1       2.475   1.241   0.220  0.00  0.00    +0.041 A 
ATOM     10  C   UNL     1       1.758   1.022   1.384  0.00  0.00    +0.020 A 
ATOM     11  C   UNL     1       0.549   0.359   1.338  0.00  0.00    +0.011 A 
ATOM     12  C   UNL     1       0.050  -0.091   0.117  0.00  0.00    +0.003 A 
ATOM     13 CL   UNL     1       3.996   2.076   0.284  0.00  0.00    -0.084 Cl
ENDBRANCH   1  12
BRANCH   3  14
ATOM     14  C   UNL     1      -3.585  -3.441  -1.107  0.00  0.00    +0.040 C 
ATOM     15  C   UNL     1      -4.793  -2.911  -1.883  0.00  0.00    +0.027 C 
ATOM     16  C   UNL     1      -5.527  -4.084  -2.540  0.00  0.00    +0.111 C 
ATOM     17  N   UNL     1      -5.861  -5.073  -1.506  0.00  0.00    -0.167 NA
ATOM     18  C   UNL     1      -4.787  -5.581  -0.641  0.00  0.00    +0.111 C 
ATOM     19  C   UNL     1      -4.061  -4.391  -0.005  0.00  0.00    +0.027 C 
BRANCH  17  20
ATOM     20  S   UNL     1      -7.418  -5.604  -1.317  0.00  0.00    +0.095 S 
ATOM     21  O   UNL     1      -7.530  -6.064   0.023  0.00  0.00    -0.141 OA
ATOM     22  O   UNL     1      -8.260  -4.589  -1.847  0.00  0.00    -0.141 OA
BRANCH  20  23
ATOM     23  N   UNL     1      -7.604  -6.930  -2.290  0.00  0.00    -0.193 NA
ATOM     24  H   UNL     1      -6.861  -7.245  -2.829  0.00  0.00    +0.145 HD
ATOM     25  H   UNL     1      -8.457  -7.392  -2.322  0.00  0.00    +0.145 HD
ENDBRANCH  20  23
ENDBRANCH  17  20
ENDBRANCH   3  14
BRANCH   2  26
ATOM     26  C   UNL     1      -0.608  -2.644  -1.641  0.00  0.00    -0.011 A 
ATOM     27  C   UNL     1      -0.817  -2.636  -3.024  0.00  0.00    +0.028 A 
ATOM     28  C   UNL     1       0.077  -3.298  -3.840  0.00  0.00    +0.111 A 
ATOM     29  N   UNL     1       1.117  -3.931  -3.331  0.00  0.00    -0.263 NA
ATOM     30  C   UNL     1       1.351  -3.963  -2.033  0.00  0.00    +0.111 A 
ATOM     31  C   UNL     1       0.510  -3.323  -1.146  0.00  0.00    +0.028 A 
ENDBRANCH   2  26
TORSDOF 5
