REMARK  Name = CHEMBL281145
REMARK  5 active torsions:
REMARK  status: ('A' for Active; 'I' for Inactive)
REMARK    1  A    between atoms: C_1  and  N_2
REMARK    2  A    between atoms: C_5  and  C_8
REMARK    3  A    between atoms: C_5  and  O_27
REMARK    4  A    between atoms: C_11  and  C_21
REMARK    5  A    between atoms: C_12  and  C_14
REMARK                            x       y       z     vdW  Elec       q    Type
REMARK                         _______ _______ _______ _____ _____    ______ ____
ROOT
ATOM      1  C   UNL     1      -0.412  -4.104   0.944  0.00  0.00    +0.140 A 
ATOM      2  N   UNL     1       0.087  -4.938   1.881  0.00  0.00    -0.339 N 
ATOM      3  H   UNL     1       0.541  -4.678   2.698  0.00  0.00    +0.167 HD
ATOM      4  C   UNL     1      -0.165  -6.225   1.462  0.00  0.00    +0.074 A 
ATOM      5  C   UNL     1      -0.827  -6.112   0.252  0.00  0.00    +0.097 A 
ATOM      6  N   UNL     1      -0.957  -4.800  -0.014  0.00  0.00    -0.229 NA
ENDROOT
BRANCH   1  11
ATOM      7  C   UNL     1       0.513   1.353  -0.335  0.00  0.00    -0.096 C 
ATOM      8  N   UNL     1       0.401  -0.110  -0.274  0.00  0.00    +0.378 N 
ATOM      9  C   UNL     1      -1.013  -0.487  -0.156  0.00  0.00    -0.076 C 
ATOM     10  C   UNL     1      -1.141  -2.012  -0.174  0.00  0.00    +0.024 C 
ATOM     11  C   UNL     1      -0.355  -2.599   1.001  0.00  0.00    +0.120 C 
ATOM     12  C   UNL     1       1.103  -2.138   0.908  0.00  0.00    +0.024 C 
ATOM     13  C   UNL     1       1.148  -0.609   0.886  0.00  0.00    -0.076 C 
ATOM     14  H   UNL     1       0.784  -0.511  -1.117  0.00  0.00    -0.082 HD
BRANCH  11  15
ATOM     15  O   UNL     1      -0.922  -2.143   2.231  0.00  0.00    -0.381 OA
ATOM     16  H   UNL     1      -0.472  -2.478   3.019  0.00  0.00    +0.211 HD
ENDBRANCH  11  15
ENDBRANCH   1  11
BRANCH   5  17
ATOM     17  C   UNL     1      -1.310  -7.231  -0.591  0.00  0.00    +0.003 A 
ATOM     18  C   UNL     1      -1.932  -8.332  -0.003  0.00  0.00    +0.013 A 
ATOM     19  C   UNL     1      -2.380  -9.371  -0.793  0.00  0.00    +0.039 A 
ATOM     20  C   UNL     1      -2.212  -9.322  -2.167  0.00  0.00    +0.123 A 
ATOM     21  C   UNL     1      -1.594  -8.230  -2.756  0.00  0.00    +0.039 A 
ATOM     22  C   UNL     1      -1.149  -7.183  -1.976  0.00  0.00    +0.013 A 
ATOM     23  F   UNL     1      -2.651 -10.342  -2.936  0.00  0.00    -0.205 F 
ENDBRANCH   5  17
BRANCH   4  24
ATOM     24  C   UNL     1       0.198  -7.472   2.161  0.00  0.00    +0.003 A 
ATOM     25  C   UNL     1       0.815  -8.528   1.477  0.00  0.00    +0.030 A 
ATOM     26  C   UNL     1       1.137  -9.675   2.170  0.00  0.00    +0.111 A 
ATOM     27  N   UNL     1       0.871  -9.786   3.458  0.00  0.00    -0.263 NA
ATOM     28  C   UNL     1       0.290  -8.817   4.141  0.00  0.00    +0.111 A 
ATOM     29  C   UNL     1      -0.060  -7.632   3.529  0.00  0.00    +0.030 A 
ENDBRANCH   4  24
TORSDOF 4
