REMARK  Name = CHEMBL142523
REMARK  2 active torsions:
REMARK  status: ('A' for Active; 'I' for Inactive)
REMARK    1  A    between atoms: C_5  and  C_14
REMARK    2  A    between atoms: C_6  and  C_8
REMARK                            x       y       z     vdW  Elec       q    Type
REMARK                         _______ _______ _______ _____ _____    ______ ____
ROOT
ATOM      1  C   UNL     1       0.007   1.379   0.377  0.00  0.00    +0.023 A 
ATOM      2  C   UNL     1       1.192   2.081   0.248  0.00  0.00    +0.050 A 
ATOM      3  C   UNL     1       2.373   1.363   0.097  0.00  0.00    +0.154 A 
ATOM      4  C   UNL     1       2.313  -0.041   0.083  0.00  0.00    +0.117 A 
ATOM      5  C   UNL     1       3.704  -0.492  -0.088  0.00  0.00    +0.054 A 
ATOM      6  C   UNL     1       4.460   0.646  -0.160  0.00  0.00    +0.146 A 
ATOM      7  O   UNL     1       3.663   1.725  -0.049  0.00  0.00    -0.453 OA
ATOM      8  N   UNL     1       1.152  -0.671   0.210  0.00  0.00    -0.251 NA
ATOM      9  C   UNL     1       0.024  -0.007   0.354  0.00  0.00    +0.111 A 
ENDROOT
BRANCH   5  10
ATOM     10  C   UNL     1       4.186  -1.890  -0.166  0.00  0.00    -0.012 A 
ATOM     11  C   UNL     1       4.992  -2.410   0.847  0.00  0.00    +0.011 A 
ATOM     12  C   UNL     1       5.438  -3.713   0.770  0.00  0.00    +0.039 A 
ATOM     13  C   UNL     1       5.088  -4.505  -0.312  0.00  0.00    +0.123 A 
ATOM     14  C   UNL     1       4.289  -3.993  -1.321  0.00  0.00    +0.039 A 
ATOM     15  C   UNL     1       3.832  -2.693  -1.250  0.00  0.00    +0.011 A 
ATOM     16  F   UNL     1       5.528  -5.780  -0.383  0.00  0.00    -0.205 F 
ENDBRANCH   5  10
BRANCH   6  17
ATOM     17  C   UNL     1       5.925   0.684  -0.331  0.00  0.00    +0.021 A 
ATOM     18  C   UNL     1       6.557  -0.098  -1.307  0.00  0.00    +0.031 A 
ATOM     19  C   UNL     1       7.929  -0.031  -1.431  0.00  0.00    +0.111 A 
ATOM     20  N   UNL     1       8.643   0.755  -0.648  0.00  0.00    -0.263 NA
ATOM     21  C   UNL     1       8.089   1.508   0.283  0.00  0.00    +0.111 A 
ATOM     22  C   UNL     1       6.723   1.508   0.474  0.00  0.00    +0.031 A 
ENDBRANCH   6  17
TORSDOF 2
