REMARK  Name = CHEMBL101035
REMARK  12 active torsions:
REMARK  status: ('A' for Active; 'I' for Inactive)
REMARK    1  A    between atoms: C_1  and  C_2
REMARK    2  A    between atoms: C_5  and  N_8
REMARK    3  A    between atoms: C_9  and  N_17
REMARK    4  A    between atoms: C_11  and  C_13
REMARK    5  A    between atoms: C_13  and  C_14
REMARK    6  A    between atoms: C_13  and  C_15
REMARK    7  A    between atoms: C_13  and  C_16
REMARK    8  A    between atoms: N_20  and  C_21
REMARK    9  A    between atoms: C_24  and  O_27
REMARK   10  A    between atoms: O_27  and  C_28
REMARK   11  A    between atoms: C_28  and  C_29
REMARK   12  A    between atoms: C_29  and  N_30
REMARK                            x       y       z     vdW  Elec       q    Type
REMARK                         _______ _______ _______ _____ _____    ______ ____
ROOT
ATOM      1  N   UNL     1       1.615  -5.343   1.425  0.00  0.00    -0.254 N 
ATOM      2  C   UNL     1       2.207  -6.148   2.330  0.00  0.00    +0.309 C 
ATOM      3  O   UNL     1       2.181  -7.355   2.179  0.00  0.00    -0.252 OA
ATOM      4  N   UNL     1       2.827  -5.617   3.402  0.00  0.00    -0.269 N 
ATOM      5  H   UNL     1       1.635  -4.381   1.546  0.00  0.00    +0.158 HD
ATOM      6  H   UNL     1       2.906  -4.654   3.488  0.00  0.00    +0.156 HD
ENDROOT
BRANCH   4   7
ATOM      7  C   UNL     1       3.357  -6.455   4.392  0.00  0.00    +0.035 A 
ATOM      8  C   UNL     1       3.921  -7.674   4.041  0.00  0.00    +0.027 A 
ATOM      9  C   UNL     1       4.443  -8.499   5.018  0.00  0.00    +0.047 A 
ATOM     10  C   UNL     1       4.404  -8.110   6.348  0.00  0.00    +0.121 A 
ATOM     11  C   UNL     1       3.840  -6.893   6.700  0.00  0.00    +0.047 A 
ATOM     12  C   UNL     1       3.323  -6.064   5.724  0.00  0.00    +0.027 A 
BRANCH  10  13
ATOM     13  O   UNL     1       4.918  -8.924   7.309  0.00  0.00    -0.494 OA
BRANCH  13  14
ATOM     14  C   UNL     1       4.845  -8.460   8.659  0.00  0.00    +0.210 C 
BRANCH  14  15
ATOM     15  C   UNL     1       5.469  -9.502   9.591  0.00  0.00    -0.037 C 
BRANCH  15  16
ATOM     16  N   UNL     1       6.896  -9.647   9.276  0.00  0.00    +0.385 N 
ATOM     17  C   UNL     1       7.464 -10.745  10.070  0.00  0.00    -0.050 C 
ATOM     18  C   UNL     1       8.951 -10.895   9.740  0.00  0.00    +0.141 C 
ATOM     19  O   UNL     1       9.619  -9.658  10.003  0.00  0.00    -0.383 OA
ATOM     20  C   UNL     1       9.086  -8.551   9.271  0.00  0.00    +0.141 C 
ATOM     21  C   UNL     1       7.599  -8.397   9.599  0.00  0.00    -0.050 C 
ATOM     22  H   UNL     1       7.006  -9.850   8.294  0.00  0.00    -0.081 HD
ENDBRANCH  15  16
ENDBRANCH  14  15
ENDBRANCH  13  14
ENDBRANCH  10  13
ENDBRANCH   4   7
BRANCH   1  24
ATOM     23  N   UNL     1       0.338  -5.205  -0.671  0.00  0.00    -0.218 N 
ATOM     24  C   UNL     1       0.974  -5.894   0.316  0.00  0.00    +0.130 A 
ATOM     25  C   UNL     1       0.868  -7.218   0.022  0.00  0.00    +0.069 A 
ATOM     26  C   UNL     1       0.152  -7.337  -1.173  0.00  0.00    +0.071 A 
ATOM     27  N   UNL     1      -0.170  -6.137  -1.584  0.00  0.00    -0.169 NA
BRANCH  23  32
ATOM     28  C   UNL     1      -0.180   0.436  -1.012  0.00  0.00    +0.044 C 
ATOM     29  C   UNL     1      -0.043  -1.061  -0.922  0.00  0.00    -0.050 A 
ATOM     30  C   UNL     1       0.101  -1.812  -2.074  0.00  0.00    +0.005 A 
ATOM     31  C   UNL     1       0.227  -3.185  -1.994  0.00  0.00    +0.028 A 
ATOM     32  C   UNL     1       0.211  -3.812  -0.755  0.00  0.00    +0.067 A 
ATOM     33  C   UNL     1       0.067  -3.055   0.400  0.00  0.00    +0.028 A 
ATOM     34  C   UNL     1      -0.054  -1.682   0.314  0.00  0.00    +0.005 A 
ENDBRANCH  23  32
BRANCH  26  35
ATOM     35  C   UNL     1      -0.197  -8.629  -1.866  0.00  0.00    +0.006 C 
ATOM     36  C   UNL     1      -1.332  -9.323  -1.111  0.00  0.00    +0.017 C 
ATOM     37  C   UNL     1      -0.643  -8.334  -3.299  0.00  0.00    +0.017 C 
ATOM     38  C   UNL     1       1.031  -9.541  -1.892  0.00  0.00    +0.017 C 
ENDBRANCH  26  35
ENDBRANCH   1  24
TORSDOF 8
