REMARK  Name = CHEMBL120185
REMARK  3 active torsions:
REMARK  status: ('A' for Active; 'I' for Inactive)
REMARK    1  A    between atoms: C_1  and  N_2
REMARK    2  A    between atoms: C_15  and  C_29
REMARK    3  A    between atoms: N_23  and  C_24
REMARK                            x       y       z     vdW  Elec       q    Type
REMARK                         _______ _______ _______ _____ _____    ______ ____
ROOT
ATOM      1  C   UNL     1       0.775   1.616   0.659  0.00  0.00    +0.105 C 
ATOM      2  N   UNL     1       0.657   0.158   0.528  0.00  0.00    -0.302 NA
ATOM      3  C   UNL     1      -0.747  -0.245   0.371  0.00  0.00    +0.103 C 
ATOM      4  C   UNL     1      -0.813  -1.743   0.057  0.00  0.00    +0.122 C 
ATOM      5  N   UNL     1      -0.070  -2.471   1.096  0.00  0.00    -0.313 N 
ATOM      6  C   UNL     1       1.300  -2.035   1.407  0.00  0.00    +0.122 C 
ATOM      7  C   UNL     1       1.283  -0.525   1.667  0.00  0.00    +0.103 C 
ATOM      8  C   UNL     1      -0.646  -3.544   1.768  0.00  0.00    +0.124 A 
ATOM      9  C   UNL     1      -1.938  -3.947   1.431  0.00  0.00    +0.046 A 
ATOM     10  C   UNL     1      -2.512  -5.014   2.097  0.00  0.00    +0.033 A 
ATOM     11  C   UNL     1      -1.771  -5.649   3.087  0.00  0.00    +0.094 A 
ATOM     12  C   UNL     1      -0.474  -5.196   3.381  0.00  0.00    +0.181 A 
ATOM     13  N   UNL     1       0.041  -4.166   2.708  0.00  0.00    -0.211 NA
ATOM     14  N   UNL     1       0.007  -5.981   4.367  0.00  0.00    -0.208 NA
ATOM     15  C   UNL     1      -0.888  -6.878   4.703  0.00  0.00    +0.149 A 
ATOM     16  N   UNL     1      -2.014  -6.716   3.936  0.00  0.00    -0.275 N 
ATOM     17  C   UNL     1      -3.178  -7.477   3.999  0.00  0.00    +0.145 A 
ATOM     18  C   UNL     1      -3.707  -8.058   2.847  0.00  0.00    +0.066 A 
ATOM     19  C   UNL     1      -4.864  -8.806   2.957  0.00  0.00    +0.118 A 
ATOM     20  N   UNL     1      -5.432  -8.949   4.145  0.00  0.00    -0.223 NA
ATOM     21  C   UNL     1      -4.907  -8.386   5.223  0.00  0.00    +0.217 A 
ATOM     22  N   UNL     1      -3.797  -7.666   5.159  0.00  0.00    -0.197 NA
ATOM     23  N   UNL     1      -5.530  -8.559   6.446  0.00  0.00    -0.311 N 
ATOM     24  H   UNL     1      -5.156  -8.152   7.243  0.00  0.00    +0.149 HD
ENDROOT
BRANCH  15  25
ATOM     25  C   UNL     1      -0.712  -7.908   5.747  0.00  0.00    +0.018 A 
ATOM     26  C   UNL     1      -1.494  -9.065   5.730  0.00  0.00    +0.014 A 
ATOM     27  C   UNL     1      -1.325 -10.023   6.707  0.00  0.00    +0.039 A 
ATOM     28  C   UNL     1      -0.381  -9.839   7.706  0.00  0.00    +0.123 A 
ATOM     29  C   UNL     1       0.398  -8.693   7.728  0.00  0.00    +0.039 A 
ATOM     30  C   UNL     1       0.241  -7.731   6.752  0.00  0.00    +0.014 A 
ATOM     31  F   UNL     1      -0.219 -10.781   8.661  0.00  0.00    -0.205 F 
ENDBRANCH  15  25
BRANCH  23  32
ATOM     32  C   UNL     1      -6.756  -9.356   6.537  0.00  0.00    +0.073 C 
ATOM     33  C   UNL     1      -7.987  -8.463   6.281  0.00  0.00    +0.022 C 
ATOM     34  C   UNL     1      -9.061  -9.008   7.256  0.00  0.00    +0.002 C 
ATOM     35  C   UNL     1      -8.232  -9.353   8.518  0.00  0.00    +0.002 C 
ATOM     36  C   UNL     1      -6.911  -9.922   7.960  0.00  0.00    +0.022 C 
ENDBRANCH  23  32
TORSDOF 2
