REMARK  Name = CHEMBL119849
REMARK  4 active torsions:
REMARK  status: ('A' for Active; 'I' for Inactive)
REMARK    1  A    between atoms: C_1  and  S_2
REMARK    2  A    between atoms: S_2  and  C_3
REMARK    3  A    between atoms: C_7  and  C_9
REMARK    4  A    between atoms: C_10  and  C_19
REMARK                            x       y       z     vdW  Elec       q    Type
REMARK                         _______ _______ _______ _____ _____    ______ ____
ROOT
ATOM      1  C   UNL     1      -3.678  -3.532   0.029  0.00  0.00    +0.101 A 
ATOM      2  C   UNL     1      -2.911  -4.588  -0.443  0.00  0.00    +0.101 A 
ATOM      3  N   UNL     1      -3.605  -5.717  -0.258  0.00  0.00    -0.210 NA
ATOM      4  C   UNL     1      -4.774  -5.438   0.306  0.00  0.00    +0.238 A 
ATOM      5  N   UNL     1      -4.851  -4.085   0.505  0.00  0.00    -0.281 N 
ATOM      6  C   UNL     1      -5.959  -3.533   1.081  0.00  0.00    +0.098 A 
ATOM      7  C   UNL     1      -6.979  -4.339   1.456  0.00  0.00    +0.061 A 
ATOM      8  C   UNL     1      -6.870  -5.729   1.243  0.00  0.00    +0.121 A 
ATOM      9  N   UNL     1      -5.788  -6.231   0.676  0.00  0.00    -0.197 NA
ATOM     10  N   UNL     1      -7.902  -6.566   1.620  0.00  0.00    -0.343 N 
ATOM     11  H   UNL     1      -8.700  -6.198   2.031  0.00  0.00    +0.144 HD
ATOM     12  H   UNL     1      -7.829  -7.522   1.474  0.00  0.00    +0.144 HD
ENDROOT
BRANCH   1  17
ATOM     13  C   UNL     1      -1.702  -0.454   0.016  0.00  0.00    +0.189 A 
ATOM     14  N   UNL     1      -2.622   0.502   0.024  0.00  0.00    -0.230 NA
ATOM     15  C   UNL     1      -3.914   0.207   0.034  0.00  0.00    +0.116 A 
ATOM     16  C   UNL     1      -4.306  -1.116   0.036  0.00  0.00    +0.050 A 
ATOM     17  C   UNL     1      -3.313  -2.108   0.027  0.00  0.00    +0.094 A 
ATOM     18  N   UNL     1      -2.030  -1.736   0.012  0.00  0.00    -0.220 NA
BRANCH  13  20
ATOM     19  C   UNL     1      -0.022   1.810   0.012  0.00  0.00    +0.093 C 
ATOM     20  S   UNL     1       0.002  -0.004   0.002  0.00  0.00    -0.089 S 
ENDBRANCH  13  20
ENDBRANCH   1  17
BRANCH   2  21
ATOM     21  C   UNL     1      -1.561  -4.484  -1.046  0.00  0.00    +0.003 A 
ATOM     22  C   UNL     1      -1.228  -3.379  -1.829  0.00  0.00    +0.010 A 
ATOM     23  C   UNL     1       0.031  -3.287  -2.387  0.00  0.00    +0.001 A 
ATOM     24  C   UNL     1       0.961  -4.288  -2.171  0.00  0.00    +0.000 A 
ATOM     25  C   UNL     1       0.636  -5.386  -1.395  0.00  0.00    +0.001 A 
ATOM     26  C   UNL     1      -0.617  -5.486  -0.827  0.00  0.00    +0.010 A 
ENDBRANCH   2  21
TORSDOF 3
