REMARK  Name = CHEMBL199986
REMARK  9 active torsions:
REMARK  status: ('A' for Active; 'I' for Inactive)
REMARK    1  A    between atoms: C_1  and  N_2
REMARK    2  A    between atoms: N_2  and  C_3
REMARK    3  A    between atoms: N_2  and  C_4
REMARK    4  A    between atoms: C_4  and  C_5
REMARK    5  A    between atoms: C_6  and  C_7
REMARK    6  A    between atoms: C_10  and  O_32
REMARK    7  A    between atoms: C_11  and  C_13
REMARK    8  A    between atoms: N_23  and  C_24
REMARK    9  A    between atoms: O_32  and  C_33
REMARK                            x       y       z     vdW  Elec       q    Type
REMARK                         _______ _______ _______ _____ _____    ______ ____
ROOT
ATOM      1  C   UNL     1      -3.784  -7.402  -0.484  0.00  0.00    +0.080 A 
ATOM      2  C   UNL     1      -4.191  -8.363   0.443  0.00  0.00    +0.064 A 
ATOM      3  C   UNL     1      -3.595  -9.034   1.523  0.00  0.00    +0.128 A 
ATOM      4  N   UNL     1      -4.315  -9.908   2.193  0.00  0.00    -0.222 NA
ATOM      5  C   UNL     1      -5.582 -10.175   1.880  0.00  0.00    +0.222 A 
ATOM      6  N   UNL     1      -6.220  -9.596   0.885  0.00  0.00    -0.193 NA
ATOM      7  C   UNL     1      -5.593  -8.681   0.123  0.00  0.00    +0.186 A 
ATOM      8  N   UNL     1      -5.926  -7.939  -0.912  0.00  0.00    -0.153 NA
ATOM      9  N   UNL     1      -4.835  -7.149  -1.290  0.00  0.00    -0.274 N 
ATOM     10  H   UNL     1      -4.833  -6.516  -2.025  0.00  0.00    +0.189 HD
ATOM     11  N   UNL     1      -6.262 -11.110   2.641  0.00  0.00    -0.281 N 
ATOM     12  H   UNL     1      -7.156 -11.386   2.384  0.00  0.00    +0.155 HD
ENDROOT
BRANCH  11  13
ATOM     13  C   UNL     1      -5.660 -11.658   3.780  0.00  0.00    +0.069 A 
ATOM     14  C   UNL     1      -4.825 -10.878   4.569  0.00  0.00    +0.029 A 
ATOM     15  C   UNL     1      -4.232 -11.420   5.692  0.00  0.00    +0.040 A 
ATOM     16  C   UNL     1      -4.470 -12.741   6.034  0.00  0.00    +0.126 A 
ATOM     17  C   UNL     1      -5.302 -13.522   5.250  0.00  0.00    +0.078 A 
ATOM     18  C   UNL     1      -5.903 -12.982   4.128  0.00  0.00    +0.147 A 
ATOM     19  F   UNL     1      -6.720 -13.743   3.366  0.00  0.00    -0.203 F 
ATOM     20  F   UNL     1      -3.889 -13.268   7.134  0.00  0.00    -0.205 F 
ENDBRANCH  11  13
BRANCH   1  25
ATOM     21  C   UNL     1      -1.046  -4.823  -0.397  0.00  0.00    +0.026 A 
ATOM     22  C   UNL     1       0.068  -5.603  -0.717  0.00  0.00    +0.020 A 
ATOM     23  C   UNL     1      -0.076  -6.954  -0.957  0.00  0.00    +0.047 A 
ATOM     24  C   UNL     1      -1.327  -7.547  -0.883  0.00  0.00    +0.129 A 
ATOM     25  C   UNL     1      -2.452  -6.774  -0.563  0.00  0.00    +0.043 A 
ATOM     26  C   UNL     1      -2.307  -5.409  -0.315  0.00  0.00    +0.030 A 
BRANCH  21  28
ATOM     27  C   UNL     1      -0.764  -2.272   0.056  0.00  0.00    -0.116 C 
ATOM     28  C   UNL     1      -0.891  -3.421  -0.148  0.00  0.00    -0.068 C 
BRANCH  27  29
ATOM     29  C   UNL     1      -0.605  -0.831   0.311  0.00  0.00    +0.012 C 
BRANCH  29  31
ATOM     30  C   UNL     1       0.951   0.995   0.300  0.00  0.00    -0.095 C 
ATOM     31  N   UNL     1       0.809  -0.461   0.163  0.00  0.00    +0.383 N 
ATOM     32  C   UNL     1       1.603  -1.130   1.202  0.00  0.00    -0.095 C 
ATOM     33  H   UNL     1       1.138  -0.747  -0.747  0.00  0.00    -0.081 HD
ENDBRANCH  29  31
ENDBRANCH  27  29
ENDBRANCH  21  28
BRANCH  24  34
ATOM     34  O   UNL     1      -1.463  -8.877  -1.121  0.00  0.00    -0.494 OA
ATOM     35  C   UNL     1      -0.275  -9.603  -1.443  0.00  0.00    +0.277 C 
ENDBRANCH  24  34
ENDBRANCH   1  25
TORSDOF 6
