REMARK  Name = CHEMBL1087650
REMARK  6 active torsions:
REMARK  status: ('A' for Active; 'I' for Inactive)
REMARK    1  A    between atoms: C_1  and  N_2
REMARK    2  A    between atoms: N_10  and  C_11
REMARK    3  A    between atoms: C_14  and  C_17
REMARK    4  A    between atoms: C_24  and  C_33
REMARK    5  A    between atoms: C_25  and  C_26
REMARK    6  A    between atoms: C_30  and  O_32
REMARK                            x       y       z     vdW  Elec       q    Type
REMARK                         _______ _______ _______ _____ _____    ______ ____
ROOT
ATOM      1  C   UNL     1      -2.386  -8.083   0.687  0.00  0.00    +0.076 A 
ATOM      2  C   UNL     1      -3.248  -8.584  -0.269  0.00  0.00    +0.048 A 
ATOM      3  C   UNL     1      -3.721  -9.891  -0.140  0.00  0.00    +0.115 A 
ATOM      4  N   UNL     1      -3.349 -10.635   0.878  0.00  0.00    -0.236 NA
ATOM      5  C   UNL     1      -2.516 -10.168   1.813  0.00  0.00    +0.164 A 
ATOM      6  N   UNL     1      -2.017  -8.893   1.734  0.00  0.00    -0.213 N 
ATOM      7  N   UNL     1      -1.177  -8.685   2.833  0.00  0.00    -0.164 NA
ATOM      8  C   UNL     1      -1.144  -9.781   3.567  0.00  0.00    +0.103 A 
ATOM      9  C   UNL     1      -1.980 -10.745   2.970  0.00  0.00    +0.054 A 
ENDROOT
BRANCH   1  13
ATOM     10  C   UNL     1      -0.891  -4.119   0.389  0.00  0.00    +0.030 A 
ATOM     11  C   UNL     1      -2.251  -4.334   0.590  0.00  0.00    +0.024 A 
ATOM     12  C   UNL     1      -2.739  -5.618   0.687  0.00  0.00    +0.012 A 
ATOM     13  C   UNL     1      -1.867  -6.705   0.584  0.00  0.00    +0.001 A 
ATOM     14  C   UNL     1      -0.502  -6.485   0.382  0.00  0.00    +0.012 A 
ATOM     15  C   UNL     1      -0.021  -5.199   0.281  0.00  0.00    +0.024 A 
BRANCH  10  23
ATOM     16  C   UNL     1       0.316   1.000  -1.355  0.00  0.00    -0.096 C 
ATOM     17  N   UNL     1       0.300  -0.458  -1.172  0.00  0.00    +0.382 N 
ATOM     18  C   UNL     1      -1.096  -0.942  -1.048  0.00  0.00    -0.056 C 
ATOM     19  C   UNL     1      -1.188  -1.553   0.384  0.00  0.00    +0.055 C 
ATOM     20  C   UNL     1      -0.189  -0.607   1.140  0.00  0.00    +0.007 C 
ATOM     21  C   UNL     1       0.979  -0.824   0.111  0.00  0.00    -0.050 C 
ATOM     22  C   UNL     1       1.018  -2.384   0.088  0.00  0.00    +0.090 C 
ATOM     23  N   UNL     1      -0.401  -2.818   0.291  0.00  0.00    -0.330 N 
ATOM     24  H   UNL     1       0.758  -0.911  -1.949  0.00  0.00    -0.082 HD
ENDBRANCH  10  23
ENDBRANCH   1  13
BRANCH   9  25
ATOM     25  C   UNL     1      -2.232 -12.117   3.464  0.00  0.00    -0.009 A 
ATOM     26  C   UNL     1      -2.927 -12.315   4.658  0.00  0.00    +0.009 A 
ATOM     27  C   UNL     1      -3.160 -13.595   5.117  0.00  0.00    +0.004 A 
ATOM     28  C   UNL     1      -2.707 -14.685   4.397  0.00  0.00    +0.045 A 
ATOM     29  C   UNL     1      -2.014 -14.498   3.208  0.00  0.00    +0.117 A 
ATOM     30  C   UNL     1      -1.780 -13.217   2.736  0.00  0.00    +0.054 A 
BRANCH  29  31
ATOM     31  O   UNL     1      -1.570 -15.573   2.505  0.00  0.00    -0.507 OA
ATOM     32  H   UNL     1      -2.203 -15.906   1.854  0.00  0.00    +0.292 HD
ENDBRANCH  29  31
ENDBRANCH   9  25
BRANCH   8  33
ATOM     33  C   UNL     1      -0.366  -9.964   4.816  0.00  0.00    +0.006 A 
ATOM     34  C   UNL     1       0.310 -11.161   5.072  0.00  0.00    +0.030 A 
ATOM     35  C   UNL     1       1.021 -11.289   6.248  0.00  0.00    +0.111 A 
ATOM     36  N   UNL     1       1.068 -10.302   7.122  0.00  0.00    -0.263 NA
ATOM     37  C   UNL     1       0.445  -9.157   6.918  0.00  0.00    +0.111 A 
ATOM     38  C   UNL     1      -0.285  -8.943   5.767  0.00  0.00    +0.030 A 
ENDBRANCH   8  33
TORSDOF 5
