REMARK  Name = CHEMBL494879
REMARK  5 active torsions:
REMARK  status: ('A' for Active; 'I' for Inactive)
REMARK    1  A    between atoms: C_1  and  S_2
REMARK    2  A    between atoms: S_2  and  C_3
REMARK    3  A    between atoms: C_6  and  C_16
REMARK    4  A    between atoms: C_7  and  C_9
REMARK    5  A    between atoms: N_22  and  C_23
REMARK                            x       y       z     vdW  Elec       q    Type
REMARK                         _______ _______ _______ _____ _____    ______ ____
ROOT
ATOM      1  C   UNL     1       2.198  -2.648  -4.030  0.00  0.00    +0.005 A 
ATOM      2  C   UNL     1       3.442  -2.590  -4.679  0.00  0.00    +0.030 A 
ATOM      3  C   UNL     1       3.823  -3.635  -5.490  0.00  0.00    +0.113 A 
ATOM      4  N   UNL     1       3.039  -4.683  -5.665  0.00  0.00    -0.240 NA
ATOM      5  C   UNL     1       1.857  -4.782  -5.073  0.00  0.00    +0.120 A 
ATOM      6  C   UNL     1       1.397  -3.777  -4.235  0.00  0.00    +0.053 A 
ATOM      7  N   UNL     1       1.071  -5.908  -5.292  0.00  0.00    -0.322 N 
ATOM      8  H   UNL     1       1.388  -6.616  -5.874  0.00  0.00    +0.148 HD
ENDROOT
BRANCH   7   9
ATOM      9  C   UNL     1      -0.237  -6.026  -4.642  0.00  0.00    +0.102 C 
ATOM     10  C   UNL     1      -0.593  -7.503  -4.489  0.00  0.00    +0.027 C 
ATOM     11  C   UNL     1      -2.046  -7.604  -4.012  0.00  0.00    +0.007 C 
ATOM     12  C   UNL     1      -2.960  -7.172  -5.157  0.00  0.00    +0.035 C 
ATOM     13  C   UNL     1      -2.523  -5.841  -5.709  0.00  0.00    -0.042 A 
ATOM     14  C   UNL     1      -1.272  -5.316  -5.476  0.00  0.00    -0.024 A 
ATOM     15  C   UNL     1      -0.930  -4.085  -6.020  0.00  0.00    +0.006 A 
ATOM     16  C   UNL     1      -1.835  -3.383  -6.789  0.00  0.00    +0.000 A 
ATOM     17  C   UNL     1      -3.092  -3.908  -7.020  0.00  0.00    +0.000 A 
ATOM     18  C   UNL     1      -3.433  -5.131  -6.482  0.00  0.00    +0.004 A 
ENDBRANCH   7   9
BRANCH   1  22
ATOM     19  C   UNL     1       0.946  -0.413  -1.440  0.00  0.00    +0.167 A 
ATOM     20  N   UNL     1       1.217  -1.671  -1.881  0.00  0.00    -0.332 N 
ATOM     21  H   UNL     1       1.064  -2.497  -1.396  0.00  0.00    +0.168 HD
ATOM     22  C   UNL     1       1.751  -1.552  -3.152  0.00  0.00    +0.075 A 
ATOM     23  C   UNL     1       1.782  -0.199  -3.434  0.00  0.00    +0.098 A 
ATOM     24  N   UNL     1       1.279   0.453  -2.369  0.00  0.00    -0.221 NA
BRANCH  23  25
ATOM     25  C   UNL     1       2.275   0.422  -4.685  0.00  0.00    +0.003 A 
ATOM     26  C   UNL     1       1.940  -0.132  -5.921  0.00  0.00    +0.013 A 
ATOM     27  C   UNL     1       2.401   0.450  -7.083  0.00  0.00    +0.039 A 
ATOM     28  C   UNL     1       3.197   1.582  -7.025  0.00  0.00    +0.123 A 
ATOM     29  C   UNL     1       3.533   2.136  -5.800  0.00  0.00    +0.039 A 
ATOM     30  C   UNL     1       3.071   1.566  -4.632  0.00  0.00    +0.013 A 
ATOM     31  F   UNL     1       3.648   2.148  -8.166  0.00  0.00    -0.205 F 
ENDBRANCH  23  25
BRANCH  19  33
ATOM     32  C   UNL     1       0.132   1.801   0.103  0.00  0.00    +0.093 C 
ATOM     33  S   UNL     1       0.250  -0.009   0.128  0.00  0.00    -0.091 S 
ENDBRANCH  19  33
ENDBRANCH   1  22
TORSDOF 4
