REMARK  Name = CHEMBL329792
REMARK  5 active torsions:
REMARK  status: ('A' for Active; 'I' for Inactive)
REMARK    1  A    between atoms: C_4  and  N_8
REMARK    2  A    between atoms: C_11  and  O_28
REMARK    3  A    between atoms: C_12  and  S_19
REMARK    4  A    between atoms: S_19  and  C_20
REMARK    5  A    between atoms: O_28  and  C_29
REMARK                            x       y       z     vdW  Elec       q    Type
REMARK                         _______ _______ _______ _____ _____    ______ ____
ROOT
ATOM      1  N   UNL     1       3.283  -1.105  -0.105  0.00  0.00    -0.220 N 
ATOM      2  C   UNL     1       3.941  -1.318  -1.320  0.00  0.00    +0.069 A 
ATOM      3  C   UNL     1       3.379  -0.886  -2.519  0.00  0.00    +0.074 A 
ATOM      4  C   UNL     1       4.076  -1.123  -3.694  0.00  0.00    +0.155 A 
ATOM      5  C   UNL     1       5.306  -1.781  -3.636  0.00  0.00    +0.144 A 
ATOM      6  N   UNL     1       5.807  -2.176  -2.475  0.00  0.00    -0.238 NA
ATOM      7  C   UNL     1       5.169  -1.965  -1.343  0.00  0.00    +0.082 A 
ATOM      8  C   UNL     1       5.751  -2.421  -0.024  0.00  0.00    +0.163 C 
ATOM      9  N   UNL     1       4.963  -2.139   1.188  0.00  0.00    -0.293 N 
ATOM     10  C   UNL     1       3.786  -1.497   1.073  0.00  0.00    +0.311 C 
ATOM     11  O   UNL     1       3.149  -1.268   2.082  0.00  0.00    -0.252 OA
ATOM     12  H   UNL     1       5.290  -2.410   2.059  0.00  0.00    +0.151 HD
ENDROOT
BRANCH   1  16
ATOM     13  C   UNL     1      -0.400   0.850  -0.149  0.00  0.00    +0.003 A 
ATOM     14  C   UNL     1       0.768   1.581  -0.029  0.00  0.00    +0.022 A 
ATOM     15  C   UNL     1       1.990   0.936  -0.014  0.00  0.00    +0.064 A 
ATOM     16  C   UNL     1       2.045  -0.448  -0.119  0.00  0.00    +0.079 A 
ATOM     17  C   UNL     1       0.870  -1.180  -0.240  0.00  0.00    +0.064 A 
ATOM     18  C   UNL     1      -0.349  -0.528  -0.255  0.00  0.00    +0.022 A 
ATOM     19 CL   UNL     1       0.933  -2.909  -0.372  0.00  0.00    -0.082 Cl
ATOM     20 CL   UNL     1       3.456   1.855   0.136  0.00  0.00    -0.082 Cl
ENDBRANCH   1  16
BRANCH   5  21
ATOM     21  S   UNL     1       6.202  -2.088  -5.122  0.00  0.00    -0.063 S 
BRANCH  21  22
ATOM     22  C   UNL     1       7.584  -3.046  -4.596  0.00  0.00    +0.050 A 
ATOM     23  C   UNL     1       7.614  -4.414  -4.834  0.00  0.00    +0.021 A 
ATOM     24  C   UNL     1       8.698  -5.163  -4.421  0.00  0.00    +0.039 A 
ATOM     25  C   UNL     1       9.757  -4.551  -3.771  0.00  0.00    +0.126 A 
ATOM     26  C   UNL     1       9.732  -3.188  -3.531  0.00  0.00    +0.077 A 
ATOM     27  C   UNL     1       8.651  -2.432  -3.947  0.00  0.00    +0.140 A 
ATOM     28  F   UNL     1       8.628  -1.101  -3.719  0.00  0.00    -0.204 F 
ATOM     29  F   UNL     1      10.816  -5.287  -3.368  0.00  0.00    -0.205 F 
ENDBRANCH  21  22
ENDBRANCH   5  21
BRANCH   4  30
ATOM     30  O   UNL     1       3.567  -0.720  -4.889  0.00  0.00    -0.486 OA
BRANCH  30  31
ATOM     31  C   UNL     1       2.252  -0.163  -4.879  0.00  0.00    +0.170 C 
ATOM     32  C   UNL     1       2.332   1.332  -4.556  0.00  0.00    +0.025 C 
ATOM     33  C   UNL     1       0.929   1.939  -4.625  0.00  0.00    -0.079 C 
ATOM     34  N   UNL     1       0.379   1.757  -5.974  0.00  0.00    +0.379 N 
ATOM     35  C   UNL     1       0.232   0.325  -6.263  0.00  0.00    -0.079 C 
ATOM     36  C   UNL     1       1.608  -0.344  -6.257  0.00  0.00    +0.025 C 
ATOM     37  H   UNL     1      -0.524   2.205  -6.031  0.00  0.00    -0.086 HD
ATOM     38  H   UNL     1       1.002   2.173  -6.649  0.00  0.00    -0.086 HD
ENDBRANCH  30  31
ENDBRANCH   4  30
TORSDOF 5
