REMARK  Name = CHEMBL1171612
REMARK  5 active torsions:
REMARK  status: ('A' for Active; 'I' for Inactive)
REMARK    1  A    between atoms: C_5  and  C_7
REMARK    2  A    between atoms: C_7  and  C_9
REMARK    3  A    between atoms: C_11  and  C_15
REMARK    4  A    between atoms: N_17  and  C_18
REMARK    5  A    between atoms: C_18  and  C_19
REMARK                            x       y       z     vdW  Elec       q    Type
REMARK                         _______ _______ _______ _____ _____    ______ ____
ROOT
ATOM      1  C   UNL     1      -0.005  -2.921   0.098  0.00  0.00    +0.040 A 
ATOM      2  C   UNL     1      -0.130  -4.325   0.209  0.00  0.00    +0.044 A 
ATOM      3  C   UNL     1      -1.462  -4.601   0.297  0.00  0.00    +0.102 A 
ATOM      4  N   UNL     1      -2.156  -3.412   0.243  0.00  0.00    -0.356 N 
ATOM      5  H   UNL     1      -3.121  -3.322   0.284  0.00  0.00    +0.165 HD
ATOM      6  C   UNL     1      -1.285  -2.396   0.128  0.00  0.00    +0.095 A 
ENDROOT
BRANCH   3   7
ATOM      7  C   UNL     1      -2.056  -5.937   0.427  0.00  0.00    +0.261 C 
ATOM      8  O   UNL     1      -1.339  -6.920   0.465  0.00  0.00    -0.269 OA
ATOM      9  N   UNL     1      -3.394  -6.076   0.505  0.00  0.00    -0.306 N 
ATOM     10  H   UNL     1      -3.965  -5.292   0.475  0.00  0.00    +0.149 HD
BRANCH   9  11
ATOM     11  C   UNL     1      -3.986  -7.409   0.635  0.00  0.00    +0.145 C 
BRANCH  11  12
ATOM     12  C   UNL     1      -5.487  -7.288   0.701  0.00  0.00    +0.040 A 
ATOM     13  C   UNL     1      -6.116  -7.137   1.925  0.00  0.00    +0.131 A 
ATOM     14  C   UNL     1      -7.495  -7.025   1.985  0.00  0.00    +0.039 A 
ATOM     15  C   UNL     1      -8.243  -7.065   0.823  0.00  0.00    +0.006 A 
ATOM     16  C   UNL     1      -7.616  -7.216  -0.399  0.00  0.00    +0.039 A 
ATOM     17  C   UNL     1      -6.237  -7.322  -0.462  0.00  0.00    +0.131 A 
ATOM     18  F   UNL     1      -5.624  -7.463  -1.657  0.00  0.00    -0.205 F 
ATOM     19  F   UNL     1      -5.385  -7.098   3.061  0.00  0.00    -0.205 F 
ENDBRANCH  11  12
ENDBRANCH   9  11
ENDBRANCH   3   7
BRANCH   1  20
ATOM     20  C   UNL     1       1.250  -2.160  -0.022  0.00  0.00    +0.197 C 
ATOM     21  O   UNL     1       2.309  -2.748  -0.133  0.00  0.00    -0.287 OA
BRANCH  20  26
ATOM     22  C   UNL     1       1.369   1.412  -1.171  0.00  0.00    +0.001 A 
ATOM     23  C   UNL     1       1.174   2.087   0.022  0.00  0.00    +0.003 A 
ATOM     24  C   UNL     1       1.003   1.386   1.201  0.00  0.00    +0.039 A 
ATOM     25  C   UNL     1       1.027   0.004   1.196  0.00  0.00    +0.134 A 
ATOM     26  C   UNL     1       1.224  -0.683  -0.007  0.00  0.00    +0.057 A 
ATOM     27  C   UNL     1       1.395   0.034  -1.193  0.00  0.00    +0.014 A 
ATOM     28  F   UNL     1       0.861  -0.681   2.349  0.00  0.00    -0.205 F 
ENDBRANCH  20  26
ENDBRANCH   1  20
TORSDOF 5
