REMARK  Name = CHEMBL193247
REMARK  5 active torsions:
REMARK  status: ('A' for Active; 'I' for Inactive)
REMARK    1  A    between atoms: C_4  and  C_7
REMARK    2  A    between atoms: C_8  and  C_21
REMARK    3  A    between atoms: C_11  and  C_13
REMARK    4  A    between atoms: N_27  and  S_31
REMARK    5  A    between atoms: S_31  and  C_34
REMARK                            x       y       z     vdW  Elec       q    Type
REMARK                         _______ _______ _______ _____ _____    ______ ____
ROOT
ATOM      1  C   UNL     1       3.694  -0.682  -0.038  0.00  0.00    +0.074 A 
ATOM      2  C   UNL     1       4.046  -1.775   0.736  0.00  0.00    +0.097 A 
ATOM      3  N   UNL     1       5.303  -2.119   0.411  0.00  0.00    -0.227 NA
ATOM      4  H   UNL     1       4.850   0.309  -1.490  0.00  0.00    +0.167 HD
ATOM      5  C   UNL     1       5.755  -1.307  -0.518  0.00  0.00    +0.145 A 
ATOM      6  N   UNL     1       4.784  -0.401  -0.832  0.00  0.00    -0.337 N 
ENDROOT
BRANCH   2   7
ATOM      7  C   UNL     1       3.190  -2.444   1.743  0.00  0.00    +0.005 A 
ATOM      8  C   UNL     1       2.295  -1.690   2.510  0.00  0.00    +0.012 A 
ATOM      9  C   UNL     1       1.501  -2.295   3.440  0.00  0.00    +0.030 A 
ATOM     10  C   UNL     1       1.577  -3.678   3.634  0.00  0.00    +0.093 A 
ATOM     11  C   UNL     1       2.475  -4.440   2.867  0.00  0.00    +0.094 A 
ATOM     12  C   UNL     1       3.274  -3.822   1.920  0.00  0.00    +0.040 A 
ATOM     13  N   UNL     1       2.320  -5.753   3.284  0.00  0.00    -0.183 N 
ATOM     14  C   UNL     1       1.365  -5.757   4.260  0.00  0.00    +0.214 A 
ATOM     15  N   UNL     1       0.931  -4.538   4.464  0.00  0.00    -0.213 NA
ATOM     16  N   UNL     1       0.924  -6.877   4.931  0.00  0.00    -0.328 N 
ATOM     17  H   UNL     1       1.297  -7.747   4.721  0.00  0.00    +0.145 HD
ATOM     18  H   UNL     1       0.240  -6.795   5.615  0.00  0.00    +0.145 HD
BRANCH  13  19
ATOM     19  S   UNL     1       3.139  -7.070   2.705  0.00  0.00    +0.060 S 
ATOM     20  O   UNL     1       2.270  -8.170   2.940  0.00  0.00    -0.152 OA
ATOM     21  O   UNL     1       3.514  -6.713   1.382  0.00  0.00    -0.152 OA
BRANCH  19  22
ATOM     22  C   UNL     1       4.612  -7.202   3.757  0.00  0.00    +0.154 C 
ATOM     23  C   UNL     1       5.430  -5.896   3.687  0.00  0.00    +0.028 C 
ATOM     24  C   UNL     1       6.904  -6.369   3.728  0.00  0.00    +0.002 C 
ATOM     25  C   UNL     1       6.873  -7.661   2.874  0.00  0.00    +0.002 C 
ATOM     26  C   UNL     1       5.529  -8.324   3.240  0.00  0.00    +0.028 C 
ENDBRANCH  19  22
ENDBRANCH  13  19
ENDBRANCH   2   7
BRANCH   5  27
ATOM     27  C   UNL     1       7.098  -1.370  -1.130  0.00  0.00    +0.087 A 
ATOM     28  C   UNL     1       7.468  -0.444  -2.110  0.00  0.00    +0.137 A 
ATOM     29  C   UNL     1       8.726  -0.509  -2.678  0.00  0.00    +0.039 A 
ATOM     30  C   UNL     1       9.619  -1.487  -2.279  0.00  0.00    +0.006 A 
ATOM     31  C   UNL     1       9.261  -2.408  -1.311  0.00  0.00    +0.039 A 
ATOM     32  C   UNL     1       8.008  -2.352  -0.729  0.00  0.00    +0.137 A 
ATOM     33  F   UNL     1       7.662  -3.248   0.221  0.00  0.00    -0.205 F 
ATOM     34  F   UNL     1       6.597   0.513  -2.501  0.00  0.00    -0.205 F 
ENDBRANCH   5  27
BRANCH   1  38
ATOM     35  C   UNL     1      -0.017   1.380   0.010  0.00  0.00    +0.000 A 
ATOM     36  C   UNL     1       1.168   2.094   0.002  0.00  0.00    +0.001 A 
ATOM     37  C   UNL     1       2.377   1.431  -0.013  0.00  0.00    +0.010 A 
ATOM     38  C   UNL     1       2.404   0.034  -0.021  0.00  0.00    +0.000 A 
ATOM     39  C   UNL     1       1.204  -0.681  -0.013  0.00  0.00    +0.010 A 
ATOM     40  C   UNL     1       0.002  -0.004   0.002  0.00  0.00    +0.001 A 
ENDBRANCH   1  38
TORSDOF 5
