REMARK  Name = CHEMBL265032
REMARK  7 active torsions:
REMARK  status: ('A' for Active; 'I' for Inactive)
REMARK    1  A    between atoms: C_1  and  C_2
REMARK    2  A    between atoms: C_2  and  C_4
REMARK    3  A    between atoms: C_2  and  N_10
REMARK    4  A    between atoms: C_13  and  C_17
REMARK    5  A    between atoms: C_19  and  C_33
REMARK    6  A    between atoms: C_22  and  C_23
REMARK    7  A    between atoms: C_27  and  C_29
REMARK                            x       y       z     vdW  Elec       q    Type
REMARK                         _______ _______ _______ _____ _____    ______ ____
ROOT
ATOM      1  C   UNL     1      -1.563  -0.094  -4.872  0.00  0.00    +0.012 A 
ATOM      2  C   UNL     1      -0.921   1.134  -5.062  0.00  0.00    +0.036 A 
ATOM      3  C   UNL     1      -0.372   1.394  -6.306  0.00  0.00    +0.067 A 
ATOM      4  N   UNL     1      -0.462   0.498  -7.272  0.00  0.00    -0.153 NA
ATOM      5  N   UNL     1      -1.047  -0.633  -7.113  0.00  0.00    -0.148 NA
ATOM      6  C   UNL     1      -1.601  -0.986  -5.960  0.00  0.00    +0.101 A 
ENDROOT
BRANCH   1  10
ATOM      7  N   UNL     1      -1.372  -0.511   0.012  0.00  0.00    -0.322 N 
ATOM      8  C   UNL     1      -2.072  -0.647  -1.181  0.00  0.00    +0.120 A 
ATOM      9  C   UNL     1      -1.459  -0.305  -2.380  0.00  0.00    +0.052 A 
ATOM     10  C   UNL     1      -2.175  -0.447  -3.569  0.00  0.00    -0.011 A 
ATOM     11  C   UNL     1      -3.487  -0.931  -3.499  0.00  0.00    +0.028 A 
ATOM     12  C   UNL     1      -4.022  -1.247  -2.269  0.00  0.00    +0.113 A 
ATOM     13  N   UNL     1      -3.314  -1.106  -1.164  0.00  0.00    -0.240 NA
ATOM     14  H   UNL     1      -1.794  -0.752   0.852  0.00  0.00    +0.148 HD
BRANCH   7  16
ATOM     15  C   UNL     1      -0.019   1.526   0.010  0.00  0.00    +0.033 C 
ATOM     16  C   UNL     1       0.002  -0.004   0.002  0.00  0.00    +0.099 C 
BRANCH  16  17
ATOM     17  C   UNL     1       0.731  -0.503   1.223  0.00  0.00    -0.028 A 
ATOM     18  C   UNL     1       0.081  -0.558   2.442  0.00  0.00    +0.005 A 
ATOM     19  C   UNL     1       0.749  -1.016   3.562  0.00  0.00    +0.000 A 
ATOM     20  C   UNL     1       2.068  -1.420   3.463  0.00  0.00    +0.000 A 
ATOM     21  C   UNL     1       2.718  -1.365   2.244  0.00  0.00    +0.000 A 
ATOM     22  C   UNL     1       2.048  -0.911   1.123  0.00  0.00    +0.005 A 
ENDBRANCH  16  17
ENDBRANCH   7  16
ENDBRANCH   1  10
BRANCH   3  23
ATOM     23  C   UNL     1       0.330   2.704  -6.559  0.00  0.00    +0.036 C 
ATOM     24  C   UNL     1       1.051   3.152  -5.285  0.00  0.00    -0.010 C 
ATOM     25  C   UNL     1       1.695   4.520  -5.525  0.00  0.00    -0.082 C 
ATOM     26  N   UNL     1       0.658   5.499  -5.872  0.00  0.00    +0.379 N 
ATOM     27  C   UNL     1       0.010   5.112  -7.131  0.00  0.00    -0.082 C 
ATOM     28  C   UNL     1      -0.699   3.768  -6.953  0.00  0.00    -0.010 C 
ATOM     29  H   UNL     1      -0.032   5.531  -5.136  0.00  0.00    -0.086 HD
ATOM     30  H   UNL     1       1.078   6.410  -5.977  0.00  0.00    -0.086 HD
ENDBRANCH   3  23
BRANCH   6  31
ATOM     31  C   UNL     1      -2.262  -2.305  -5.822  0.00  0.00    +0.003 A 
ATOM     32  C   UNL     1      -2.205  -2.992  -4.610  0.00  0.00    +0.010 A 
ATOM     33  C   UNL     1      -2.822  -4.220  -4.487  0.00  0.00    +0.001 A 
ATOM     34  C   UNL     1      -3.496  -4.770  -5.563  0.00  0.00    +0.012 A 
ATOM     35  C   UNL     1      -3.556  -4.093  -6.768  0.00  0.00    +0.055 A 
ATOM     36  C   UNL     1      -2.947  -2.861  -6.901  0.00  0.00    +0.022 A 
BRANCH  35  37
ATOM     37  C   UNL     1      -4.292  -4.698  -7.935  0.00  0.00    +0.417 C 
ATOM     38  F   UNL     1      -4.825  -5.936  -7.559  0.00  0.00    -0.166 F 
ATOM     39  F   UNL     1      -5.328  -3.844  -8.327  0.00  0.00    -0.166 F 
ATOM     40  F   UNL     1      -3.406  -4.877  -9.003  0.00  0.00    -0.166 F 
ENDBRANCH  35  37
ENDBRANCH   6  31
TORSDOF 6
