REMARK  Name = CHEMBL255410
REMARK  14 active torsions:
REMARK  status: ('A' for Active; 'I' for Inactive)
REMARK    1  A    between atoms: C_1  and  C_2
REMARK    2  A    between atoms: C_5  and  N_8
REMARK    3  A    between atoms: C_9  and  N_17
REMARK    4  A    between atoms: C_11  and  C_13
REMARK    5  A    between atoms: C_13  and  C_14
REMARK    6  A    between atoms: C_13  and  C_15
REMARK    7  A    between atoms: C_13  and  C_16
REMARK    8  A    between atoms: C_18  and  C_20
REMARK    9  A    between atoms: C_20  and  C_23
REMARK   10  A    between atoms: N_21  and  O_22
REMARK   11  A    between atoms: C_26  and  O_33
REMARK   12  A    between atoms: O_33  and  C_34
REMARK   13  A    between atoms: C_34  and  C_35
REMARK   14  A    between atoms: C_35  and  N_36
REMARK                            x       y       z     vdW  Elec       q    Type
REMARK                         _______ _______ _______ _____ _____    ______ ____
ROOT
ATOM      1  C   UNL     1       3.220  -5.058   3.312  0.00  0.00    +0.172 C 
ATOM      2  N   UNL     1       3.241  -3.770   3.515  0.00  0.00    -0.082 NA
ENDROOT
BRANCH   1   3
ATOM      3  C   UNL     1       3.772  -5.976   4.329  0.00  0.00    +0.017 A 
ATOM      4  C   UNL     1       5.128  -5.961   4.620  0.00  0.00    +0.014 A 
ATOM      5  C   UNL     1       5.658  -6.818   5.573  0.00  0.00    +0.047 A 
ATOM      6  C   UNL     1       4.852  -7.705   6.255  0.00  0.00    +0.128 A 
ATOM      7  C   UNL     1       3.468  -7.748   5.986  0.00  0.00    +0.024 A 
ATOM      8  C   UNL     1       2.920  -6.873   5.018  0.00  0.00    -0.005 A 
ATOM      9  C   UNL     1       1.543  -6.913   4.754  0.00  0.00    +0.009 A 
ATOM     10  C   UNL     1       0.751  -7.789   5.434  0.00  0.00    +0.001 A 
ATOM     11  C   UNL     1       1.289  -8.646   6.391  0.00  0.00    +0.001 A 
ATOM     12  C   UNL     1       2.623  -8.641   6.664  0.00  0.00    +0.012 A 
BRANCH   6  13
ATOM     13  O   UNL     1       5.390  -8.536   7.184  0.00  0.00    -0.493 OA
BRANCH  13  14
ATOM     14  C   UNL     1       6.798  -8.438   7.405  0.00  0.00    +0.210 C 
BRANCH  14  15
ATOM     15  C   UNL     1       7.218  -9.444   8.478  0.00  0.00    -0.037 C 
BRANCH  15  16
ATOM     16  N   UNL     1       6.975 -10.809   7.991  0.00  0.00    +0.385 N 
ATOM     17  C   UNL     1       7.259 -11.770   9.066  0.00  0.00    -0.050 C 
ATOM     18  C   UNL     1       7.005 -13.191   8.556  0.00  0.00    +0.141 C 
ATOM     19  O   UNL     1       7.821 -13.432   7.407  0.00  0.00    -0.383 OA
ATOM     20  C   UNL     1       7.598 -12.505   6.340  0.00  0.00    +0.141 C 
ATOM     21  C   UNL     1       7.853 -11.083   6.845  0.00  0.00    -0.050 C 
ATOM     22  H   UNL     1       6.011 -10.898   7.706  0.00  0.00    -0.081 HD
ENDBRANCH  15  16
ENDBRANCH  14  15
ENDBRANCH  13  14
ENDBRANCH   6  13
ENDBRANCH   1   3
BRANCH   1  24
ATOM     23  N   UNL     1       2.537  -6.933   1.889  0.00  0.00    -0.265 N 
ATOM     24  C   UNL     1       2.641  -5.600   2.061  0.00  0.00    +0.271 C 
ATOM     25  O   UNL     1       2.260  -4.843   1.189  0.00  0.00    -0.268 OA
ATOM     26  H   UNL     1       2.911  -7.537   2.548  0.00  0.00    +0.157 HD
BRANCH  23  28
ATOM     27  N   UNL     1       1.716  -8.757   0.463  0.00  0.00    -0.218 N 
ATOM     28  C   UNL     1       1.893  -7.441   0.763  0.00  0.00    +0.129 A 
ATOM     29  C   UNL     1       1.324  -6.714  -0.237  0.00  0.00    +0.069 A 
ATOM     30  C   UNL     1       0.789  -7.609  -1.168  0.00  0.00    +0.071 A 
ATOM     31  N   UNL     1       1.026  -8.828  -0.755  0.00  0.00    -0.169 NA
BRANCH  27  36
ATOM     32  C   UNL     1       3.478 -13.167   3.570  0.00  0.00    +0.044 C 
ATOM     33  C   UNL     1       3.010 -11.996   2.745  0.00  0.00    -0.050 A 
ATOM     34  C   UNL     1       1.821 -12.077   2.043  0.00  0.00    +0.005 A 
ATOM     35  C   UNL     1       1.390 -11.006   1.286  0.00  0.00    +0.028 A 
ATOM     36  C   UNL     1       2.151  -9.846   1.230  0.00  0.00    +0.067 A 
ATOM     37  C   UNL     1       3.344  -9.767   1.936  0.00  0.00    +0.028 A 
ATOM     38  C   UNL     1       3.767 -10.840   2.696  0.00  0.00    +0.005 A 
ENDBRANCH  27  36
BRANCH  30  39
ATOM     39  C   UNL     1       0.066  -7.234  -2.435  0.00  0.00    +0.006 C 
ATOM     40  C   UNL     1       1.077  -6.750  -3.476  0.00  0.00    +0.017 C 
ATOM     41  C   UNL     1      -0.679  -8.455  -2.978  0.00  0.00    +0.017 C 
ATOM     42  C   UNL     1      -0.936  -6.116  -2.139  0.00  0.00    +0.017 C 
ENDBRANCH  30  39
ENDBRANCH  23  28
ENDBRANCH   1  24
BRANCH   2  43
ATOM     43  O   UNL     1       2.610  -2.897   2.597  0.00  0.00    -0.409 OA
ATOM     44  H   UNL     1       2.679  -1.962   2.832  0.00  0.00    +0.328 HD
ENDBRANCH   2  43
TORSDOF 10
