REMARK  Name = CHEMBL199993
REMARK  8 active torsions:
REMARK  status: ('A' for Active; 'I' for Inactive)
REMARK    1  A    between atoms: C_1  and  N_2
REMARK    2  A    between atoms: N_5  and  C_8
REMARK    3  A    between atoms: C_8  and  C_9
REMARK    4  A    between atoms: C_10  and  C_11
REMARK    5  A    between atoms: C_14  and  O_36
REMARK    6  A    between atoms: C_15  and  C_17
REMARK    7  A    between atoms: N_27  and  C_28
REMARK    8  A    between atoms: O_36  and  C_37
REMARK                            x       y       z     vdW  Elec       q    Type
REMARK                         _______ _______ _______ _____ _____    ______ ____
ROOT
ATOM      1  C   UNL     1       2.311  -8.530   6.888  0.00  0.00    +0.107 A 
ATOM      2  C   UNL     1       2.552  -9.569   5.884  0.00  0.00    +0.065 A 
ATOM      3  C   UNL     1       2.940  -9.573   4.544  0.00  0.00    +0.128 A 
ATOM      4  N   UNL     1       3.063 -10.734   3.925  0.00  0.00    -0.222 NA
ATOM      5  C   UNL     1       2.825 -11.878   4.556  0.00  0.00    +0.221 A 
ATOM      6  N   UNL     1       2.454 -11.924   5.825  0.00  0.00    -0.195 NA
ATOM      7  C   UNL     1       2.306 -10.803   6.524  0.00  0.00    +0.161 A 
ATOM      8  N   UNL     1       1.947 -10.518   7.808  0.00  0.00    -0.259 N 
ATOM      9  N   UNL     1       1.965  -9.132   8.001  0.00  0.00    -0.171 NA
ATOM     10  H   UNL     1       1.719 -11.174   8.485  0.00  0.00    +0.191 HD
ATOM     11  N   UNL     1       2.969 -13.067   3.860  0.00  0.00    -0.281 N 
ATOM     12  H   UNL     1       2.717 -13.906   4.276  0.00  0.00    +0.155 HD
ENDROOT
BRANCH  11  13
ATOM     13  C   UNL     1       3.478 -13.056   2.555  0.00  0.00    +0.069 A 
ATOM     14  C   UNL     1       4.291 -12.013   2.134  0.00  0.00    +0.029 A 
ATOM     15  C   UNL     1       4.793 -12.005   0.847  0.00  0.00    +0.040 A 
ATOM     16  C   UNL     1       4.487 -13.037  -0.024  0.00  0.00    +0.126 A 
ATOM     17  C   UNL     1       3.676 -14.079   0.392  0.00  0.00    +0.078 A 
ATOM     18  C   UNL     1       3.176 -14.095   1.681  0.00  0.00    +0.147 A 
ATOM     19  F   UNL     1       2.390 -15.115   2.089  0.00  0.00    -0.203 F 
ATOM     20  F   UNL     1       4.979 -13.026  -1.282  0.00  0.00    -0.205 F 
ENDBRANCH  11  13
BRANCH   1  25
ATOM     21  C   UNL     1       2.012  -5.091   5.377  0.00  0.00    +0.026 A 
ATOM     22  C   UNL     1       2.693  -4.321   6.322  0.00  0.00    +0.020 A 
ATOM     23  C   UNL     1       3.243  -4.918   7.437  0.00  0.00    +0.047 A 
ATOM     24  C   UNL     1       3.122  -6.287   7.627  0.00  0.00    +0.129 A 
ATOM     25  C   UNL     1       2.441  -7.067   6.686  0.00  0.00    +0.046 A 
ATOM     26  C   UNL     1       1.881  -6.466   5.564  0.00  0.00    +0.030 A 
BRANCH  21  28
ATOM     27  C   UNL     1       0.976  -3.957   3.272  0.00  0.00    -0.081 C 
ATOM     28  C   UNL     1       1.443  -4.468   4.220  0.00  0.00    -0.065 C 
BRANCH  27  29
ATOM     29  C   UNL     1       0.391  -3.316   2.083  0.00  0.00    +0.174 C 
BRANCH  29  34
ATOM     30  C   UNL     1       1.859   2.037   1.115  0.00  0.00    -0.096 C 
ATOM     31  N   UNL     1       1.606   0.593   1.027  0.00  0.00    +0.379 N 
ATOM     32  C   UNL     1       0.169   0.337   1.192  0.00  0.00    -0.064 C 
ATOM     33  C   UNL     1      -0.098  -1.165   1.082  0.00  0.00    +0.067 C 
ATOM     34  N   UNL     1       0.665  -1.873   2.119  0.00  0.00    -0.295 NA
ATOM     35  C   UNL     1       2.104  -1.607   1.982  0.00  0.00    +0.067 C 
ATOM     36  C   UNL     1       2.353  -0.100   2.085  0.00  0.00    -0.064 C 
ATOM     37  H   UNL     1       1.906   0.253   0.126  0.00  0.00    -0.082 HD
ENDBRANCH  29  34
ENDBRANCH  27  29
ENDBRANCH  21  28
BRANCH  24  38
ATOM     38  O   UNL     1       3.666  -6.870   8.726  0.00  0.00    -0.494 OA
ATOM     39  C   UNL     1       4.348  -6.013   9.645  0.00  0.00    +0.277 C 
ENDBRANCH  24  38
ENDBRANCH   1  25
TORSDOF 6
