REMARK  Name = CHEMBL569114
REMARK  10 active torsions:
REMARK  status: ('A' for Active; 'I' for Inactive)
REMARK    1  A    between atoms: C_1  and  O_2
REMARK    2  A    between atoms: O_2  and  C_3
REMARK    3  A    between atoms: C_6  and  C_11
REMARK    4  A    between atoms: C_7  and  O_9
REMARK    5  A    between atoms: O_9  and  C_10
REMARK    6  A    between atoms: C_12  and  C_13
REMARK    7  A    between atoms: C_18  and  C_22
REMARK    8  A    between atoms: C_23  and  C_30
REMARK    9  A    between atoms: C_25  and  S_28
REMARK   10  A    between atoms: S_28  and  C_29
REMARK                            x       y       z     vdW  Elec       q    Type
REMARK                         _______ _______ _______ _____ _____    ______ ____
ROOT
ATOM      1  C   UNL     1      -8.430  -0.435   0.059  0.00  0.00    +0.242 C 
ATOM      2  O   UNL     1      -9.454   0.222   0.063  0.00  0.00    -0.270 OA
ATOM      3  N   UNL     1      -8.493  -1.782   0.062  0.00  0.00    -0.267 N 
ATOM      4  C   UNL     1      -9.725  -2.421   0.175  0.00  0.00    +0.126 A 
ATOM      5  C   UNL     1      -9.773  -3.804   0.284  0.00  0.00    +0.054 A 
ATOM      6  C   UNL     1     -11.017  -4.430   0.397  0.00  0.00    +0.007 A 
ATOM      7  C   UNL     1     -12.166  -3.627   0.397  0.00  0.00    +0.030 A 
ATOM      8  C   UNL     1     -12.030  -2.261   0.285  0.00  0.00    +0.113 A 
ATOM      9  N   UNL     1     -10.838  -1.702   0.184  0.00  0.00    -0.240 NA
ATOM     10  H   UNL     1      -7.680  -2.305  -0.015  0.00  0.00    +0.157 HD
ENDROOT
BRANCH   6  11
ATOM     11  C   UNL     1     -11.119  -5.902   0.515  0.00  0.00    +0.098 A 
ATOM     12  C   UNL     1     -12.055  -6.598   1.255  0.00  0.00    +0.075 A 
ATOM     13  N   UNL     1     -11.775  -7.938   1.074  0.00  0.00    -0.332 N 
ATOM     14  C   UNL     1     -10.697  -8.016   0.244  0.00  0.00    +0.167 A 
ATOM     15  N   UNL     1     -10.318  -6.805  -0.086  0.00  0.00    -0.221 NA
ATOM     16  H   UNL     1     -12.256  -8.684   1.465  0.00  0.00    +0.168 HD
BRANCH  12  17
ATOM     17  C   UNL     1     -13.138  -6.023   2.077  0.00  0.00    +0.001 A 
ATOM     18  C   UNL     1     -12.878  -4.942   2.923  0.00  0.00    +0.013 A 
ATOM     19  C   UNL     1     -13.894  -4.409   3.688  0.00  0.00    +0.039 A 
ATOM     20  C   UNL     1     -15.171  -4.944   3.619  0.00  0.00    +0.123 A 
ATOM     21  C   UNL     1     -15.434  -6.016   2.781  0.00  0.00    +0.039 A 
ATOM     22  C   UNL     1     -14.428  -6.554   2.007  0.00  0.00    +0.013 A 
ATOM     23  F   UNL     1     -16.162  -4.417   4.370  0.00  0.00    -0.205 F 
ENDBRANCH  12  17
BRANCH  14  24
ATOM     24  S   UNL     1      -9.938  -9.509  -0.303  0.00  0.00    -0.091 S 
ATOM     25  C   UNL     1      -8.580  -8.945  -1.366  0.00  0.00    +0.093 C 
ENDBRANCH  14  24
ENDBRANCH   6  11
BRANCH   1  27
ATOM     26  C   UNL     1      -7.107   1.566   0.050  0.00  0.00    +0.016 C 
ATOM     27  C   UNL     1      -7.170   0.215   0.053  0.00  0.00    +0.068 C 
BRANCH  26  31
ATOM     28  C   UNL     1      -3.339   3.505   0.029  0.00  0.00    +0.124 A 
ATOM     29  C   UNL     1      -3.411   2.115   0.032  0.00  0.00    +0.046 A 
ATOM     30  C   UNL     1      -4.623   1.486   0.039  0.00  0.00    +0.015 A 
ATOM     31  C   UNL     1      -5.804   2.239   0.043  0.00  0.00    +0.017 A 
ATOM     32  C   UNL     1      -5.734   3.643   0.040  0.00  0.00    +0.131 A 
ATOM     33  C   UNL     1      -4.498   4.267   0.038  0.00  0.00    +0.091 A 
BRANCH  28  35
ATOM     34  C   UNL     1      -0.974   3.276   0.014  0.00  0.00    +0.277 C 
ATOM     35  O   UNL     1      -2.128   4.119   0.023  0.00  0.00    -0.495 OA
ENDBRANCH  28  35
BRANCH  32  36
ATOM     36  O   UNL     1      -6.872   4.383   0.044  0.00  0.00    -0.494 OA
ATOM     37  C   UNL     1      -6.722   5.804   0.040  0.00  0.00    +0.277 C 
ENDBRANCH  32  36
ENDBRANCH  26  31
ENDBRANCH   1  27
TORSDOF 7
