REMARK  Name = CHEMBL560730
REMARK  7 active torsions:
REMARK  status: ('A' for Active; 'I' for Inactive)
REMARK    1  A    between atoms: C_1  and  C_2
REMARK    2  A    between atoms: C_5  and  C_28
REMARK    3  A    between atoms: C_7  and  O_8
REMARK    4  A    between atoms: O_8  and  C_9
REMARK    5  A    between atoms: N_13  and  C_27
REMARK    6  A    between atoms: N_18  and  C_19
REMARK    7  A    between atoms: N_30  and  C_31
REMARK                            x       y       z     vdW  Elec       q    Type
REMARK                         _______ _______ _______ _____ _____    ______ ____
ROOT
ATOM      1  C   UNL     1      -1.284  -0.264   3.645  0.00  0.00    +0.146 A 
ATOM      2  C   UNL     1      -2.203  -1.273   3.768  0.00  0.00    +0.117 A 
ATOM      3  C   UNL     1      -2.475  -1.818   5.028  0.00  0.00    +0.256 A 
ATOM      4  O   UNL     1      -3.295  -2.716   5.124  0.00  0.00    -0.268 OA
ATOM      5  N   UNL     1      -1.854  -1.376   6.136  0.00  0.00    -0.296 N 
ATOM      6  C   UNL     1      -0.926  -0.370   6.079  0.00  0.00    +0.150 A 
ATOM      7  C   UNL     1      -0.607   0.210   4.852  0.00  0.00    +0.080 A 
ATOM      8  C   UNL     1       0.370   1.199   5.098  0.00  0.00    +0.148 A 
ATOM      9  N   UNL     1       0.626   1.212   6.376  0.00  0.00    -0.172 NA
ATOM     10  N   UNL     1      -0.169   0.254   7.018  0.00  0.00    -0.210 N 
ATOM     11  C   UNL     1      -2.178  -1.983   7.430  0.00  0.00    +0.154 C 
ENDROOT
BRANCH  10  12
ATOM     12  C   UNL     1      -0.170  -0.025   8.393  0.00  0.00    +0.138 A 
ATOM     13  C   UNL     1       0.711  -0.964   8.915  0.00  0.00    +0.152 A 
ATOM     14  C   UNL     1       0.706  -1.236  10.271  0.00  0.00    +0.041 A 
ATOM     15  C   UNL     1      -0.174  -0.574  11.108  0.00  0.00    +0.006 A 
ATOM     16  C   UNL     1      -1.052   0.361  10.592  0.00  0.00    +0.041 A 
ATOM     17  C   UNL     1      -1.050   0.643   9.238  0.00  0.00    +0.152 A 
ATOM     18  F   UNL     1      -1.904   1.561   8.736  0.00  0.00    -0.203 F 
ATOM     19  F   UNL     1       1.571  -1.611   8.098  0.00  0.00    -0.203 F 
ENDBRANCH  10  12
BRANCH   1  20
ATOM     20  O   UNL     1      -1.006   0.277   2.436  0.00  0.00    -0.455 OA
BRANCH  20  27
ATOM     21  C   UNL     1      -0.193   1.453   0.004  0.00  0.00    +0.047 C 
ATOM     22  C   UNL     1      -0.989   2.204   1.040  0.00  0.00    -0.008 A 
ATOM     23  C   UNL     1      -1.351   3.518   0.811  0.00  0.00    +0.008 A 
ATOM     24  C   UNL     1      -2.079   4.212   1.756  0.00  0.00    +0.013 A 
ATOM     25  C   UNL     1      -2.453   3.586   2.946  0.00  0.00    +0.040 A 
ATOM     26  C   UNL     1      -2.088   2.259   3.175  0.00  0.00    +0.059 A 
ATOM     27  C   UNL     1      -1.360   1.571   2.219  0.00  0.00    +0.132 A 
BRANCH  25  28
ATOM     28  C   UNL     1      -3.234   4.326   3.961  0.00  0.00    +0.244 C 
ATOM     29  O   UNL     1      -3.558   3.779   4.997  0.00  0.00    -0.270 OA
ATOM     30  N   UNL     1      -3.585   5.608   3.737  0.00  0.00    -0.308 N 
ATOM     31  H   UNL     1      -3.326   6.045   2.910  0.00  0.00    +0.149 HD
BRANCH  30  32
ATOM     32  C   UNL     1      -4.359   6.341   4.742  0.00  0.00    +0.073 C 
ATOM     33  C   UNL     1      -5.523   7.202   4.248  0.00  0.00    +0.024 C 
ATOM     34  C   UNL     1      -4.240   7.867   4.750  0.00  0.00    +0.024 C 
ENDBRANCH  30  32
ENDBRANCH  25  28
ENDBRANCH  20  27
ENDBRANCH   1  20
TORSDOF 5
