REMARK  Name = CHEMBL485285
REMARK  6 active torsions:
REMARK  status: ('A' for Active; 'I' for Inactive)
REMARK    1  A    between atoms: C_1  and  C_2
REMARK    2  A    between atoms: C_5  and  C_23
REMARK    3  A    between atoms: C_7  and  C_8
REMARK    4  A    between atoms: C_16  and  C_17
REMARK    5  A    between atoms: N_25  and  C_26
REMARK    6  A    between atoms: C_30  and  N_32
REMARK                            x       y       z     vdW  Elec       q    Type
REMARK                         _______ _______ _______ _____ _____    ______ ____
ROOT
ATOM      1  C   UNL     1      -0.109   1.505  -0.025  0.00  0.00    +0.044 C 
ATOM      2  C   UNL     1      -0.069  -0.002  -0.028  0.00  0.00    -0.043 A 
ATOM      3  C   UNL     1      -0.068  -0.689  -1.226  0.00  0.00    +0.005 A 
ATOM      4  C   UNL     1      -0.030  -2.069  -1.237  0.00  0.00    +0.013 A 
ATOM      5  C   UNL     1       0.007  -2.778  -0.034  0.00  0.00    +0.038 A 
ATOM      6  C   UNL     1       0.007  -2.089   1.177  0.00  0.00    +0.021 A 
ATOM      7  C   UNL     1      -0.026  -0.698   1.180  0.00  0.00    -0.014 A 
ENDROOT
BRANCH   7   8
ATOM      8  C   UNL     1      -0.021   0.043   2.465  0.00  0.00    -0.014 A 
ATOM      9  C   UNL     1       0.880   1.095   2.658  0.00  0.00    +0.009 A 
ATOM     10  C   UNL     1       0.895   1.783   3.835  0.00  0.00    +0.014 A 
ATOM     11  C   UNL     1       0.004   1.439   4.856  0.00  0.00    +0.045 A 
ATOM     12  C   UNL     1      -0.906   0.384   4.671  0.00  0.00    +0.168 A 
ATOM     13  C   UNL     1      -0.916  -0.308   3.468  0.00  0.00    +0.058 A 
ATOM     14  O   UNL     1      -1.628   0.279   5.805  0.00  0.00    -0.354 OA
ATOM     15  N   UNL     1      -1.195   1.258   6.728  0.00  0.00    -0.082 NA
ATOM     16  C   UNL     1      -0.236   1.960   6.205  0.00  0.00    +0.094 A 
BRANCH  16  17
ATOM     17  C   UNL     1       0.496   3.100   6.864  0.00  0.00    +0.038 C 
ATOM     18  C   UNL     1       1.171   2.602   8.146  0.00  0.00    -0.009 C 
ATOM     19  C   UNL     1       1.846   3.781   8.851  0.00  0.00    -0.082 C 
ATOM     20  N   UNL     1       0.840   4.795   9.188  0.00  0.00    +0.379 N 
ATOM     21  C   UNL     1       0.239   5.328   7.960  0.00  0.00    -0.082 C 
ATOM     22  C   UNL     1      -0.498   4.209   7.220  0.00  0.00    -0.009 C 
ATOM     23  H   UNL     1       0.120   4.377   9.759  0.00  0.00    -0.086 HD
ATOM     24  H   UNL     1       1.278   5.545   9.700  0.00  0.00    -0.086 HD
ENDBRANCH  16  17
ENDBRANCH   7   8
BRANCH   5  25
ATOM     25  C   UNL     1       0.046  -4.256  -0.046  0.00  0.00    +0.248 C 
ATOM     26  O   UNL     1       0.079  -4.872   1.001  0.00  0.00    -0.270 OA
ATOM     27  N   UNL     1       0.046  -4.920  -1.219  0.00  0.00    -0.281 N 
ATOM     28  H   UNL     1      -0.045  -4.433  -2.053  0.00  0.00    +0.155 HD
BRANCH  27  29
ATOM     29  C   UNL     1       0.178  -6.312  -1.234  0.00  0.00    +0.035 A 
ATOM     30  C   UNL     1      -0.395  -7.076  -0.224  0.00  0.00    +0.023 A 
ATOM     31  C   UNL     1      -0.265  -8.451  -0.238  0.00  0.00    +0.004 A 
ATOM     32  C   UNL     1       0.435  -9.072  -1.255  0.00  0.00    +0.023 A 
ATOM     33  C   UNL     1       1.011  -8.314  -2.267  0.00  0.00    +0.032 A 
ATOM     34  C   UNL     1       0.877  -6.933  -2.259  0.00  0.00    +0.046 A 
BRANCH  33  35
ATOM     35  N   UNL     1       1.720  -8.943  -3.293  0.00  0.00    -0.325 N 
ATOM     36  C   UNL     1       2.443  -8.156  -4.306  0.00  0.00    +0.133 C 
ATOM     37  C   UNL     1       3.874  -8.696  -4.404  0.00  0.00    +0.178 C 
ATOM     38  O   UNL     1       3.831 -10.110  -4.610  0.00  0.00    -0.377 OA
ATOM     39  C   UNL     1       3.229 -10.840  -3.538  0.00  0.00    +0.178 C 
ATOM     40  C   UNL     1       1.770 -10.410  -3.392  0.00  0.00    +0.133 C 
ENDBRANCH  33  35
ENDBRANCH  27  29
ENDBRANCH   5  25
TORSDOF 5
