REMARK  Name = CHEMBL318934
REMARK  6 active torsions:
REMARK  status: ('A' for Active; 'I' for Inactive)
REMARK    1  A    between atoms: C_1  and  C_2
REMARK    2  A    between atoms: C_2  and  C_3
REMARK    3  A    between atoms: C_2  and  N_6
REMARK    4  A    between atoms: C_9  and  C_12
REMARK    5  A    between atoms: C_14  and  C_31
REMARK    6  A    between atoms: N_18  and  C_23
REMARK                            x       y       z     vdW  Elec       q    Type
REMARK                         _______ _______ _______ _____ _____    ______ ____
ROOT
ATOM      1  C   UNL     1       1.699  -2.502   4.814  0.00  0.00    -0.042 A 
ATOM      2  C   UNL     1       2.972  -1.997   4.991  0.00  0.00    +0.013 A 
ATOM      3  C   UNL     1       3.730  -2.392   6.094  0.00  0.00    -0.010 A 
ATOM      4  C   UNL     1       3.193  -3.291   7.004  0.00  0.00    -0.001 A 
ATOM      5  C   UNL     1       1.913  -3.798   6.824  0.00  0.00    +0.048 A 
ATOM      6  C   UNL     1       1.165  -3.394   5.725  0.00  0.00    +0.028 A 
ATOM      7  N   UNL     1       1.389  -4.703   7.749  0.00  0.00    -0.221 N 
ATOM      8  C   UNL     1       2.067  -5.120   8.826  0.00  0.00    +0.311 C 
ATOM      9  O   UNL     1       1.530  -5.910   9.578  0.00  0.00    -0.252 OA
ATOM     10  N   UNL     1       3.313  -4.705   9.114  0.00  0.00    -0.295 N 
ATOM     11  C   UNL     1       3.977  -3.747   8.213  0.00  0.00    +0.143 C 
ATOM     12  H   UNL     1       3.770  -5.031   9.905  0.00  0.00    +0.151 HD
ENDROOT
BRANCH   7  13
ATOM     13  C   UNL     1       0.094  -5.197   7.541  0.00  0.00    +0.079 A 
ATOM     14  C   UNL     1      -1.001  -4.526   8.070  0.00  0.00    +0.064 A 
ATOM     15  C   UNL     1      -2.277  -5.017   7.863  0.00  0.00    +0.022 A 
ATOM     16  C   UNL     1      -2.464  -6.173   7.129  0.00  0.00    +0.003 A 
ATOM     17  C   UNL     1      -1.376  -6.844   6.600  0.00  0.00    +0.022 A 
ATOM     18  C   UNL     1      -0.098  -6.357   6.799  0.00  0.00    +0.064 A 
ATOM     19 CL   UNL     1       1.266  -7.195   6.129  0.00  0.00    -0.082 Cl
ATOM     20 CL   UNL     1      -0.768  -3.074   8.992  0.00  0.00    -0.082 Cl
ENDBRANCH   7  13
BRANCH   3  21
ATOM     21  C   UNL     1       5.098  -1.854   6.292  0.00  0.00    +0.001 A 
ATOM     22  C   UNL     1       5.287  -0.497   6.543  0.00  0.00    +0.013 A 
ATOM     23  C   UNL     1       6.561  -0.001   6.727  0.00  0.00    +0.039 A 
ATOM     24  C   UNL     1       7.654  -0.851   6.662  0.00  0.00    +0.125 A 
ATOM     25  C   UNL     1       7.473  -2.201   6.412  0.00  0.00    +0.059 A 
ATOM     26  C   UNL     1       6.200  -2.707   6.233  0.00  0.00    +0.051 A 
ATOM     27 CL   UNL     1       5.973  -4.401   5.928  0.00  0.00    -0.083 Cl
ATOM     28  F   UNL     1       8.900  -0.360   6.842  0.00  0.00    -0.205 F 
ENDBRANCH   3  21
BRANCH   1  32
ATOM     29  N   UNL     1       0.697  -0.494   1.200  0.00  0.00    +0.382 N 
ATOM     30  C   UNL     1       0.821  -1.955   1.128  0.00  0.00    -0.078 C 
ATOM     31  C   UNL     1       1.615  -2.463   2.333  0.00  0.00    -0.011 C 
ATOM     32  C   UNL     1       0.883  -2.074   3.621  0.00  0.00    +0.016 C 
ATOM     33  C   UNL     1       0.694  -0.554   3.649  0.00  0.00    -0.011 C 
ATOM     34  C   UNL     1      -0.066  -0.117   2.395  0.00  0.00    -0.078 C 
ATOM     35  H   UNL     1       1.617  -0.083   1.246  0.00  0.00    -0.081 HD
BRANCH  29  37
ATOM     36  C   UNL     1      -0.236   1.502   0.131  0.00  0.00    -0.013 C 
ATOM     37  C   UNL     1       0.002  -0.004   0.002  0.00  0.00    -0.069 C 
BRANCH  37  38
ATOM     38  C   UNL     1       0.860  -0.281  -1.234  0.00  0.00    -0.025 C 
ATOM     39  C   UNL     1       1.364   0.926  -2.028  0.00  0.00    +0.002 C 
ATOM     40  C   UNL     1       0.254   0.043  -2.601  0.00  0.00    +0.002 C 
ENDBRANCH  37  38
ENDBRANCH  29  37
ENDBRANCH   1  32
TORSDOF 5
