REMARK  Name = CHEMBL381457
REMARK  9 active torsions:
REMARK  status: ('A' for Active; 'I' for Inactive)
REMARK    1  A    between atoms: C_1  and  N_2
REMARK    2  A    between atoms: N_5  and  C_8
REMARK    3  A    between atoms: C_8  and  C_9
REMARK    4  A    between atoms: C_9  and  C_10
REMARK    5  A    between atoms: C_10  and  C_11
REMARK    6  A    between atoms: C_14  and  O_36
REMARK    7  A    between atoms: C_15  and  C_17
REMARK    8  A    between atoms: N_27  and  C_28
REMARK    9  A    between atoms: O_36  and  C_37
REMARK                            x       y       z     vdW  Elec       q    Type
REMARK                         _______ _______ _______ _____ _____    ______ ____
ROOT
ATOM      1  C   UNL     1      -0.862  -7.304   7.318  0.00  0.00    +0.080 A 
ATOM      2  C   UNL     1      -0.846  -6.626   8.538  0.00  0.00    +0.064 A 
ATOM      3  C   UNL     1       0.015  -5.716   9.171  0.00  0.00    +0.128 A 
ATOM      4  N   UNL     1      -0.309  -5.274  10.368  0.00  0.00    -0.222 NA
ATOM      5  C   UNL     1      -1.420  -5.662  10.993  0.00  0.00    +0.222 A 
ATOM      6  N   UNL     1      -2.283  -6.512  10.476  0.00  0.00    -0.193 NA
ATOM      7  C   UNL     1      -2.066  -7.035   9.255  0.00  0.00    +0.186 A 
ATOM      8  N   UNL     1      -2.703  -7.881   8.473  0.00  0.00    -0.153 NA
ATOM      9  N   UNL     1      -1.983  -8.050   7.285  0.00  0.00    -0.274 N 
ATOM     10  H   UNL     1      -2.251  -8.622   6.548  0.00  0.00    +0.189 HD
ATOM     11  N   UNL     1      -1.681  -5.146  12.250  0.00  0.00    -0.281 N 
ATOM     12  H   UNL     1      -2.436  -5.475  12.762  0.00  0.00    +0.155 HD
ENDROOT
BRANCH  11  13
ATOM     13  C   UNL     1      -0.853  -4.150  12.783  0.00  0.00    +0.069 A 
ATOM     14  C   UNL     1      -0.295  -3.190  11.950  0.00  0.00    +0.029 A 
ATOM     15  C   UNL     1       0.521  -2.208  12.477  0.00  0.00    +0.040 A 
ATOM     16  C   UNL     1       0.782  -2.179  13.836  0.00  0.00    +0.126 A 
ATOM     17  C   UNL     1       0.227  -3.134  14.671  0.00  0.00    +0.078 A 
ATOM     18  C   UNL     1      -0.595  -4.116  14.149  0.00  0.00    +0.147 A 
ATOM     19  F   UNL     1      -1.141  -5.045  14.964  0.00  0.00    -0.203 F 
ATOM     20  F   UNL     1       1.581  -1.217  14.349  0.00  0.00    -0.205 F 
ENDBRANCH  11  13
BRANCH   1  25
ATOM     21  C   UNL     1       0.792  -6.584   4.026  0.00  0.00    -0.046 A 
ATOM     22  C   UNL     1       2.076  -7.046   4.260  0.00  0.00    +0.007 A 
ATOM     23  C   UNL     1       2.410  -7.592   5.484  0.00  0.00    +0.046 A 
ATOM     24  C   UNL     1       1.460  -7.681   6.488  0.00  0.00    +0.129 A 
ATOM     25  C   UNL     1       0.159  -7.214   6.256  0.00  0.00    +0.042 A 
ATOM     26  C   UNL     1      -0.165  -6.660   5.016  0.00  0.00    +0.017 A 
BRANCH  24  27
ATOM     27  O   UNL     1       1.787  -8.217   7.692  0.00  0.00    -0.494 OA
ATOM     28  C   UNL     1       3.132  -8.672   7.855  0.00  0.00    +0.277 C 
ENDBRANCH  24  27
BRANCH  21  29
ATOM     29  C   UNL     1       0.440  -5.991   2.686  0.00  0.00    +0.036 C 
BRANCH  29  30
ATOM     30  C   UNL     1       0.710  -4.485   2.709  0.00  0.00    +0.020 C 
BRANCH  30  31
ATOM     31  C   UNL     1       0.353  -3.882   1.349  0.00  0.00    +0.084 C 
BRANCH  31  36
ATOM     32  C   UNL     1       1.974   1.436   0.435  0.00  0.00    -0.096 C 
ATOM     33  N   UNL     1       1.744  -0.013   0.367  0.00  0.00    +0.379 N 
ATOM     34  C   UNL     1       0.303  -0.276   0.262  0.00  0.00    -0.064 C 
ATOM     35  C   UNL     1       0.065  -1.785   0.172  0.00  0.00    +0.066 C 
ATOM     36  N   UNL     1       0.613  -2.437   1.370  0.00  0.00    -0.306 NA
ATOM     37  C   UNL     1       2.051  -2.161   1.502  0.00  0.00    +0.066 C 
ATOM     38  C   UNL     1       2.273  -0.649   1.581  0.00  0.00    -0.064 C 
ATOM     39  H   UNL     1       2.214  -0.390  -0.442  0.00  0.00    -0.082 HD
ENDBRANCH  31  36
ENDBRANCH  30  31
ENDBRANCH  29  30
ENDBRANCH  21  29
ENDBRANCH   1  25
TORSDOF 7
