REMARK  Name = CHEMBL109732
REMARK  10 active torsions:
REMARK  status: ('A' for Active; 'I' for Inactive)
REMARK    1  A    between atoms: C_1  and  C_2
REMARK    2  A    between atoms: C_2  and  C_3
REMARK    3  A    between atoms: C_2  and  N_9
REMARK    4  A    between atoms: C_12  and  C_16
REMARK    5  A    between atoms: C_17  and  C_33
REMARK    6  A    between atoms: C_19  and  S_22
REMARK    7  A    between atoms: S_22  and  C_23
REMARK    8  A    between atoms: C_23  and  C_24
REMARK    9  A    between atoms: C_27  and  S_30
REMARK   10  A    between atoms: S_30  and  C_32
REMARK                            x       y       z     vdW  Elec       q    Type
REMARK                         _______ _______ _______ _____ _____    ______ ____
ROOT
ATOM      1  C   UNL     1      -1.485  -0.129   4.897  0.00  0.00    +0.075 A 
ATOM      2  C   UNL     1      -2.058   0.584   5.933  0.00  0.00    +0.098 A 
ATOM      3  N   UNL     1      -1.146   0.676   6.920  0.00  0.00    -0.221 NA
ATOM      4  C   UNL     1      -0.043   0.062   6.559  0.00  0.00    +0.168 A 
ATOM      5  N   UNL     1      -0.207  -0.459   5.312  0.00  0.00    -0.332 N 
ATOM      6  H   UNL     1       0.450  -0.964   4.808  0.00  0.00    +0.168 HD
ENDROOT
BRANCH   1  10
ATOM      7  N   UNL     1      -1.372  -0.511   0.012  0.00  0.00    -0.324 N 
ATOM      8  C   UNL     1      -2.050  -0.660   1.218  0.00  0.00    +0.097 A 
ATOM      9  C   UNL     1      -1.418  -0.320   2.406  0.00  0.00    +0.051 A 
ATOM     10  C   UNL     1      -2.114  -0.476   3.610  0.00  0.00    +0.005 A 
ATOM     11  C   UNL     1      -3.427  -0.972   3.558  0.00  0.00    +0.027 A 
ATOM     12  C   UNL     1      -3.977  -1.284   2.337  0.00  0.00    +0.085 A 
ATOM     13  N   UNL     1      -3.293  -1.119   1.219  0.00  0.00    -0.350 N 
ATOM     14  H   UNL     1      -1.810  -0.743  -0.822  0.00  0.00    +0.148 HD
ATOM     15  H   UNL     1      -3.711  -1.345   0.373  0.00  0.00    +0.166 HD
BRANCH   7  17
ATOM     16  C   UNL     1      -0.019   1.526   0.010  0.00  0.00    +0.033 C 
ATOM     17  C   UNL     1       0.002  -0.004   0.002  0.00  0.00    +0.099 C 
BRANCH  17  18
ATOM     18  C   UNL     1       0.707  -0.490  -1.238  0.00  0.00    -0.028 A 
ATOM     19  C   UNL     1       0.038  -0.522  -2.447  0.00  0.00    +0.005 A 
ATOM     20  C   UNL     1       0.685  -0.967  -3.584  0.00  0.00    +0.000 A 
ATOM     21  C   UNL     1       2.002  -1.381  -3.513  0.00  0.00    +0.000 A 
ATOM     22  C   UNL     1       2.672  -1.349  -2.304  0.00  0.00    +0.000 A 
ATOM     23  C   UNL     1       2.026  -0.899  -1.167  0.00  0.00    +0.005 A 
ENDBRANCH  17  18
ENDBRANCH   7  17
ENDBRANCH   1  10
BRANCH   2  24
ATOM     24  C   UNL     1      -3.427   1.148   5.954  0.00  0.00    +0.003 A 
ATOM     25  C   UNL     1      -3.999   1.641   4.782  0.00  0.00    +0.013 A 
ATOM     26  C   UNL     1      -5.275   2.164   4.806  0.00  0.00    +0.039 A 
ATOM     27  C   UNL     1      -5.989   2.201   5.994  0.00  0.00    +0.123 A 
ATOM     28  C   UNL     1      -5.425   1.713   7.162  0.00  0.00    +0.039 A 
ATOM     29  C   UNL     1      -4.152   1.182   7.146  0.00  0.00    +0.013 A 
ATOM     30  F   UNL     1      -7.238   2.715   6.013  0.00  0.00    -0.205 F 
ENDBRANCH   2  24
BRANCH   4  31
ATOM     31  S   UNL     1       1.416  -0.072   7.537  0.00  0.00    -0.083 S 
BRANCH  31  32
ATOM     32  C   UNL     1       1.001   0.808   9.068  0.00  0.00    +0.112 C 
BRANCH  32  33
ATOM     33  C   UNL     1       2.180   0.769  10.006  0.00  0.00    -0.037 A 
ATOM     34  C   UNL     1       2.312  -0.272  10.906  0.00  0.00    +0.005 A 
ATOM     35  C   UNL     1       3.394  -0.308  11.767  0.00  0.00    +0.017 A 
ATOM     36  C   UNL     1       4.343   0.696  11.726  0.00  0.00    +0.039 A 
ATOM     37  C   UNL     1       4.211   1.736  10.825  0.00  0.00    +0.017 A 
ATOM     38  C   UNL     1       3.132   1.770   9.962  0.00  0.00    +0.005 A 
BRANCH  36  39
ATOM     39  S   UNL     1       5.721   0.650  12.824  0.00  0.00    +0.051 S 
ATOM     40  O   UNL     1       5.262  -0.130  13.919  0.00  0.00    -0.252 OA
ATOM     41  C   UNL     1       6.982  -0.277  11.906  0.00  0.00    +0.127 C 
ENDBRANCH  36  39
ENDBRANCH  32  33
ENDBRANCH  31  32
ENDBRANCH   4  31
TORSDOF 8
