REMARK  Name = CHEMBL524054
REMARK  4 active torsions:
REMARK  status: ('A' for Active; 'I' for Inactive)
REMARK    1  A    between atoms: C_1  and  C_2
REMARK    2  A    between atoms: C_7  and  C_8
REMARK    3  A    between atoms: C_17  and  N_18
REMARK    4  A    between atoms: C_23  and  C_25
REMARK                            x       y       z     vdW  Elec       q    Type
REMARK                         _______ _______ _______ _____ _____    ______ ____
ROOT
ATOM      1  C   UNL     1      -0.268  -0.570   3.301  0.00  0.00    -0.016 A 
ATOM      2  C   UNL     1       0.892   0.196   3.503  0.00  0.00    +0.009 A 
ATOM      3  C   UNL     1       0.973   1.085   4.530  0.00  0.00    +0.012 A 
ATOM      4  C   UNL     1      -0.113   1.242   5.400  0.00  0.00    +0.023 A 
ATOM      5  C   UNL     1      -1.291   0.474   5.206  0.00  0.00    +0.006 A 
ATOM      6  C   UNL     1      -1.360  -0.432   4.142  0.00  0.00    +0.018 A 
ATOM      7  C   UNL     1      -2.356   0.668   6.106  0.00  0.00    +0.141 A 
ATOM      8  N   UNL     1      -2.220   1.540   7.078  0.00  0.00    -0.180 NA
ATOM      9  N   UNL     1      -1.160   2.236   7.259  0.00  0.00    -0.264 N 
ATOM     10  C   UNL     1      -0.093   2.147   6.484  0.00  0.00    +0.123 A 
ATOM     11  H   UNL     1      -1.140   2.860   8.002  0.00  0.00    +0.190 HD
ENDROOT
BRANCH   1  18
ATOM     12  C   UNL     1      -0.169   0.396   0.567  0.00  0.00    +0.044 C 
ATOM     13  C   UNL     1      -0.280  -1.078   0.858  0.00  0.00    -0.042 A 
ATOM     14  C   UNL     1      -0.330  -1.994  -0.183  0.00  0.00    +0.005 A 
ATOM     15  C   UNL     1      -0.430  -3.332   0.046  0.00  0.00    +0.013 A 
ATOM     16  C   UNL     1      -0.486  -3.835   1.363  0.00  0.00    +0.031 A 
ATOM     17  C   UNL     1      -0.433  -2.895   2.416  0.00  0.00    +0.049 A 
ATOM     18  C   UNL     1      -0.326  -1.531   2.174  0.00  0.00    +0.001 A 
ATOM     19  S   UNL     1      -0.529  -3.916   3.860  0.00  0.00    +0.014 S 
ATOM     20  N   UNL     1      -0.628  -5.422   3.135  0.00  0.00    -0.195 NA
ATOM     21  C   UNL     1      -0.593  -5.202   1.854  0.00  0.00    +0.133 A 
ATOM     22  N   UNL     1      -0.657  -6.268   0.956  0.00  0.00    -0.342 N 
ATOM     23  H   UNL     1      -0.631  -6.099   0.001  0.00  0.00    +0.144 HD
ATOM     24  H   UNL     1      -0.728  -7.177   1.286  0.00  0.00    +0.144 HD
ENDBRANCH   1  18
BRANCH  10  25
ATOM     25  N   UNL     1       1.024   2.928   6.731  0.00  0.00    -0.308 N 
ATOM     26  C   UNL     1       2.107   2.446   7.603  0.00  0.00    +0.135 C 
ATOM     27  C   UNL     1       2.412   3.531   8.641  0.00  0.00    +0.179 C 
ATOM     28  O   UNL     1       2.641   4.773   7.971  0.00  0.00    -0.376 OA
ATOM     29  C   UNL     1       1.514   5.260   7.239  0.00  0.00    +0.182 C 
ATOM     30  C   UNL     1       1.166   4.261   6.124  0.00  0.00    +0.097 C 
ATOM     31  C   UNL     1      -0.150   4.667   5.458  0.00  0.00    +0.030 C 
ENDBRANCH  10  25
TORSDOF 2
