REMARK  Name = CHEMBL494879
REMARK  5 active torsions:
REMARK  status: ('A' for Active; 'I' for Inactive)
REMARK    1  A    between atoms: C_1  and  S_2
REMARK    2  A    between atoms: S_2  and  C_3
REMARK    3  A    between atoms: C_6  and  C_16
REMARK    4  A    between atoms: C_7  and  C_9
REMARK    5  A    between atoms: N_22  and  C_23
REMARK                            x       y       z     vdW  Elec       q    Type
REMARK                         _______ _______ _______ _____ _____    ______ ____
ROOT
ATOM      1  C   UNL     1       0.103   6.500   0.356  0.00  0.00    +0.007 A 
ATOM      2  C   UNL     1       0.564   7.711  -0.178  0.00  0.00    +0.027 A 
ATOM      3  C   UNL     1       1.025   8.688   0.676  0.00  0.00    +0.085 A 
ATOM      4  N   UNL     1       1.039   8.499   1.983  0.00  0.00    -0.350 N 
ATOM      5  C   UNL     1       0.614   7.370   2.532  0.00  0.00    +0.097 A 
ATOM      6  C   UNL     1       0.127   6.337   1.742  0.00  0.00    +0.051 A 
ATOM      7  N   UNL     1       0.650   7.222   3.914  0.00  0.00    -0.324 N 
ATOM      8  H   UNL     1       0.985   7.942   4.470  0.00  0.00    +0.148 HD
ATOM      9  H   UNL     1       1.370   9.207   2.558  0.00  0.00    +0.166 HD
ENDROOT
BRANCH   7  10
ATOM     10  C   UNL     1       0.182   5.977   4.529  0.00  0.00    +0.102 C 
ATOM     11  C   UNL     1       0.884   5.784   5.872  0.00  0.00    +0.027 C 
ATOM     12  C   UNL     1       0.228   4.603   6.595  0.00  0.00    +0.007 C 
ATOM     13  C   UNL     1      -1.177   5.022   7.026  0.00  0.00    +0.035 C 
ATOM     14  C   UNL     1      -1.935   5.605   5.863  0.00  0.00    -0.042 A 
ATOM     15  C   UNL     1      -1.311   6.047   4.718  0.00  0.00    -0.024 A 
ATOM     16  C   UNL     1      -2.069   6.580   3.683  0.00  0.00    +0.006 A 
ATOM     17  C   UNL     1      -3.442   6.667   3.793  0.00  0.00    +0.000 A 
ATOM     18  C   UNL     1      -4.069   6.220   4.941  0.00  0.00    +0.000 A 
ATOM     19  C   UNL     1      -3.317   5.691   5.970  0.00  0.00    +0.004 A 
ENDBRANCH   7  10
BRANCH   1  23
ATOM     20  C   UNL     1      -0.829   3.441  -1.307  0.00  0.00    +0.167 A 
ATOM     21  N   UNL     1      -0.259   4.098  -0.325  0.00  0.00    -0.221 NA
ATOM     22  H   UNL     1      -1.834   4.114  -3.010  0.00  0.00    +0.168 HD
ATOM     23  C   UNL     1      -0.400   5.423  -0.527  0.00  0.00    +0.098 A 
ATOM     24  C   UNL     1      -1.099   5.596  -1.706  0.00  0.00    +0.075 A 
ATOM     25  N   UNL     1      -1.359   4.330  -2.193  0.00  0.00    -0.332 N 
BRANCH  24  26
ATOM     26  C   UNL     1      -1.485   6.879  -2.325  0.00  0.00    +0.001 A 
ATOM     27  C   UNL     1      -2.027   7.901  -1.542  0.00  0.00    +0.013 A 
ATOM     28  C   UNL     1      -2.385   9.097  -2.126  0.00  0.00    +0.039 A 
ATOM     29  C   UNL     1      -2.210   9.287  -3.488  0.00  0.00    +0.123 A 
ATOM     30  C   UNL     1      -1.673   8.276  -4.270  0.00  0.00    +0.039 A 
ATOM     31  C   UNL     1      -1.306   7.078  -3.696  0.00  0.00    +0.013 A 
ATOM     32  F   UNL     1      -2.563  10.461  -4.055  0.00  0.00    -0.205 F 
ENDBRANCH  24  26
BRANCH  20  34
ATOM     33  C   UNL     1      -0.013   1.086   0.008  0.00  0.00    +0.093 C 
ATOM     34  S   UNL     1      -0.890   1.687  -1.462  0.00  0.00    -0.091 S 
ENDBRANCH  20  34
ENDBRANCH   1  23
TORSDOF 4
