REMARK  Name = CHEMBL590753
REMARK  4 active torsions:
REMARK  status: ('A' for Active; 'I' for Inactive)
REMARK    1  A    between atoms: C_6  and  C_7
REMARK    2  A    between atoms: C_8  and  C_16
REMARK    3  A    between atoms: N_9  and  C_12
REMARK    4  A    between atoms: C_12  and  C_13
REMARK                            x       y       z     vdW  Elec       q    Type
REMARK                         _______ _______ _______ _____ _____    ______ ____
ROOT
ATOM      1  C   UNL     1      -1.488  -0.570  -0.212  0.00  0.00    +0.098 A 
ATOM      2  C   UNL     1      -1.527  -1.824  -0.797  0.00  0.00    +0.095 A 
ATOM      3  N   UNL     1      -2.777  -2.335  -0.523  0.00  0.00    -0.328 N 
ATOM      4  C   UNL     1      -3.442  -1.408   0.197  0.00  0.00    +0.200 A 
ATOM      5  N   UNL     1      -2.676  -0.368   0.385  0.00  0.00    -0.235 NA
ENDROOT
BRANCH   2   6
ATOM      6  C   UNL     1      -0.450  -2.479  -1.560  0.00  0.00    +0.094 A 
ATOM      7  C   UNL     1      -0.358  -3.877  -1.606  0.00  0.00    +0.050 A 
ATOM      8  C   UNL     1       0.669  -4.445  -2.334  0.00  0.00    +0.116 A 
ATOM      9  N   UNL     1       1.530  -3.659  -2.963  0.00  0.00    -0.223 NA
ATOM     10  C   UNL     1       1.422  -2.340  -2.903  0.00  0.00    +0.213 A 
ATOM     11  N   UNL     1       0.452  -1.752  -2.222  0.00  0.00    -0.213 NA
ATOM     12  N   UNL     1       2.345  -1.556  -3.575  0.00  0.00    -0.327 N 
ATOM     13  H   UNL     1       3.059  -1.974  -4.081  0.00  0.00    +0.145 HD
ATOM     14  H   UNL     1       2.277  -0.589  -3.540  0.00  0.00    +0.145 HD
ENDBRANCH   2   6
BRANCH   1  20
ATOM     15  C   UNL     1      -0.575   1.748  -0.293  0.00  0.00    +0.013 A 
ATOM     16  C   UNL     1       0.492   2.623  -0.312  0.00  0.00    +0.039 A 
ATOM     17  C   UNL     1       1.789   2.137  -0.273  0.00  0.00    +0.123 A 
ATOM     18  C   UNL     1       2.022   0.772  -0.214  0.00  0.00    +0.039 A 
ATOM     19  C   UNL     1       0.962  -0.110  -0.195  0.00  0.00    +0.013 A 
ATOM     20  C   UNL     1      -0.346   0.374  -0.233  0.00  0.00    +0.003 A 
ATOM     21  F   UNL     1       2.831   2.998  -0.292  0.00  0.00    -0.205 F 
ENDBRANCH   1  20
BRANCH   3  22
ATOM     22  C   UNL     1      -3.289  -3.643  -0.938  0.00  0.00    +0.127 C 
BRANCH  22  23
ATOM     23  C   UNL     1      -4.769  -3.753  -0.564  0.00  0.00    +0.009 C 
ATOM     24  C   UNL     1      -5.158  -4.810   0.472  0.00  0.00    +0.005 C 
ATOM     25  C   UNL     1      -5.516  -5.015  -1.001  0.00  0.00    +0.005 C 
ENDBRANCH  22  23
ENDBRANCH   3  22
TORSDOF 4
