REMARK  Name = CHEMBL143134
REMARK  12 active torsions:
REMARK  status: ('A' for Active; 'I' for Inactive)
REMARK    1  A    between atoms: C_1  and  C_2
REMARK    2  A    between atoms: C_5  and  N_8
REMARK    3  A    between atoms: C_9  and  N_17
REMARK    4  A    between atoms: C_11  and  C_13
REMARK    5  A    between atoms: C_13  and  C_14
REMARK    6  A    between atoms: C_13  and  C_15
REMARK    7  A    between atoms: C_13  and  C_16
REMARK    8  A    between atoms: N_20  and  C_21
REMARK    9  A    between atoms: C_24  and  O_31
REMARK   10  A    between atoms: O_31  and  C_32
REMARK   11  A    between atoms: C_32  and  C_33
REMARK   12  A    between atoms: C_33  and  C_34
REMARK                            x       y       z     vdW  Elec       q    Type
REMARK                         _______ _______ _______ _____ _____    ______ ____
ROOT
ATOM      1  N   UNL     1       1.469  -4.545   1.958  0.00  0.00    -0.254 N 
ATOM      2  C   UNL     1       2.045  -5.450   2.774  0.00  0.00    +0.309 C 
ATOM      3  O   UNL     1       1.907  -6.639   2.557  0.00  0.00    -0.252 OA
ATOM      4  N   UNL     1       2.773  -5.038   3.830  0.00  0.00    -0.269 N 
ATOM      5  H   UNL     1       1.579  -3.597   2.131  0.00  0.00    +0.158 HD
ATOM      6  H   UNL     1       2.938  -4.092   3.966  0.00  0.00    +0.156 HD
ENDROOT
BRANCH   4   7
ATOM      7  C   UNL     1       3.291  -5.975   4.731  0.00  0.00    +0.043 A 
ATOM      8  C   UNL     1       3.713  -7.208   4.283  0.00  0.00    +0.027 A 
ATOM      9  C   UNL     1       4.230  -8.149   5.168  0.00  0.00    +0.048 A 
ATOM     10  C   UNL     1       4.334  -7.877   6.503  0.00  0.00    +0.128 A 
ATOM     11  C   UNL     1       3.913  -6.627   6.999  0.00  0.00    +0.026 A 
ATOM     12  C   UNL     1       3.390  -5.662   6.103  0.00  0.00    +0.007 A 
ATOM     13  C   UNL     1       2.976  -4.415   6.597  0.00  0.00    +0.010 A 
ATOM     14  C   UNL     1       3.086  -4.147   7.927  0.00  0.00    +0.001 A 
ATOM     15  C   UNL     1       3.606  -5.094   8.809  0.00  0.00    +0.001 A 
ATOM     16  C   UNL     1       4.006  -6.317   8.366  0.00  0.00    +0.012 A 
BRANCH  10  17
ATOM     17  O   UNL     1       4.842  -8.810   7.351  0.00  0.00    -0.491 OA
BRANCH  17  18
ATOM     18  C   UNL     1       5.248 -10.055   6.778  0.00  0.00    +0.233 C 
BRANCH  18  19
ATOM     19  C   UNL     1       5.788 -10.970   7.878  0.00  0.00    +0.076 C 
BRANCH  19  20
ATOM     20  C   UNL     1       6.217 -12.283   7.274  0.00  0.00    -0.041 A 
ATOM     21  C   UNL     1       5.322 -13.336   7.158  0.00  0.00    +0.023 A 
ATOM     22  C   UNL     1       5.751 -14.525   6.599  0.00  0.00    +0.111 A 
ATOM     23  N   UNL     1       6.993 -14.664   6.179  0.00  0.00    -0.263 NA
ATOM     24  C   UNL     1       7.871 -13.684   6.273  0.00  0.00    +0.111 A 
ATOM     25  C   UNL     1       7.513 -12.464   6.815  0.00  0.00    +0.023 A 
ENDBRANCH  19  20
ENDBRANCH  18  19
ENDBRANCH  17  18
ENDBRANCH  10  17
ENDBRANCH   4   7
BRANCH   1  27
ATOM     26  N   UNL     1       0.082  -4.173  -0.037  0.00  0.00    -0.218 N 
ATOM     27  C   UNL     1       0.716  -4.971   0.864  0.00  0.00    +0.130 A 
ATOM     28  C   UNL     1       0.479  -6.262   0.503  0.00  0.00    +0.069 A 
ATOM     29  C   UNL     1      -0.317  -6.248  -0.646  0.00  0.00    +0.071 A 
ATOM     30  N   UNL     1      -0.560  -5.002  -0.966  0.00  0.00    -0.169 NA
BRANCH  26  35
ATOM     31  C   UNL     1       0.027   1.502  -0.024  0.00  0.00    +0.044 C 
ATOM     32  C   UNL     1       0.042  -0.005  -0.027  0.00  0.00    -0.050 A 
ATOM     33  C   UNL     1       0.049  -0.692  -1.227  0.00  0.00    +0.005 A 
ATOM     34  C   UNL     1       0.062  -2.073  -1.234  0.00  0.00    +0.028 A 
ATOM     35  C   UNL     1       0.069  -2.772  -0.034  0.00  0.00    +0.067 A 
ATOM     36  C   UNL     1       0.062  -2.079   1.169  0.00  0.00    +0.028 A 
ATOM     37  C   UNL     1       0.054  -0.698   1.169  0.00  0.00    +0.005 A 
ENDBRANCH  26  35
BRANCH  29  38
ATOM     38  C   UNL     1      -0.817  -7.461  -1.386  0.00  0.00    +0.006 C 
ATOM     39  C   UNL     1      -1.958  -8.106  -0.597  0.00  0.00    +0.017 C 
ATOM     40  C   UNL     1      -1.325  -7.043  -2.767  0.00  0.00    +0.017 C 
ATOM     41  C   UNL     1       0.325  -8.467  -1.546  0.00  0.00    +0.017 C 
ENDBRANCH  29  38
ENDBRANCH   1  27
TORSDOF 8
