REMARK  Name = CHEMBL365688
REMARK  10 active torsions:
REMARK  status: ('A' for Active; 'I' for Inactive)
REMARK    1  A    between atoms: C_1  and  C_2
REMARK    2  A    between atoms: C_5  and  N_25
REMARK    3  A    between atoms: C_7  and  N_8
REMARK    4  A    between atoms: C_9  and  C_11
REMARK    5  A    between atoms: C_14  and  O_17
REMARK    6  A    between atoms: O_17  and  C_18
REMARK    7  A    between atoms: C_18  and  C_19
REMARK    8  A    between atoms: C_26  and  C_28
REMARK    9  A    between atoms: C_30  and  C_40
REMARK   10  A    between atoms: C_32  and  N_34
REMARK                            x       y       z     vdW  Elec       q    Type
REMARK                         _______ _______ _______ _____ _____    ______ ____
ROOT
ATOM      1  C   UNL     1      -0.168   1.214  -0.089  0.00  0.00    +0.045 C 
ATOM      2  C   UNL     1      -0.068  -0.286  -0.194  0.00  0.00    -0.029 A 
ATOM      3  C   UNL     1      -0.309  -0.911  -1.402  0.00  0.00    +0.007 A 
ATOM      4  C   UNL     1      -0.219  -2.286  -1.502  0.00  0.00    +0.024 A 
ATOM      5  C   UNL     1       0.115  -3.045  -0.387  0.00  0.00    +0.035 A 
ATOM      6  C   UNL     1       0.358  -2.420   0.828  0.00  0.00    +0.047 A 
ATOM      7  C   UNL     1       0.272  -1.038   0.924  0.00  0.00    +0.038 A 
ENDROOT
BRANCH   7   8
ATOM      8  N   UNL     1       0.522  -0.405   2.145  0.00  0.00    -0.281 N 
ATOM      9  C   UNL     1       0.294  -1.057   3.302  0.00  0.00    +0.248 C 
ATOM     10  O   UNL     1      -0.054  -2.222   3.285  0.00  0.00    -0.270 OA
ATOM     11  H   UNL     1       0.859   0.505   2.159  0.00  0.00    +0.155 HD
BRANCH   9  12
ATOM     12  C   UNL     1       0.469  -0.358   4.590  0.00  0.00    +0.037 A 
ATOM     13  C   UNL     1       0.864   0.982   4.612  0.00  0.00    +0.016 A 
ATOM     14  C   UNL     1       1.026   1.631   5.816  0.00  0.00    +0.046 A 
ATOM     15  C   UNL     1       0.796   0.954   7.008  0.00  0.00    +0.121 A 
ATOM     16  C   UNL     1       0.403  -0.379   6.991  0.00  0.00    +0.046 A 
ATOM     17  C   UNL     1       0.233  -1.033   5.791  0.00  0.00    +0.016 A 
BRANCH  15  18
ATOM     18  O   UNL     1       0.957   1.597   8.193  0.00  0.00    -0.486 OA
BRANCH  18  19
ATOM     19  C   UNL     1       0.705   0.842   9.380  0.00  0.00    +0.284 C 
BRANCH  19  20
ATOM     20  C   UNL     1       0.932   1.714  10.587  0.00  0.00    +0.078 A 
ATOM     21  C   UNL     1       1.320   3.030  10.416  0.00  0.00    +0.027 A 
ATOM     22  C   UNL     1       1.527   3.824  11.534  0.00  0.00    +0.003 A 
ATOM     23  C   UNL     1       1.336   3.262  12.787  0.00  0.00    +0.020 A 
ATOM     24  C   UNL     1       0.948   1.939  12.880  0.00  0.00    +0.111 A 
ATOM     25  N   UNL     1       0.755   1.215  11.795  0.00  0.00    -0.256 NA
ENDBRANCH  19  20
ENDBRANCH  18  19
ENDBRANCH  15  18
ENDBRANCH   9  12
ENDBRANCH   7   8
BRANCH   5  26
ATOM     26  N   UNL     1       0.206  -4.437  -0.489  0.00  0.00    -0.281 N 
ATOM     27  C   UNL     1       0.685  -5.000  -1.615  0.00  0.00    +0.248 C 
ATOM     28  O   UNL     1       0.960  -4.304  -2.573  0.00  0.00    -0.270 OA
ATOM     29  H   UNL     1      -0.077  -4.997   0.251  0.00  0.00    +0.155 HD
BRANCH  27  30
ATOM     30  C   UNL     1       0.876  -6.464  -1.686  0.00  0.00    +0.039 A 
ATOM     31  C   UNL     1       0.555  -7.266  -0.589  0.00  0.00    +0.025 A 
ATOM     32  C   UNL     1       0.735  -8.633  -0.657  0.00  0.00    +0.057 A 
ATOM     33  C   UNL     1       1.232  -9.213  -1.810  0.00  0.00    +0.035 A 
ATOM     34  C   UNL     1       1.554  -8.423  -2.907  0.00  0.00    +0.031 A 
ATOM     35  C   UNL     1       1.372  -7.050  -2.851  0.00  0.00    +0.036 A 
BRANCH  34  36
ATOM     36  N   UNL     1       2.057  -9.014  -4.069  0.00  0.00    -0.325 N 
ATOM     37  C   UNL     1       2.526  -8.191  -5.195  0.00  0.00    +0.133 C 
ATOM     38  C   UNL     1       3.925  -8.675  -5.596  0.00  0.00    +0.178 C 
ATOM     39  O   UNL     1       3.890 -10.087  -5.813  0.00  0.00    -0.377 OA
ATOM     40  C   UNL     1       3.550 -10.850  -4.653  0.00  0.00    +0.178 C 
ATOM     41  C   UNL     1       2.137 -10.478  -4.201  0.00  0.00    +0.133 C 
ENDBRANCH  34  36
BRANCH  32  42
ATOM     42  C   UNL     1       0.388  -9.496   0.528  0.00  0.00    +0.417 C 
ATOM     43  F   UNL     1      -0.091  -8.690   1.567  0.00  0.00    -0.166 F 
ATOM     44  F   UNL     1      -0.597 -10.419   0.162  0.00  0.00    -0.166 F 
ATOM     45  F   UNL     1       1.531 -10.179   0.958  0.00  0.00    -0.166 F 
ENDBRANCH  32  42
ENDBRANCH  27  30
ENDBRANCH   5  26
TORSDOF 9
