REMARK  Name = CHEMBL308003
REMARK  5 active torsions:
REMARK  status: ('A' for Active; 'I' for Inactive)
REMARK    1  A    between atoms: C_1  and  C_2
REMARK    2  A    between atoms: C_2  and  C_27
REMARK    3  A    between atoms: C_5  and  C_8
REMARK    4  A    between atoms: C_11  and  C_21
REMARK    5  A    between atoms: C_12  and  C_14
REMARK                            x       y       z     vdW  Elec       q    Type
REMARK                         _______ _______ _______ _____ _____    ______ ____
ROOT
ATOM      1  C   UNL     1      -1.571  -3.936   1.152  0.00  0.00    +0.165 A 
ATOM      2  N   UNL     1      -0.620  -4.815   1.534  0.00  0.00    -0.337 N 
ATOM      3  H   UNL     1       0.210  -4.602   1.988  0.00  0.00    +0.167 HD
ATOM      4  C   UNL     1      -1.047  -6.070   1.162  0.00  0.00    +0.074 A 
ATOM      5  C   UNL     1      -2.275  -5.893   0.550  0.00  0.00    +0.097 A 
ATOM      6  N   UNL     1      -2.550  -4.576   0.576  0.00  0.00    -0.227 NA
ENDROOT
BRANCH   1  11
ATOM      7  C   UNL     1      -0.712   1.630   0.650  0.00  0.00    +0.025 C 
ATOM      8  C   UNL     1      -0.756   0.120   0.405  0.00  0.00    +0.091 C 
ATOM      9  C   UNL     1      -2.212  -0.359   0.416  0.00  0.00    +0.181 C 
ATOM     10  O   UNL     1      -2.231  -1.787   0.319  0.00  0.00    -0.344 OA
ATOM     11  C   UNL     1      -1.513  -2.446   1.364  0.00  0.00    +0.318 C 
ATOM     12  O   UNL     1      -0.150  -2.015   1.350  0.00  0.00    -0.344 OA
ATOM     13  C   UNL     1       0.011  -0.603   1.517  0.00  0.00    +0.181 C 
BRANCH   8  14
ATOM     14  C   UNL     1      -0.128  -0.194  -0.928  0.00  0.00    +0.226 C 
ATOM     15  O   UNL     1      -0.737  -0.851  -1.746  0.00  0.00    -0.275 OA
ATOM     16  N   UNL     1       1.110   0.256  -1.212  0.00  0.00    -0.297 N 
ATOM     17  C   UNL     1       1.915   0.953  -0.196  0.00  0.00    +0.136 C 
ATOM     18  C   UNL     1       3.299   0.296  -0.142  0.00  0.00    +0.179 C 
ATOM     19  O   UNL     1       3.848   0.245  -1.461  0.00  0.00    -0.377 OA
ATOM     20  C   UNL     1       3.092  -0.548  -2.379  0.00  0.00    +0.179 C 
ATOM     21  C   UNL     1       1.700   0.060  -2.546  0.00  0.00    +0.136 C 
ENDBRANCH   8  14
ENDBRANCH   1  11
BRANCH   5  22
ATOM     22  C   UNL     1      -3.132  -6.958  -0.021  0.00  0.00    +0.003 A 
ATOM     23  C   UNL     1      -3.322  -8.152   0.674  0.00  0.00    +0.013 A 
ATOM     24  C   UNL     1      -4.121  -9.140   0.138  0.00  0.00    +0.039 A 
ATOM     25  C   UNL     1      -4.734  -8.949  -1.090  0.00  0.00    +0.123 A 
ATOM     26  C   UNL     1      -4.547  -7.765  -1.785  0.00  0.00    +0.039 A 
ATOM     27  C   UNL     1      -3.756  -6.768  -1.254  0.00  0.00    +0.013 A 
ATOM     28  F   UNL     1      -5.514  -9.920  -1.612  0.00  0.00    -0.205 F 
ENDBRANCH   5  22
BRANCH   4  29
ATOM     29  C   UNL     1      -0.336  -7.346   1.371  0.00  0.00    +0.003 A 
ATOM     30  C   UNL     1      -0.216  -8.282   0.335  0.00  0.00    +0.030 A 
ATOM     31  C   UNL     1       0.456  -9.461   0.575  0.00  0.00    +0.111 A 
ATOM     32  N   UNL     1       0.982  -9.713   1.759  0.00  0.00    -0.263 NA
ATOM     33  C   UNL     1       0.892  -8.860   2.762  0.00  0.00    +0.111 A 
ATOM     34  C   UNL     1       0.243  -7.654   2.609  0.00  0.00    +0.030 A 
ENDBRANCH   4  29
TORSDOF 4
