REMARK  Name = CHEMBL18754
REMARK  9 active torsions:
REMARK  status: ('A' for Active; 'I' for Inactive)
REMARK    1  A    between atoms: C_1  and  C_2
REMARK    2  A    between atoms: C_5  and  N_8
REMARK    3  A    between atoms: N_11  and  C_12
REMARK    4  A    between atoms: C_14  and  C_21
REMARK    5  A    between atoms: C_16  and  C_17
REMARK    6  A    between atoms: N_19  and  C_20
REMARK    7  A    between atoms: C_21  and  C_22
REMARK    8  A    between atoms: C_21  and  C_23
REMARK    9  A    between atoms: C_21  and  C_24
REMARK                            x       y       z     vdW  Elec       q    Type
REMARK                         _______ _______ _______ _____ _____    ______ ____
ROOT
ATOM      1  C   UNL     1       0.308  -6.902   2.324  0.00  0.00    +0.054 A 
ATOM      2  C   UNL     1       0.301  -6.275   3.554  0.00  0.00    +0.036 A 
ATOM      3  C   UNL     1       0.316  -7.030   4.677  0.00  0.00    -0.002 A 
ATOM      4  S   UNL     1       0.341  -8.613   4.117  0.00  0.00    -0.086 S 
ATOM      5  C   UNL     1       0.326  -8.296   2.362  0.00  0.00    +0.095 A 
ENDROOT
BRANCH   1   9
ATOM      6  N   UNL     1      -0.008  -4.182  -0.029  0.00  0.00    -0.269 N 
ATOM      7  C   UNL     1       0.094  -4.857   1.134  0.00  0.00    +0.308 C 
ATOM      8  O   UNL     1       0.008  -4.263   2.191  0.00  0.00    -0.252 OA
ATOM      9  N   UNL     1       0.292  -6.190   1.123  0.00  0.00    -0.268 N 
ATOM     10  H   UNL     1      -0.020  -4.665  -0.870  0.00  0.00    +0.156 HD
ATOM     11  H   UNL     1       0.424  -6.655   0.282  0.00  0.00    +0.156 HD
BRANCH   6  16
ATOM     12  C   UNL     1      -0.361   1.480  -0.000  0.00  0.00    +0.044 C 
ATOM     13  C   UNL     1      -0.268  -0.024  -0.007  0.00  0.00    -0.050 A 
ATOM     14  C   UNL     1       0.467  -0.674   0.967  0.00  0.00    +0.005 A 
ATOM     15  C   UNL     1       0.555  -2.053   0.963  0.00  0.00    +0.023 A 
ATOM     16  C   UNL     1      -0.095  -2.786  -0.021  0.00  0.00    +0.035 A 
ATOM     17  C   UNL     1      -0.833  -2.130  -0.998  0.00  0.00    +0.023 A 
ATOM     18  C   UNL     1      -0.921  -0.751  -0.985  0.00  0.00    +0.005 A 
ENDBRANCH   6  16
ENDBRANCH   1   9
BRANCH   5  19
ATOM     19  C   UNL     1       0.333  -9.219   1.288  0.00  0.00    +0.252 C 
ATOM     20  O   UNL     1       0.322  -8.816   0.139  0.00  0.00    -0.270 OA
ATOM     21  N   UNL     1       0.351 -10.544   1.538  0.00  0.00    -0.314 N 
ATOM     22  C   UNL     1       0.357 -11.498   0.426  0.00  0.00    +0.128 C 
ATOM     23  H   UNL     1       0.359 -10.864   2.453  0.00  0.00    +0.149 HD
ENDBRANCH   5  19
BRANCH   3  24
ATOM     24  C   UNL     1       0.312  -6.557   6.108  0.00  0.00    -0.006 C 
ATOM     25  C   UNL     1      -0.950  -5.733   6.369  0.00  0.00    +0.016 C 
ATOM     26  C   UNL     1       0.335  -7.766   7.045  0.00  0.00    +0.016 C 
ATOM     27  C   UNL     1       1.548  -5.691   6.362  0.00  0.00    +0.016 C 
ENDBRANCH   3  24
TORSDOF 4
