REMARK  Name = CHEMBL569551
REMARK  9 active torsions:
REMARK  status: ('A' for Active; 'I' for Inactive)
REMARK    1  A    between atoms: C_1  and  C_2
REMARK    2  A    between atoms: C_2  and  C_3
REMARK    3  A    between atoms: C_3  and  C_4
REMARK    4  A    between atoms: C_3  and  N_5
REMARK    5  A    between atoms: C_8  and  C_12
REMARK    6  A    between atoms: C_13  and  C_20
REMARK    7  A    between atoms: C_16  and  C_17
REMARK    8  A    between atoms: C_17  and  C_18
REMARK    9  A    between atoms: C_17  and  C_19
REMARK                            x       y       z     vdW  Elec       q    Type
REMARK                         _______ _______ _______ _____ _____    ______ ____
ROOT
ATOM      1  C   UNL     1       4.128  -0.304   5.076  0.00  0.00    +0.052 A 
ATOM      2  C   UNL     1       4.843  -1.568   4.859  0.00  0.00    +0.121 A 
ATOM      3  N   UNL     1       6.114  -1.329   5.066  0.00  0.00    -0.077 NA
ATOM      4  O   UNL     1       6.263   0.035   5.407  0.00  0.00    -0.358 OA
ATOM      5  C   UNL     1       5.062   0.627   5.401  0.00  0.00    +0.148 A 
ENDROOT
BRANCH   1   9
ATOM      6  N   UNL     1      -0.008  -0.140   2.444  0.00  0.00    -0.328 N 
ATOM      7  C   UNL     1       0.650  -0.007   3.661  0.00  0.00    +0.097 A 
ATOM      8  C   UNL     1       2.021  -0.222   3.728  0.00  0.00    +0.050 A 
ATOM      9  C   UNL     1       2.667  -0.084   4.956  0.00  0.00    -0.008 A 
ATOM     10  C   UNL     1       1.899   0.266   6.074  0.00  0.00    +0.026 A 
ATOM     11  C   UNL     1       0.544   0.462   5.923  0.00  0.00    +0.085 A 
ATOM     12  N   UNL     1      -0.035   0.329   4.744  0.00  0.00    -0.350 N 
ATOM     13  H   UNL     1      -0.965   0.013   2.391  0.00  0.00    +0.148 HD
ATOM     14  H   UNL     1      -0.991   0.477   4.669  0.00  0.00    +0.166 HD
BRANCH   6  15
ATOM     15  C   UNL     1       0.742  -0.511   1.242  0.00  0.00    +0.068 C 
ATOM     16  C   UNL     1       0.872  -2.034   1.171  0.00  0.00    +0.028 C 
BRANCH  15  18
ATOM     17  C   UNL     1      -0.019   1.526   0.010  0.00  0.00    +0.005 C 
ATOM     18  C   UNL     1       0.002  -0.004   0.002  0.00  0.00    +0.018 C 
ENDBRANCH  15  18
ENDBRANCH   6  15
ENDBRANCH   1   9
BRANCH   2  19
ATOM     19  C   UNL     1       4.240  -2.869   4.479  0.00  0.00    +0.004 A 
ATOM     20  C   UNL     1       2.979  -3.221   4.957  0.00  0.00    +0.013 A 
ATOM     21  C   UNL     1       2.422  -4.432   4.601  0.00  0.00    +0.039 A 
ATOM     22  C   UNL     1       3.114  -5.297   3.769  0.00  0.00    +0.123 A 
ATOM     23  C   UNL     1       4.368  -4.951   3.291  0.00  0.00    +0.039 A 
ATOM     24  C   UNL     1       4.930  -3.740   3.637  0.00  0.00    +0.013 A 
ATOM     25  F   UNL     1       2.565  -6.482   3.423  0.00  0.00    -0.205 F 
ENDBRANCH   2  19
BRANCH   5  26
ATOM     26  C   UNL     1       4.792   2.078   5.706  0.00  0.00    +0.052 C 
ATOM     27  C   UNL     1       5.264   2.397   7.126  0.00  0.00    +0.015 C 
ATOM     28  C   UNL     1       5.547   2.958   4.708  0.00  0.00    +0.015 C 
ENDBRANCH   5  26
TORSDOF 5
