REMARK  Name = CHEMBL1092974
REMARK  6 active torsions:
REMARK  status: ('A' for Active; 'I' for Inactive)
REMARK    1  A    between atoms: C_1  and  C_2
REMARK    2  A    between atoms: C_2  and  N_3
REMARK    3  A    between atoms: N_10  and  C_11
REMARK    4  A    between atoms: C_11  and  C_13
REMARK    5  A    between atoms: C_11  and  C_14
REMARK    6  A    between atoms: C_20  and  C_22
REMARK                            x       y       z     vdW  Elec       q    Type
REMARK                         _______ _______ _______ _____ _____    ______ ____
ROOT
ATOM      1  N   UNL     1      -1.286  -0.727   0.166  0.00  0.00    -0.252 N 
ATOM      2  C   UNL     1      -1.995  -1.069  -0.979  0.00  0.00    +0.133 A 
ATOM      3  C   UNL     1      -1.332  -1.255  -2.193  0.00  0.00    +0.064 A 
ATOM      4  C   UNL     1      -2.078  -1.595  -3.305  0.00  0.00    +0.118 A 
ATOM      5  N   UNL     1      -3.390  -1.734  -3.188  0.00  0.00    -0.223 NA
ATOM      6  C   UNL     1      -3.992  -1.552  -2.023  0.00  0.00    +0.217 A 
ATOM      7  N   UNL     1      -3.312  -1.230  -0.932  0.00  0.00    -0.199 NA
ATOM      8  N   UNL     1      -5.365  -1.706  -1.941  0.00  0.00    -0.307 N 
ATOM      9  C   UNL     1      -1.918  -0.655   1.354  0.00  0.00    +0.252 C 
ATOM     10  O   UNL     1      -3.090  -0.966   1.439  0.00  0.00    -0.270 OA
ATOM     11  H   UNL     1      -5.818  -1.576  -1.093  0.00  0.00    +0.149 HD
ENDROOT
BRANCH   9  12
ATOM     12  C   UNL     1      -1.187  -0.197   2.553  0.00  0.00    +0.038 A 
ATOM     13  C   UNL     1      -1.458  -0.783   3.803  0.00  0.00    +0.013 A 
ATOM     14  C   UNL     1      -0.800  -0.380   4.919  0.00  0.00    +0.009 A 
ATOM     15  C   UNL     1       0.169   0.638   4.836  0.00  0.00    -0.018 A 
ATOM     16  C   UNL     1       0.863   1.072   5.977  0.00  0.00    +0.008 A 
ATOM     17  C   UNL     1       1.795   2.058   5.866  0.00  0.00    +0.001 A 
ATOM     18  C   UNL     1       2.072   2.648   4.634  0.00  0.00    +0.001 A 
ATOM     19  C   UNL     1       1.420   2.254   3.506  0.00  0.00    +0.008 A 
ATOM     20  C   UNL     1       0.451   1.237   3.582  0.00  0.00    -0.017 A 
ATOM     21  C   UNL     1      -0.235   0.803   2.438  0.00  0.00    +0.021 A 
ENDBRANCH   9  12
BRANCH   1  23
ATOM     22  C   UNL     1       0.362   0.944  -0.523  0.00  0.00    +0.025 C 
ATOM     23  C   UNL     1       0.150  -0.446   0.082  0.00  0.00    +0.112 C 
ENDBRANCH   1  23
BRANCH   8  24
ATOM     24  C   UNL     1      -6.134  -2.067  -3.135  0.00  0.00    +0.100 C 
ATOM     25  C   UNL     1      -6.120  -3.587  -3.310  0.00  0.00    +0.033 C 
BRANCH  24  26
ATOM     26  C   UNL     1      -7.555  -1.592  -2.979  0.00  0.00    -0.027 A 
ATOM     27  C   UNL     1      -8.190  -1.699  -1.756  0.00  0.00    +0.005 A 
ATOM     28  C   UNL     1      -9.494  -1.263  -1.614  0.00  0.00    +0.000 A 
ATOM     29  C   UNL     1     -10.163  -0.720  -2.695  0.00  0.00    +0.000 A 
ATOM     30  C   UNL     1      -9.528  -0.613  -3.918  0.00  0.00    +0.000 A 
ATOM     31  C   UNL     1      -8.223  -1.045  -4.059  0.00  0.00    +0.005 A 
ENDBRANCH  24  26
ENDBRANCH   8  24
TORSDOF 4
