REMARK  Name = CHEMBL270599
REMARK  4 active torsions:
REMARK  status: ('A' for Active; 'I' for Inactive)
REMARK    1  A    between atoms: C_5  and  C_7
REMARK    2  A    between atoms: C_9  and  O_27
REMARK    3  A    between atoms: C_14  and  O_26
REMARK    4  A    between atoms: N_17  and  C_18
REMARK                            x       y       z     vdW  Elec       q    Type
REMARK                         _______ _______ _______ _____ _____    ______ ____
ROOT
ATOM      1  C   UNL     1       1.246  -2.166  -0.022  0.00  0.00    -0.008 A 
ATOM      2  C   UNL     1       0.743  -2.866  -1.116  0.00  0.00    +0.054 A 
ATOM      3  C   UNL     1       0.769  -4.252  -1.122  0.00  0.00    +0.119 A 
ATOM      4  C   UNL     1       1.294  -4.942  -0.039  0.00  0.00    +0.069 A 
ATOM      5  C   UNL     1       1.796  -4.247   1.053  0.00  0.00    +0.049 A 
ATOM      6  C   UNL     1       1.778  -2.860   1.061  0.00  0.00    -0.015 A 
ATOM      7  C   UNL     1       2.327  -2.109   2.245  0.00  0.00    +0.078 C 
ATOM      8  C   UNL     1       3.515  -2.874   2.830  0.00  0.00    +0.205 C 
ATOM      9  C   UNL     1       3.150  -4.323   3.014  0.00  0.00    +0.253 C 
ATOM     10  O   UNL     1       3.594  -4.938   3.960  0.00  0.00    -0.272 OA
ATOM     11  N   UNL     1       2.324  -4.944   2.146  0.00  0.00    -0.235 N 
ENDROOT
BRANCH  11  12
ATOM     12  C   UNL     1       2.010  -6.298   2.326  0.00  0.00    +0.078 A 
ATOM     13  C   UNL     1       0.894  -6.660   3.071  0.00  0.00    +0.064 A 
ATOM     14  C   UNL     1       0.587  -7.997   3.246  0.00  0.00    +0.022 A 
ATOM     15  C   UNL     1       1.388  -8.972   2.681  0.00  0.00    +0.003 A 
ATOM     16  C   UNL     1       2.499  -8.615   1.939  0.00  0.00    +0.022 A 
ATOM     17  C   UNL     1       2.809  -7.280   1.755  0.00  0.00    +0.064 A 
ATOM     18 CL   UNL     1       4.200  -6.833   0.818  0.00  0.00    -0.082 Cl
ATOM     19 CL   UNL     1      -0.112  -5.437   3.781  0.00  0.00    -0.082 Cl
ENDBRANCH  11  12
BRANCH   1  24
ATOM     20  C   UNL     1      -0.017   1.376   0.010  0.00  0.00    +0.001 A 
ATOM     21  C   UNL     1       1.170   2.087   0.002  0.00  0.00    +0.001 A 
ATOM     22  C   UNL     1       2.382   1.420  -0.013  0.00  0.00    +0.020 A 
ATOM     23  C   UNL     1       2.413   0.039  -0.021  0.00  0.00    +0.049 A 
ATOM     24  C   UNL     1       1.219  -0.682  -0.013  0.00  0.00    +0.001 A 
ATOM     25  C   UNL     1       0.002  -0.004   0.002  0.00  0.00    +0.010 A 
ATOM     26 CL   UNL     1       3.934  -0.797  -0.040  0.00  0.00    -0.083 Cl
ENDBRANCH   1  24
BRANCH   8  27
ATOM     27  O   UNL     1       4.628  -2.775   1.940  0.00  0.00    -0.382 OA
ATOM     28  H   UNL     1       5.420  -3.238   2.247  0.00  0.00    +0.210 HD
ENDBRANCH   8  27
BRANCH   3  29
ATOM     29  O   UNL     1       0.279  -4.935  -2.189  0.00  0.00    -0.507 OA
ATOM     30  H   UNL     1       0.935  -5.117  -2.875  0.00  0.00    +0.292 HD
ENDBRANCH   3  29
TORSDOF 4
