REMARK  Name = CHEMBL355703
REMARK  7 active torsions:
REMARK  status: ('A' for Active; 'I' for Inactive)
REMARK    1  A    between atoms: C_1  and  C_2
REMARK    2  A    between atoms: C_2  and  N_3
REMARK    3  A    between atoms: C_7  and  C_15
REMARK    4  A    between atoms: N_10  and  C_13
REMARK    5  A    between atoms: C_13  and  C_14
REMARK    6  A    between atoms: C_20  and  C_21
REMARK    7  A    between atoms: C_25  and  C_27
REMARK                            x       y       z     vdW  Elec       q    Type
REMARK                         _______ _______ _______ _____ _____    ______ ____
ROOT
ATOM      1  N   UNL     1      -1.372  -0.511   0.012  0.00  0.00    -0.292 N 
ATOM      2  C   UNL     1      -2.128  -0.794   1.148  0.00  0.00    +0.070 A 
ATOM      3  C   UNL     1      -1.869  -0.704   2.508  0.00  0.00    +0.028 A 
ATOM      4  C   UNL     1      -2.837  -1.065   3.421  0.00  0.00    +0.011 A 
ATOM      5  C   UNL     1      -4.080  -1.522   2.980  0.00  0.00    -0.012 A 
ATOM      6  C   UNL     1      -4.345  -1.614   1.617  0.00  0.00    +0.036 A 
ATOM      7  C   UNL     1      -3.371  -1.251   0.702  0.00  0.00    +0.070 A 
ATOM      8  N   UNL     1      -3.330  -1.231  -0.691  0.00  0.00    -0.292 N 
ATOM      9  C   UNL     1      -2.122  -0.777  -1.074  0.00  0.00    +0.330 A 
ATOM     10  O   UNL     1      -1.761  -0.633  -2.227  0.00  0.00    -0.246 OA
ENDROOT
BRANCH   5  11
ATOM     11  C   UNL     1      -5.119  -1.910   3.966  0.00  0.00    +0.027 A 
ATOM     12  C   UNL     1      -6.417  -1.496   3.973  0.00  0.00    +0.114 A 
ATOM     13  N   UNL     1      -7.029  -2.073   5.028  0.00  0.00    -0.284 N 
ATOM     14  H   UNL     1      -7.959  -1.957   5.277  0.00  0.00    +0.188 HD
ATOM     15  N   UNL     1      -6.095  -2.869   5.700  0.00  0.00    -0.173 NA
ATOM     16  C   UNL     1      -4.944  -2.784   5.068  0.00  0.00    +0.100 A 
BRANCH  16  17
ATOM     17  C   UNL     1      -3.688  -3.476   5.444  0.00  0.00    +0.003 A 
ATOM     18  C   UNL     1      -2.810  -3.917   4.455  0.00  0.00    +0.010 A 
ATOM     19  C   UNL     1      -1.642  -4.560   4.810  0.00  0.00    +0.001 A 
ATOM     20  C   UNL     1      -1.341  -4.768   6.145  0.00  0.00    +0.003 A 
ATOM     21  C   UNL     1      -2.209  -4.332   7.130  0.00  0.00    -0.050 A 
ATOM     22  C   UNL     1      -3.377  -3.683   6.786  0.00  0.00    +0.013 A 
ATOM     23  C   UNL     1      -1.875  -4.562   8.581  0.00  0.00    +0.044 C 
ENDBRANCH  16  17
ENDBRANCH   5  11
BRANCH   1  25
ATOM     24  C   UNL     1      -0.019   1.526   0.010  0.00  0.00    +0.027 C 
ATOM     25  C   UNL     1       0.002  -0.004   0.002  0.00  0.00    +0.123 C 
ENDBRANCH   1  25
BRANCH   8  26
ATOM     26  C   UNL     1      -4.419  -1.629  -1.586  0.00  0.00    +0.123 C 
ATOM     27  C   UNL     1      -5.298  -0.415  -1.893  0.00  0.00    +0.027 C 
ENDBRANCH   8  26
TORSDOF 4
