REMARK  Name = CHEMBL494469
REMARK  5 active torsions:
REMARK  status: ('A' for Active; 'I' for Inactive)
REMARK    1  A    between atoms: C_1  and  C_2
REMARK    2  A    between atoms: C_5  and  C_26
REMARK    3  A    between atoms: C_7  and  C_8
REMARK    4  A    between atoms: C_23  and  C_25
REMARK    5  A    between atoms: N_28  and  C_29
REMARK                            x       y       z     vdW  Elec       q    Type
REMARK                         _______ _______ _______ _____ _____    ______ ____
ROOT
ATOM      1  C   UNL     1       0.154  -0.502   3.094  0.00  0.00    -0.017 A 
ATOM      2  C   UNL     1       1.110   0.518   3.214  0.00  0.00    +0.009 A 
ATOM      3  C   UNL     1       1.072   1.393   4.256  0.00  0.00    +0.012 A 
ATOM      4  C   UNL     1       0.067   1.277   5.223  0.00  0.00    +0.025 A 
ATOM      5  C   UNL     1      -0.906   0.249   5.112  0.00  0.00    +0.003 A 
ATOM      6  C   UNL     1      -0.855  -0.638   4.032  0.00  0.00    +0.018 A 
ATOM      7  C   UNL     1      -1.897   0.173   6.109  0.00  0.00    +0.112 A 
ATOM      8  N   UNL     1      -1.883   1.045   7.091  0.00  0.00    -0.282 N 
ATOM      9  N   UNL     1      -1.009   1.975   7.198  0.00  0.00    -0.158 NA
ATOM     10  C   UNL     1      -0.029   2.152   6.329  0.00  0.00    +0.150 A 
ATOM     11  N   UNL     1       0.887   3.177   6.499  0.00  0.00    -0.306 N 
ATOM     12  C   UNL     1       2.151   2.951   7.218  0.00  0.00    +0.135 C 
ATOM     13  C   UNL     1       2.305   4.046   8.280  0.00  0.00    +0.179 C 
ATOM     14  O   UNL     1       2.145   5.326   7.664  0.00  0.00    -0.376 OA
ATOM     15  C   UNL     1       0.854   5.541   7.088  0.00  0.00    +0.182 C 
ATOM     16  C   UNL     1       0.629   4.521   5.960  0.00  0.00    +0.097 C 
ATOM     17  C   UNL     1      -0.816   4.609   5.465  0.00  0.00    +0.030 C 
ATOM     18  H   UNL     1      -2.572   0.982   7.771  0.00  0.00    +0.188 HD
ENDROOT
BRANCH   1  25
ATOM     19  C   UNL     1       0.404   0.539   0.410  0.00  0.00    +0.044 C 
ATOM     20  C   UNL     1       0.343  -0.948   0.647  0.00  0.00    -0.043 A 
ATOM     21  C   UNL     1       0.411  -1.820  -0.422  0.00  0.00    +0.005 A 
ATOM     22  C   UNL     1       0.355  -3.183  -0.214  0.00  0.00    +0.013 A 
ATOM     23  C   UNL     1       0.229  -3.689   1.082  0.00  0.00    +0.037 A 
ATOM     24  C   UNL     1       0.160  -2.813   2.164  0.00  0.00    +0.021 A 
ATOM     25  C   UNL     1       0.222  -1.441   1.946  0.00  0.00    -0.014 A 
BRANCH  23  26
ATOM     26  C   UNL     1       0.169  -5.149   1.305  0.00  0.00    +0.244 C 
ATOM     27  O   UNL     1       0.059  -5.588   2.433  0.00  0.00    -0.270 OA
ATOM     28  N   UNL     1       0.235  -5.994   0.257  0.00  0.00    -0.308 N 
ATOM     29  H   UNL     1       0.323  -5.644  -0.643  0.00  0.00    +0.149 HD
BRANCH  28  30
ATOM     30  C   UNL     1       0.175  -7.441   0.478  0.00  0.00    +0.073 C 
ATOM     31  C   UNL     1       1.158  -8.316  -0.302  0.00  0.00    +0.024 C 
ATOM     32  C   UNL     1      -0.326  -8.312  -0.676  0.00  0.00    +0.024 C 
ENDBRANCH  28  30
ENDBRANCH  23  26
ENDBRANCH   1  25
TORSDOF 3
