REMARK  Name = CHEMBL521637
REMARK  9 active torsions:
REMARK  status: ('A' for Active; 'I' for Inactive)
REMARK    1  A    between atoms: C_1  and  C_2
REMARK    2  A    between atoms: C_2  and  C_3
REMARK    3  A    between atoms: C_2  and  N_4
REMARK    4  A    between atoms: C_7  and  C_11
REMARK    5  A    between atoms: C_12  and  C_21
REMARK    6  A    between atoms: C_14  and  S_17
REMARK    7  A    between atoms: S_17  and  C_18
REMARK    8  A    between atoms: C_18  and  C_19
REMARK    9  A    between atoms: C_19  and  O_20
REMARK                            x       y       z     vdW  Elec       q    Type
REMARK                         _______ _______ _______ _____ _____    ______ ____
ROOT
ATOM      1  C   UNL     1       0.146  -4.676  -2.087  0.00  0.00    +0.098 A 
ATOM      2  C   UNL     1       0.206  -6.053  -2.006  0.00  0.00    +0.075 A 
ATOM      3  N   UNL     1       1.361  -6.432  -2.661  0.00  0.00    -0.332 N 
ATOM      4  C   UNL     1       1.959  -5.294  -3.114  0.00  0.00    +0.167 A 
ATOM      5  N   UNL     1       1.228  -4.258  -2.774  0.00  0.00    -0.221 NA
ATOM      6  H   UNL     1       1.687  -7.338  -2.777  0.00  0.00    +0.168 HD
ENDROOT
BRANCH   1  10
ATOM      7  N   UNL     1      -1.372  -0.511   0.012  0.00  0.00    -0.328 N 
ATOM      8  C   UNL     1      -1.652  -1.773  -0.501  0.00  0.00    +0.097 A 
ATOM      9  C   UNL     1      -0.622  -2.548  -1.016  0.00  0.00    +0.051 A 
ATOM     10  C   UNL     1      -0.919  -3.813  -1.527  0.00  0.00    +0.007 A 
ATOM     11  C   UNL     1      -2.252  -4.244  -1.497  0.00  0.00    +0.027 A 
ATOM     12  C   UNL     1      -3.215  -3.413  -0.968  0.00  0.00    +0.085 A 
ATOM     13  N   UNL     1      -2.897  -2.224  -0.488  0.00  0.00    -0.350 N 
ATOM     14  H   UNL     1      -2.087   0.033   0.377  0.00  0.00    +0.148 HD
ATOM     15  H   UNL     1      -3.597  -1.664  -0.118  0.00  0.00    +0.166 HD
BRANCH   7  17
ATOM     16  C   UNL     1      -0.019   1.526   0.010  0.00  0.00    +0.027 C 
ATOM     17  C   UNL     1       0.002  -0.004   0.002  0.00  0.00    +0.065 C 
ATOM     18  C   UNL     1       0.742  -0.511   1.242  0.00  0.00    +0.027 C 
ENDBRANCH   7  17
ENDBRANCH   1  10
BRANCH   2  19
ATOM     19  C   UNL     1      -0.770  -6.944  -1.348  0.00  0.00    +0.001 A 
ATOM     20  C   UNL     1      -1.272  -6.623  -0.084  0.00  0.00    +0.013 A 
ATOM     21  C   UNL     1      -2.184  -7.459   0.525  0.00  0.00    +0.039 A 
ATOM     22  C   UNL     1      -2.603  -8.616  -0.114  0.00  0.00    +0.123 A 
ATOM     23  C   UNL     1      -2.108  -8.939  -1.368  0.00  0.00    +0.039 A 
ATOM     24  C   UNL     1      -1.200  -8.108  -1.990  0.00  0.00    +0.013 A 
ATOM     25  F   UNL     1      -3.496  -9.431   0.488  0.00  0.00    -0.205 F 
ENDBRANCH   2  19
BRANCH   4  26
ATOM     26  S   UNL     1       3.469  -5.225  -4.018  0.00  0.00    -0.086 S 
BRANCH  26  27
ATOM     27  C   UNL     1       3.720  -3.454  -4.319  0.00  0.00    +0.105 C 
BRANCH  27  28
ATOM     28  C   UNL     1       5.015  -3.248  -5.107  0.00  0.00    +0.167 C 
BRANCH  28  29
ATOM     29  O   UNL     1       5.213  -1.853  -5.344  0.00  0.00    -0.394 OA
ATOM     30  H   UNL     1       6.017  -1.648  -5.840  0.00  0.00    +0.209 HD
ENDBRANCH  28  29
ENDBRANCH  27  28
ENDBRANCH  26  27
ENDBRANCH   4  26
TORSDOF 7
