REMARK  Name = CHEMBL495917
REMARK  4 active torsions:
REMARK  status: ('A' for Active; 'I' for Inactive)
REMARK    1  A    between atoms: C_1  and  C_2
REMARK    2  A    between atoms: C_5  and  N_20
REMARK    3  A    between atoms: C_7  and  C_8
REMARK    4  A    between atoms: C_21  and  C_23
REMARK                            x       y       z     vdW  Elec       q    Type
REMARK                         _______ _______ _______ _____ _____    ______ ____
ROOT
ATOM      1  C   UNL     1      -0.044   1.502   0.029  0.00  0.00    +0.044 C 
ATOM      2  C   UNL     1      -0.017  -0.004   0.016  0.00  0.00    -0.043 A 
ATOM      3  C   UNL     1      -0.004  -0.684  -1.186  0.00  0.00    +0.006 A 
ATOM      4  C   UNL     1       0.020  -2.065  -1.204  0.00  0.00    +0.023 A 
ATOM      5  C   UNL     1       0.032  -2.779  -0.011  0.00  0.00    +0.034 A 
ATOM      6  C   UNL     1       0.020  -2.104   1.200  0.00  0.00    +0.032 A 
ATOM      7  C   UNL     1       0.001  -0.711   1.216  0.00  0.00    -0.013 A 
ENDROOT
BRANCH   7   8
ATOM      8  C   UNL     1      -0.006   0.018   2.509  0.00  0.00    -0.017 A 
ATOM      9  C   UNL     1       0.901   1.060   2.727  0.00  0.00    +0.010 A 
ATOM     10  C   UNL     1       0.909   1.741   3.910  0.00  0.00    +0.027 A 
ATOM     11  C   UNL     1       0.008   1.406   4.917  0.00  0.00    +0.049 A 
ATOM     12  C   UNL     1      -0.911   0.359   4.710  0.00  0.00    -0.001 A 
ATOM     13  C   UNL     1      -0.917  -0.332   3.496  0.00  0.00    +0.018 A 
ATOM     14  C   UNL     1      -1.852   0.018   5.779  0.00  0.00    +0.015 A 
ATOM     15  C   UNL     1      -1.804   0.725   6.934  0.00  0.00    +0.071 A 
ATOM     16  C   UNL     1      -0.864   1.766   7.091  0.00  0.00    +0.249 A 
ATOM     17  O   UNL     1      -0.837   2.389   8.138  0.00  0.00    -0.268 OA
ATOM     18  N   UNL     1       0.004   2.086   6.116  0.00  0.00    -0.322 N 
ATOM     19  H   UNL     1       0.638   2.807   6.258  0.00  0.00    +0.169 HD
ENDBRANCH   7   8
BRANCH   5  20
ATOM     20  N   UNL     1       0.056  -4.177  -0.032  0.00  0.00    -0.281 N 
ATOM     21  C   UNL     1       0.739  -4.854   0.913  0.00  0.00    +0.248 C 
ATOM     22  O   UNL     1       1.263  -4.254   1.830  0.00  0.00    -0.270 OA
ATOM     23  H   UNL     1      -0.418  -4.660  -0.727  0.00  0.00    +0.155 HD
BRANCH  21  24
ATOM     24  C   UNL     1       0.850  -6.329   0.833  0.00  0.00    +0.042 A 
ATOM     25  C   UNL     1       0.258  -7.038  -0.220  0.00  0.00    +0.033 A 
ATOM     26  C   UNL     1       0.384  -8.411  -0.260  0.00  0.00    +0.113 A 
ATOM     27  N   UNL     1       1.050  -9.060   0.675  0.00  0.00    -0.240 NA
ATOM     28  C   UNL     1       1.626  -8.432   1.688  0.00  0.00    +0.122 A 
ATOM     29  C   UNL     1       1.552  -7.048   1.800  0.00  0.00    +0.056 A 
ATOM     30  N   UNL     1       2.317  -9.164   2.647  0.00  0.00    -0.315 N 
ATOM     31  C   UNL     1       2.576 -10.610   2.599  0.00  0.00    +0.106 C 
ATOM     32  C   UNL     1       3.349 -10.980   3.883  0.00  0.00    +0.020 C 
ATOM     33  C   UNL     1       2.988  -9.823   4.851  0.00  0.00    +0.020 C 
ATOM     34  C   UNL     1       2.916  -8.617   3.878  0.00  0.00    +0.106 C 
ENDBRANCH  21  24
ENDBRANCH   5  20
TORSDOF 3
