REMARK  Name = CHEMBL69929
REMARK  3 active torsions:
REMARK  status: ('A' for Active; 'I' for Inactive)
REMARK    1  A    between atoms: C_4  and  C_7
REMARK    2  A    between atoms: C_10  and  C_19
REMARK    3  A    between atoms: C_11  and  C_13
REMARK                            x       y       z     vdW  Elec       q    Type
REMARK                         _______ _______ _______ _____ _____    ______ ____
ROOT
ATOM      1  C   UNL     1       3.702  -0.689   0.081  0.00  0.00    +0.139 A 
ATOM      2  N   UNL     1       3.857  -2.046   0.055  0.00  0.00    -0.337 N 
ATOM      3  H   UNL     1       3.153  -2.707   0.146  0.00  0.00    +0.167 HD
ATOM      4  C   UNL     1       5.196  -2.298  -0.124  0.00  0.00    +0.074 A 
ATOM      5  C   UNL     1       5.820  -1.064  -0.203  0.00  0.00    +0.097 A 
ATOM      6  N   UNL     1       4.874  -0.119  -0.078  0.00  0.00    -0.227 NA
ENDROOT
BRANCH   4   7
ATOM      7  C   UNL     1       5.841  -3.623  -0.215  0.00  0.00    +0.002 A 
ATOM      8  C   UNL     1       6.990  -3.896   0.530  0.00  0.00    +0.011 A 
ATOM      9  C   UNL     1       7.589  -5.135   0.442  0.00  0.00    +0.022 A 
ATOM     10  C   UNL     1       7.053  -6.108  -0.385  0.00  0.00    +0.059 A 
ATOM     11  C   UNL     1       5.914  -5.845  -1.128  0.00  0.00    +0.060 A 
ATOM     12  C   UNL     1       5.302  -4.610  -1.043  0.00  0.00    +0.031 A 
ATOM     13 CL   UNL     1       5.250  -7.071  -2.162  0.00  0.00    -0.082 Cl
ATOM     14 CL   UNL     1       7.813  -7.666  -0.491  0.00  0.00    -0.082 Cl
ENDBRANCH   4   7
BRANCH   1  18
ATOM     15  C   UNL     1       0.014   1.359   0.576  0.00  0.00    +0.000 A 
ATOM     16  C   UNL     1       1.185   2.079   0.419  0.00  0.00    +0.001 A 
ATOM     17  C   UNL     1       2.387   1.419   0.257  0.00  0.00    +0.011 A 
ATOM     18  C   UNL     1       2.418   0.024   0.254  0.00  0.00    +0.017 A 
ATOM     19  C   UNL     1       1.233  -0.695   0.414  0.00  0.00    +0.011 A 
ATOM     20  C   UNL     1       0.039  -0.024   0.574  0.00  0.00    +0.001 A 
ENDBRANCH   1  18
BRANCH   5  21
ATOM     21  C   UNL     1       7.269  -0.829  -0.395  0.00  0.00    +0.005 A 
ATOM     22  C   UNL     1       8.006  -1.590  -1.310  0.00  0.00    +0.030 A 
ATOM     23  C   UNL     1       9.354  -1.338  -1.457  0.00  0.00    +0.111 A 
ATOM     24  N   UNL     1       9.947  -0.394  -0.751  0.00  0.00    -0.263 NA
ATOM     25  C   UNL     1       9.290   0.346   0.122  0.00  0.00    +0.111 A 
ATOM     26  C   UNL     1       7.939   0.165   0.328  0.00  0.00    +0.030 A 
ENDBRANCH   5  21
TORSDOF 3
