REMARK  Name = CHEMBL1091552
REMARK  3 active torsions:
REMARK  status: ('A' for Active; 'I' for Inactive)
REMARK    1  A    between atoms: C_6  and  C_7
REMARK    2  A    between atoms: C_8  and  C_19
REMARK    3  A    between atoms: C_9  and  C_13
REMARK                            x       y       z     vdW  Elec       q    Type
REMARK                         _______ _______ _______ _____ _____    ______ ____
ROOT
ATOM      1  C   UNL     1      -1.240  -0.809   0.053  0.00  0.00    +0.074 A 
ATOM      2  C   UNL     1      -1.615  -1.798  -0.847  0.00  0.00    +0.031 A 
ATOM      3  C   UNL     1      -2.929  -2.181  -0.524  0.00  0.00    +0.072 A 
ATOM      4  N   UNL     1      -3.327  -1.474   0.500  0.00  0.00    -0.177 NA
ATOM      5  H   UNL     1      -2.329   0.019   1.626  0.00  0.00    +0.189 HD
ATOM      6  N   UNL     1      -2.296  -0.611   0.889  0.00  0.00    -0.276 N 
ENDROOT
BRANCH   3   7
ATOM      7  C   UNL     1      -3.742  -3.229  -1.239  0.00  0.00    +0.023 C 
ATOM      8  C   UNL     1      -5.016  -2.593  -1.801  0.00  0.00    +0.006 C 
ATOM      9  C   UNL     1      -5.872  -3.680  -2.457  0.00  0.00    -0.018 C 
ATOM     10  C   UNL     1      -6.175  -4.773  -1.429  0.00  0.00    -0.083 C 
ATOM     11  N   UNL     1      -4.918  -5.359  -0.949  0.00  0.00    +0.379 N 
ATOM     12  C   UNL     1      -4.124  -4.338  -0.256  0.00  0.00    -0.073 C 
ATOM     13  H   UNL     1      -5.122  -6.115  -0.312  0.00  0.00    -0.086 HD
ATOM     14  H   UNL     1      -4.393  -5.717  -1.733  0.00  0.00    -0.086 HD
ENDBRANCH   3   7
BRANCH   1  20
ATOM     15  C   UNL     1       0.625   0.397  -1.075  0.00  0.00    +0.013 A 
ATOM     16  C   UNL     1       1.838   1.050  -1.027  0.00  0.00    +0.039 A 
ATOM     17  C   UNL     1       2.497   1.206   0.183  0.00  0.00    +0.123 A 
ATOM     18  C   UNL     1       1.941   0.707   1.350  0.00  0.00    +0.039 A 
ATOM     19  C   UNL     1       0.728   0.052   1.314  0.00  0.00    +0.013 A 
ATOM     20  C   UNL     1       0.060  -0.108   0.098  0.00  0.00    +0.001 A 
ATOM     21  F   UNL     1       3.686   1.847   0.224  0.00  0.00    -0.205 F 
ENDBRANCH   1  20
BRANCH   2  22
ATOM     22  C   UNL     1      -0.784  -2.349  -1.944  0.00  0.00    -0.011 A 
ATOM     23  C   UNL     1      -1.127  -2.133  -3.283  0.00  0.00    +0.028 A 
ATOM     24  C   UNL     1      -0.326  -2.663  -4.272  0.00  0.00    +0.111 A 
ATOM     25  N   UNL     1       0.750  -3.364  -3.969  0.00  0.00    -0.263 NA
ATOM     26  C   UNL     1       1.109  -3.591  -2.720  0.00  0.00    +0.111 A 
ATOM     27  C   UNL     1       0.368  -3.093  -1.669  0.00  0.00    +0.028 A 
ENDBRANCH   2  22
TORSDOF 3
