REMARK  Name = CHEMBL492255
REMARK  8 active torsions:
REMARK  status: ('A' for Active; 'I' for Inactive)
REMARK    1  A    between atoms: C_6  and  C_7
REMARK    2  A    between atoms: C_8  and  C_17
REMARK    3  A    between atoms: C_11  and  S_13
REMARK    4  A    between atoms: S_13  and  C_14
REMARK    5  A    between atoms: C_14  and  C_15
REMARK    6  A    between atoms: C_15  and  O_16
REMARK    7  A    between atoms: N_23  and  C_24
REMARK    8  A    between atoms: C_27  and  O_30
REMARK                            x       y       z     vdW  Elec       q    Type
REMARK                         _______ _______ _______ _____ _____    ______ ____
ROOT
ATOM      1  C   UNL     1      -1.269  -0.764   0.011  0.00  0.00    +0.098 A 
ATOM      2  C   UNL     1      -1.504  -1.967  -0.629  0.00  0.00    +0.075 A 
ATOM      3  N   UNL     1      -2.817  -2.305  -0.350  0.00  0.00    -0.332 N 
ATOM      4  H   UNL     1      -3.285  -3.097  -0.656  0.00  0.00    +0.168 HD
ATOM      5  C   UNL     1      -3.328  -1.317   0.434  0.00  0.00    +0.167 A 
ATOM      6  N   UNL     1      -2.401  -0.412   0.648  0.00  0.00    -0.221 NA
ENDROOT
BRANCH   2   7
ATOM      7  C   UNL     1      -0.548  -2.735  -1.446  0.00  0.00    +0.005 A 
ATOM      8  C   UNL     1       0.264  -2.097  -2.398  0.00  0.00    +0.027 A 
ATOM      9  C   UNL     1       1.144  -2.850  -3.140  0.00  0.00    +0.085 A 
ATOM     10  N   UNL     1       1.235  -4.157  -2.970  0.00  0.00    -0.350 N 
ATOM     11  C   UNL     1       0.491  -4.803  -2.084  0.00  0.00    +0.097 A 
ATOM     12  C   UNL     1      -0.419  -4.120  -1.290  0.00  0.00    +0.051 A 
ATOM     13  N   UNL     1       0.626  -6.180  -1.945  0.00  0.00    -0.328 N 
ATOM     14  H   UNL     1       1.264  -6.662  -2.495  0.00  0.00    +0.148 HD
ATOM     15  H   UNL     1       1.866  -4.659  -3.509  0.00  0.00    +0.166 HD
BRANCH  13  16
ATOM     16  C   UNL     1      -0.193  -6.902  -0.968  0.00  0.00    +0.072 C 
ATOM     17  C   UNL     1       0.481  -6.845   0.404  0.00  0.00    +0.025 C 
ATOM     18  C   UNL     1      -0.374  -7.599   1.424  0.00  0.00    +0.033 C 
ATOM     19  C   UNL     1      -0.520  -9.058   0.988  0.00  0.00    +0.115 C 
ATOM     20  C   UNL     1      -1.194  -9.116  -0.384  0.00  0.00    +0.033 C 
ATOM     21  C   UNL     1      -0.338  -8.361  -1.404  0.00  0.00    +0.025 C 
BRANCH  19  22
ATOM     22  O   UNL     1      -1.319  -9.763   1.941  0.00  0.00    -0.392 OA
ATOM     23  H   UNL     1      -1.453 -10.696   1.728  0.00  0.00    +0.210 HD
ENDBRANCH  19  22
ENDBRANCH  13  16
ENDBRANCH   2   7
BRANCH   1  29
ATOM     24  C   UNL     1      -0.017   1.391   0.010  0.00  0.00    +0.013 A 
ATOM     25  C   UNL     1       1.170   2.094   0.002  0.00  0.00    +0.039 A 
ATOM     26  C   UNL     1       2.379   1.418  -0.013  0.00  0.00    +0.123 A 
ATOM     27  C   UNL     1       2.403   0.032  -0.021  0.00  0.00    +0.039 A 
ATOM     28  C   UNL     1       1.222  -0.680  -0.014  0.00  0.00    +0.013 A 
ATOM     29  C   UNL     1       0.002  -0.004   0.002  0.00  0.00    +0.003 A 
ATOM     30  F   UNL     1       3.538   2.111  -0.020  0.00  0.00    -0.205 F 
ENDBRANCH   1  29
BRANCH   5  31
ATOM     31  S   UNL     1      -4.970  -1.265   1.070  0.00  0.00    -0.086 S 
BRANCH  31  32
ATOM     32  C   UNL     1      -5.024   0.278   2.022  0.00  0.00    +0.105 C 
BRANCH  32  33
ATOM     33  C   UNL     1      -6.414   0.450   2.638  0.00  0.00    +0.167 C 
BRANCH  33  34
ATOM     34  O   UNL     1      -6.457   1.665   3.387  0.00  0.00    -0.394 OA
ATOM     35  H   UNL     1      -7.311   1.839   3.807  0.00  0.00    +0.209 HD
ENDBRANCH  33  34
ENDBRANCH  32  33
ENDBRANCH  31  32
ENDBRANCH   5  31
TORSDOF 8
