REMARK  Name = CHEMBL521722
REMARK  6 active torsions:
REMARK  status: ('A' for Active; 'I' for Inactive)
REMARK    1  A    between atoms: C_1  and  C_2
REMARK    2  A    between atoms: C_5  and  N_20
REMARK    3  A    between atoms: C_7  and  C_8
REMARK    4  A    between atoms: C_11  and  C_14
REMARK    5  A    between atoms: C_16  and  C_19
REMARK    6  A    between atoms: C_21  and  C_23
REMARK                            x       y       z     vdW  Elec       q    Type
REMARK                         _______ _______ _______ _____ _____    ______ ____
ROOT
ATOM      1  C   UNL     1      -0.044   1.502   0.029  0.00  0.00    +0.044 C 
ATOM      2  C   UNL     1      -0.017  -0.004   0.016  0.00  0.00    -0.043 A 
ATOM      3  C   UNL     1      -0.004  -0.684  -1.186  0.00  0.00    +0.006 A 
ATOM      4  C   UNL     1       0.020  -2.066  -1.204  0.00  0.00    +0.023 A 
ATOM      5  C   UNL     1       0.032  -2.779  -0.011  0.00  0.00    +0.034 A 
ATOM      6  C   UNL     1       0.020  -2.104   1.200  0.00  0.00    +0.032 A 
ATOM      7  C   UNL     1       0.001  -0.712   1.217  0.00  0.00    -0.013 A 
ENDROOT
BRANCH   7   8
ATOM      8  C   UNL     1      -0.006   0.017   2.509  0.00  0.00    -0.018 A 
ATOM      9  C   UNL     1       0.897   1.056   2.729  0.00  0.00    +0.009 A 
ATOM     10  C   UNL     1       0.891   1.732   3.929  0.00  0.00    +0.012 A 
ATOM     11  C   UNL     1      -0.020   1.378   4.923  0.00  0.00    +0.022 A 
ATOM     12  C   UNL     1      -0.923   0.339   4.704  0.00  0.00    +0.012 A 
ATOM     13  C   UNL     1      -0.921  -0.333   3.502  0.00  0.00    +0.009 A 
BRANCH  11  14
ATOM     14  C   UNL     1      -0.026   2.106   6.216  0.00  0.00    +0.202 A 
ATOM     15  N   UNL     1      -0.847   1.857   7.253  0.00  0.00    -0.192 NA
ATOM     16  C   UNL     1      -0.589   2.676   8.232  0.00  0.00    +0.225 A 
ATOM     17  O   UNL     1       0.412   3.484   7.858  0.00  0.00    -0.338 OA
ATOM     18  N   UNL     1       0.770   3.095   6.541  0.00  0.00    -0.056 NA
ATOM     19  C   UNL     1      -1.297   2.709   9.562  0.00  0.00    +0.112 C 
ENDBRANCH  11  14
ENDBRANCH   7   8
BRANCH   5  20
ATOM     20  N   UNL     1       0.056  -4.177  -0.032  0.00  0.00    -0.281 N 
ATOM     21  C   UNL     1       0.739  -4.854   0.912  0.00  0.00    +0.248 C 
ATOM     22  O   UNL     1       1.263  -4.255   1.830  0.00  0.00    -0.270 OA
ATOM     23  H   UNL     1      -0.418  -4.660  -0.727  0.00  0.00    +0.155 HD
BRANCH  21  24
ATOM     24  C   UNL     1       0.850  -6.329   0.832  0.00  0.00    +0.042 A 
ATOM     25  C   UNL     1       0.258  -7.038  -0.221  0.00  0.00    +0.033 A 
ATOM     26  C   UNL     1       0.384  -8.411  -0.261  0.00  0.00    +0.113 A 
ATOM     27  N   UNL     1       1.050  -9.060   0.674  0.00  0.00    -0.240 NA
ATOM     28  C   UNL     1       1.626  -8.433   1.687  0.00  0.00    +0.122 A 
ATOM     29  C   UNL     1       1.552  -7.048   1.799  0.00  0.00    +0.056 A 
ATOM     30  N   UNL     1       2.317  -9.165   2.646  0.00  0.00    -0.315 N 
ATOM     31  C   UNL     1       2.576 -10.611   2.598  0.00  0.00    +0.106 C 
ATOM     32  C   UNL     1       3.349 -10.981   3.881  0.00  0.00    +0.020 C 
ATOM     33  C   UNL     1       2.988  -9.824   4.850  0.00  0.00    +0.020 C 
ATOM     34  C   UNL     1       2.916  -8.618   3.877  0.00  0.00    +0.106 C 
ENDBRANCH  21  24
ENDBRANCH   5  20
TORSDOF 4
