REMARK  Name = CHEMBL197581
REMARK  7 active torsions:
REMARK  status: ('A' for Active; 'I' for Inactive)
REMARK    1  A    between atoms: C_1  and  C_2
REMARK    2  A    between atoms: C_2  and  C_3
REMARK    3  A    between atoms: C_5  and  C_24
REMARK    4  A    between atoms: C_6  and  C_8
REMARK    5  A    between atoms: C_15  and  C_17
REMARK    6  A    between atoms: C_17  and  C_18
REMARK    7  A    between atoms: C_28  and  C_30
REMARK                            x       y       z     vdW  Elec       q    Type
REMARK                         _______ _______ _______ _____ _____    ______ ____
ROOT
ATOM      1  C   UNL     1       1.968  -2.007  -4.882  0.00  0.00    -0.005 A 
ATOM      2  C   UNL     1       3.281  -2.403  -5.179  0.00  0.00    +0.029 A 
ATOM      3  C   UNL     1       3.561  -2.914  -6.427  0.00  0.00    +0.113 A 
ATOM      4  N   UNL     1       2.615  -3.035  -7.340  0.00  0.00    -0.240 NA
ATOM      5  C   UNL     1       1.362  -2.675  -7.105  0.00  0.00    +0.125 A 
ATOM      6  C   UNL     1       0.993  -2.156  -5.873  0.00  0.00    +0.053 A 
ATOM      7  N   UNL     1       0.403  -2.824  -8.106  0.00  0.00    -0.270 N 
ATOM      8  C   UNL     1       0.727  -3.430  -9.265  0.00  0.00    +0.223 C 
ATOM      9  O   UNL     1       1.874  -3.761  -9.476  0.00  0.00    -0.275 OA
ATOM     10  H   UNL     1      -0.498  -2.491  -7.968  0.00  0.00    +0.156 HD
ENDROOT
BRANCH   1  14
ATOM     11  C   UNL     1       0.637  -0.789  -1.223  0.00  0.00    +0.079 A 
ATOM     12  N   UNL     1       1.716  -0.180  -1.642  0.00  0.00    -0.243 NA
ATOM     13  C   UNL     1       2.266  -0.468  -2.810  0.00  0.00    +0.086 A 
ATOM     14  C   UNL     1       1.625  -1.454  -3.557  0.00  0.00    +0.047 A 
ATOM     15  S   UNL     1       0.276  -1.868  -2.463  0.00  0.00    -0.071 S 
BRANCH  13  16
ATOM     16  C   UNL     1       3.487   0.217  -3.295  0.00  0.00    +0.002 A 
ATOM     17  C   UNL     1       3.575   0.635  -4.622  0.00  0.00    +0.010 A 
ATOM     18  C   UNL     1       4.715   1.272  -5.067  0.00  0.00    +0.001 A 
ATOM     19  C   UNL     1       5.769   1.496  -4.200  0.00  0.00    +0.003 A 
ATOM     20  C   UNL     1       5.688   1.084  -2.882  0.00  0.00    -0.050 A 
ATOM     21  C   UNL     1       4.550   0.451  -2.423  0.00  0.00    +0.013 A 
ATOM     22  C   UNL     1       6.841   1.332  -1.944  0.00  0.00    +0.044 C 
ENDBRANCH  13  16
BRANCH  11  24
ATOM     23  C   UNL     1      -1.177   0.495  -0.124  0.00  0.00    +0.011 C 
ATOM     24  C   UNL     1      -0.105  -0.579   0.071  0.00  0.00    +0.059 C 
ENDBRANCH  11  24
ENDBRANCH   1  14
BRANCH   8  25
ATOM     25  C   UNL     1      -0.337  -3.696 -10.299  0.00  0.00    +0.131 C 
BRANCH  25  26
ATOM     26  C   UNL     1       0.282  -4.378 -11.492  0.00  0.00    -0.039 A 
ATOM     27  C   UNL     1       0.787  -3.624 -12.534  0.00  0.00    +0.004 A 
ATOM     28  C   UNL     1       1.354  -4.249 -13.629  0.00  0.00    +0.000 A 
ATOM     29  C   UNL     1       1.417  -5.629 -13.681  0.00  0.00    +0.000 A 
ATOM     30  C   UNL     1       0.913  -6.384 -12.638  0.00  0.00    +0.000 A 
ATOM     31  C   UNL     1       0.349  -5.758 -11.541  0.00  0.00    +0.004 A 
ENDBRANCH  25  26
ENDBRANCH   8  25
TORSDOF 5
