REMARK  Name = CHEMBL481882
REMARK  6 active torsions:
REMARK  status: ('A' for Active; 'I' for Inactive)
REMARK    1  A    between atoms: C_1  and  S_2
REMARK    2  A    between atoms: S_2  and  C_3
REMARK    3  A    between atoms: C_6  and  C_16
REMARK    4  A    between atoms: C_7  and  C_9
REMARK    5  A    between atoms: N_22  and  C_23
REMARK    6  A    between atoms: C_23  and  C_24
REMARK                            x       y       z     vdW  Elec       q    Type
REMARK                         _______ _______ _______ _____ _____    ______ ____
ROOT
ATOM      1  C   UNL     1      -0.015   0.952  -2.814  0.00  0.00    +0.167 A 
ATOM      2  N   UNL     1      -0.295   1.133  -4.134  0.00  0.00    -0.332 N 
ATOM      3  H   UNL     1      -1.086   1.557  -4.502  0.00  0.00    +0.168 HD
ATOM      4  C   UNL     1       0.761   0.600  -4.852  0.00  0.00    +0.075 A 
ATOM      5  C   UNL     1       1.655   0.108  -3.920  0.00  0.00    +0.098 A 
ATOM      6  N   UNL     1       1.145   0.348  -2.697  0.00  0.00    -0.221 NA
ENDROOT
BRANCH   4   7
ATOM      7  C   UNL     1       0.904   0.564  -6.319  0.00  0.00    +0.005 A 
ATOM      8  C   UNL     1       1.275  -0.619  -6.978  0.00  0.00    +0.027 A 
ATOM      9  C   UNL     1       1.397  -0.612  -8.349  0.00  0.00    +0.085 A 
ATOM     10  N   UNL     1       1.171   0.487  -9.047  0.00  0.00    -0.350 N 
ATOM     11  C   UNL     1       0.819   1.627  -8.469  0.00  0.00    +0.097 A 
ATOM     12  C   UNL     1       0.668   1.706  -7.092  0.00  0.00    +0.051 A 
ATOM     13  N   UNL     1       0.594   2.754  -9.251  0.00  0.00    -0.323 N 
ATOM     14  H   UNL     1       0.695   2.704 -10.215  0.00  0.00    +0.148 HD
ATOM     15  H   UNL     1       1.266   0.459 -10.012  0.00  0.00    +0.166 HD
BRANCH  13  16
ATOM     16  C   UNL     1       0.205   4.018  -8.621  0.00  0.00    +0.177 C 
BRANCH  16  17
ATOM     17  C   UNL     1       0.024   5.073  -9.681  0.00  0.00    +0.122 A 
ATOM     18  C   UNL     1      -1.123   5.352 -10.326  0.00  0.00    +0.046 A 
ATOM     19  C   UNL     1      -0.840   6.403 -11.228  0.00  0.00    +0.041 A 
ATOM     20  C   UNL     1       0.463   6.704 -11.081  0.00  0.00    +0.195 A 
ATOM     21  O   UNL     1       0.980   5.900 -10.138  0.00  0.00    -0.466 OA
ENDBRANCH  16  17
ENDBRANCH  13  16
ENDBRANCH   4   7
BRANCH   5  22
ATOM     22  C   UNL     1       2.944  -0.559  -4.213  0.00  0.00    +0.003 A 
ATOM     23  C   UNL     1       3.791  -0.045  -5.195  0.00  0.00    +0.013 A 
ATOM     24  C   UNL     1       4.991  -0.669  -5.464  0.00  0.00    +0.039 A 
ATOM     25  C   UNL     1       5.355  -1.807  -4.762  0.00  0.00    +0.123 A 
ATOM     26  C   UNL     1       4.518  -2.322  -3.786  0.00  0.00    +0.039 A 
ATOM     27  C   UNL     1       3.318  -1.701  -3.505  0.00  0.00    +0.013 A 
ATOM     28  F   UNL     1       6.531  -2.416  -5.030  0.00  0.00    -0.205 F 
ENDBRANCH   5  22
BRANCH   1  30
ATOM     29  C   UNL     1      -0.121   0.943   0.002  0.00  0.00    +0.093 C 
ATOM     30  S   UNL     1      -1.043   1.455  -1.474  0.00  0.00    -0.091 S 
ENDBRANCH   1  30
TORSDOF 5
