REMARK  Name = CHEMBL245230
REMARK  11 active torsions:
REMARK  status: ('A' for Active; 'I' for Inactive)
REMARK    1  A    between atoms: C_1  and  C_2
REMARK    2  A    between atoms: C_2  and  C_3
REMARK    3  A    between atoms: C_2  and  C_4
REMARK    4  A    between atoms: C_2  and  C_5
REMARK    5  A    between atoms: C_7  and  N_18
REMARK    6  A    between atoms: C_8  and  O_16
REMARK    7  A    between atoms: C_9  and  N_11
REMARK    8  A    between atoms: N_11  and  S_12
REMARK    9  A    between atoms: S_12  and  C_15
REMARK   10  A    between atoms: O_16  and  C_17
REMARK   11  A    between atoms: N_21  and  C_22
REMARK                            x       y       z     vdW  Elec       q    Type
REMARK                         _______ _______ _______ _____ _____    ______ ____
ROOT
ATOM      1  C   UNL     1       0.643  -0.476  -1.867  0.00  0.00    -0.038 A 
ATOM      2  C   UNL     1       0.160  -1.081  -3.012  0.00  0.00    +0.031 A 
ATOM      3  C   UNL     1       0.969  -1.191  -4.135  0.00  0.00    +0.079 A 
ATOM      4  C   UNL     1       2.267  -0.691  -4.107  0.00  0.00    +0.163 A 
ATOM      5  C   UNL     1       2.748  -0.084  -2.952  0.00  0.00    +0.091 A 
ATOM      6  C   UNL     1       1.930   0.027  -1.835  0.00  0.00    +0.032 A 
ENDROOT
BRANCH   3   7
ATOM      7  N   UNL     1       0.478  -1.805  -5.296  0.00  0.00    -0.266 N 
ATOM      8  C   UNL     1      -0.846  -1.809  -5.547  0.00  0.00    +0.308 C 
ATOM      9  O   UNL     1      -1.621  -1.346  -4.733  0.00  0.00    -0.252 OA
ATOM     10  N   UNL     1      -1.310  -2.328  -6.702  0.00  0.00    -0.269 N 
ATOM     11  H   UNL     1       1.092  -2.226  -5.918  0.00  0.00    +0.156 HD
ATOM     12  H   UNL     1      -0.701  -2.763  -7.318  0.00  0.00    +0.156 HD
BRANCH  10  13
ATOM     13  C   UNL     1      -2.669  -2.239  -7.010  0.00  0.00    +0.042 A 
ATOM     14  C   UNL     1      -3.406  -1.150  -6.596  0.00  0.00    +0.024 A 
ATOM     15  C   UNL     1      -4.761  -1.052  -6.898  0.00  0.00    +0.002 A 
ATOM     16  C   UNL     1      -5.396  -2.026  -7.607  0.00  0.00    +0.008 A 
ATOM     17  C   UNL     1      -4.680  -3.152  -8.047  0.00  0.00    -0.016 A 
ATOM     18  C   UNL     1      -3.299  -3.260  -7.752  0.00  0.00    +0.003 A 
ATOM     19  C   UNL     1      -2.585  -4.384  -8.197  0.00  0.00    +0.010 A 
ATOM     20  C   UNL     1      -3.225  -5.350  -8.911  0.00  0.00    +0.001 A 
ATOM     21  C   UNL     1      -4.582  -5.242  -9.207  0.00  0.00    +0.001 A 
ATOM     22  C   UNL     1      -5.309  -4.173  -8.781  0.00  0.00    +0.008 A 
ENDBRANCH  10  13
ENDBRANCH   3   7
BRANCH   1  24
ATOM     23  C   UNL     1      -0.425   1.117  -0.295  0.00  0.00    +0.015 C 
ATOM     24  C   UNL     1      -0.239  -0.359  -0.650  0.00  0.00    -0.013 C 
ATOM     25  C   UNL     1       0.416  -1.087   0.526  0.00  0.00    +0.015 C 
ATOM     26  C   UNL     1      -1.601  -0.989  -0.946  0.00  0.00    +0.015 C 
ENDBRANCH   1  24
BRANCH   5  27
ATOM     27  N   UNL     1       4.054   0.420  -2.917  0.00  0.00    -0.217 N 
ATOM     28  H   UNL     1       4.441   0.820  -3.712  0.00  0.00    +0.173 HD
BRANCH  27  29
ATOM     29  S   UNL     1       4.937   0.335  -1.519  0.00  0.00    +0.040 S 
ATOM     30  O   UNL     1       6.221   0.834  -1.870  0.00  0.00    -0.155 OA
ATOM     31  O   UNL     1       4.143   1.001  -0.547  0.00  0.00    -0.155 OA
ATOM     32  C   UNL     1       5.037  -1.435  -1.138  0.00  0.00    +0.218 C 
ENDBRANCH  27  29
ENDBRANCH   5  27
BRANCH   4  33
ATOM     33  O   UNL     1       3.063  -0.798  -5.205  0.00  0.00    -0.491 OA
ATOM     34  C   UNL     1       3.019   0.278  -6.145  0.00  0.00    +0.277 C 
ENDBRANCH   4  33
TORSDOF 6
