REMARK  Name = CHEMBL200820
REMARK  10 active torsions:
REMARK  status: ('A' for Active; 'I' for Inactive)
REMARK    1  A    between atoms: C_1  and  C_2
REMARK    2  A    between atoms: C_2  and  C_3
REMARK    3  A    between atoms: C_2  and  C_4
REMARK    4  A    between atoms: C_2  and  N_33
REMARK    5  A    between atoms: C_5  and  C_6
REMARK    6  A    between atoms: C_9  and  O_31
REMARK    7  A    between atoms: C_10  and  C_12
REMARK    8  A    between atoms: C_16  and  N_22
REMARK    9  A    between atoms: N_22  and  C_23
REMARK   10  A    between atoms: O_31  and  C_32
REMARK                            x       y       z     vdW  Elec       q    Type
REMARK                         _______ _______ _______ _____ _____    ______ ____
ROOT
ATOM      1  C   UNL     1      -4.762  -4.862  -0.709  0.00  0.00    +0.105 A 
ATOM      2  C   UNL     1      -4.254  -5.841   0.257  0.00  0.00    +0.046 A 
ATOM      3  C   UNL     1      -3.337  -5.780   1.313  0.00  0.00    +0.017 A 
ATOM      4  C   UNL     1      -3.097  -6.921   2.029  0.00  0.00    +0.044 A 
ATOM      5  C   UNL     1      -3.764  -8.100   1.690  0.00  0.00    +0.125 A 
ATOM      6  N   UNL     1      -4.626  -8.139   0.690  0.00  0.00    -0.213 NA
ATOM      7  C   UNL     1      -4.895  -7.059  -0.035  0.00  0.00    +0.158 A 
ATOM      8  N   UNL     1      -5.724  -6.824  -1.098  0.00  0.00    -0.260 N 
ATOM      9  N   UNL     1      -5.624  -5.482  -1.479  0.00  0.00    -0.171 NA
ATOM     10  H   UNL     1      -6.295  -7.485  -1.520  0.00  0.00    +0.191 HD
ENDROOT
BRANCH   1  15
ATOM     11  C   UNL     1      -2.680  -1.725  -0.832  0.00  0.00    +0.026 A 
ATOM     12  C   UNL     1      -3.670  -0.749  -0.961  0.00  0.00    +0.020 A 
ATOM     13  C   UNL     1      -5.000  -1.112  -1.007  0.00  0.00    +0.047 A 
ATOM     14  C   UNL     1      -5.362  -2.448  -0.927  0.00  0.00    +0.129 A 
ATOM     15  C   UNL     1      -4.377  -3.434  -0.797  0.00  0.00    +0.046 A 
ATOM     16  C   UNL     1      -3.034  -3.070  -0.755  0.00  0.00    +0.030 A 
BRANCH  11  18
ATOM     17  C   UNL     1      -0.169  -1.032  -0.745  0.00  0.00    -0.110 C 
ATOM     18  C   UNL     1      -1.300  -1.344  -0.784  0.00  0.00    -0.068 C 
BRANCH  17  20
ATOM     19  C   UNL     1       1.362   0.882  -0.798  0.00  0.00    +0.002 C 
ATOM     20  C   UNL     1       1.249  -0.640  -0.696  0.00  0.00    -0.012 C 
ATOM     21  C   UNL     1       1.862  -1.109   0.625  0.00  0.00    +0.002 C 
BRANCH  20  22
ATOM     22  N   UNL     1       1.967  -1.261  -1.817  0.00  0.00    +0.389 N 
ATOM     23  H   UNL     1       2.939  -0.992  -1.784  0.00  0.00    -0.088 HD
ATOM     24  H   UNL     1       1.893  -2.265  -1.750  0.00  0.00    -0.088 HD
ATOM     25  H   UNL     1       1.563  -0.951  -2.688  0.00  0.00    -0.088 HD
ENDBRANCH  20  22
ENDBRANCH  17  20
ENDBRANCH  11  18
BRANCH  14  26
ATOM     26  O   UNL     1      -6.672  -2.801  -0.973  0.00  0.00    -0.494 OA
ATOM     27  C   UNL     1      -7.624  -1.743  -1.106  0.00  0.00    +0.277 C 
ENDBRANCH  14  26
ENDBRANCH   1  15
BRANCH   5  28
ATOM     28  N   UNL     1      -3.516  -9.255   2.421  0.00  0.00    -0.297 N 
ATOM     29  H   UNL     1      -2.959  -9.218   3.214  0.00  0.00    +0.154 HD
BRANCH  28  30
ATOM     30  C   UNL     1      -4.069 -10.475   2.011  0.00  0.00    +0.068 A 
ATOM     31  C   UNL     1      -4.472 -10.648   0.694  0.00  0.00    +0.029 A 
ATOM     32  C   UNL     1      -5.017 -11.852   0.291  0.00  0.00    +0.040 A 
ATOM     33  C   UNL     1      -5.163 -12.886   1.200  0.00  0.00    +0.126 A 
ATOM     34  C   UNL     1      -4.762 -12.718   2.515  0.00  0.00    +0.078 A 
ATOM     35  C   UNL     1      -4.211 -11.516   2.921  0.00  0.00    +0.147 A 
ATOM     36  F   UNL     1      -3.815 -11.353   4.203  0.00  0.00    -0.203 F 
ATOM     37  F   UNL     1      -5.697 -14.062   0.803  0.00  0.00    -0.205 F 
ENDBRANCH  28  30
ENDBRANCH   5  28
TORSDOF 7
