REMARK  Name = CHEMBL522877
REMARK  5 active torsions:
REMARK  status: ('A' for Active; 'I' for Inactive)
REMARK    1  A    between atoms: C_1  and  C_2
REMARK    2  A    between atoms: C_7  and  C_8
REMARK    3  A    between atoms: C_17  and  N_18
REMARK    4  A    between atoms: C_23  and  C_25
REMARK    5  A    between atoms: N_29  and  C_30
REMARK                            x       y       z     vdW  Elec       q    Type
REMARK                         _______ _______ _______ _____ _____    ______ ____
ROOT
ATOM      1  C   UNL     1      -0.268  -0.533   3.304  0.00  0.00    -0.013 A 
ATOM      2  C   UNL     1       0.892   0.234   3.496  0.00  0.00    +0.009 A 
ATOM      3  C   UNL     1       0.973   1.137   4.511  0.00  0.00    +0.012 A 
ATOM      4  C   UNL     1      -0.113   1.306   5.378  0.00  0.00    +0.023 A 
ATOM      5  C   UNL     1      -1.292   0.535   5.194  0.00  0.00    +0.006 A 
ATOM      6  C   UNL     1      -1.360  -0.384   4.142  0.00  0.00    +0.018 A 
ATOM      7  C   UNL     1      -2.357   0.742   6.092  0.00  0.00    +0.141 A 
ATOM      8  N   UNL     1      -2.221   1.627   7.051  0.00  0.00    -0.180 NA
ATOM      9  N   UNL     1      -1.161   2.325   7.224  0.00  0.00    -0.264 N 
ATOM     10  C   UNL     1      -0.094   2.226   6.450  0.00  0.00    +0.123 A 
ATOM     11  H   UNL     1      -1.141   2.959   7.958  0.00  0.00    +0.190 HD
ENDROOT
BRANCH   1  18
ATOM     12  C   UNL     1      -0.169   0.407   0.580  0.00  0.00    +0.044 C 
ATOM     13  C   UNL     1      -0.280  -1.067   0.871  0.00  0.00    -0.039 A 
ATOM     14  C   UNL     1      -0.328  -1.974  -0.174  0.00  0.00    +0.005 A 
ATOM     15  C   UNL     1      -0.429  -3.325   0.076  0.00  0.00    +0.015 A 
ATOM     16  C   UNL     1      -0.483  -3.788   1.391  0.00  0.00    +0.063 A 
ATOM     17  C   UNL     1      -0.435  -2.879   2.457  0.00  0.00    +0.177 A 
ATOM     18  C   UNL     1      -0.327  -1.509   2.188  0.00  0.00    +0.031 A 
ATOM     19  O   UNL     1      -0.504  -3.594   3.598  0.00  0.00    -0.352 OA
ATOM     20  N   UNL     1      -0.597  -4.970   3.287  0.00  0.00    -0.062 NA
ATOM     21  C   UNL     1      -0.589  -5.127   1.992  0.00  0.00    +0.170 A 
ATOM     22  N   UNL     1      -0.664  -6.332   1.308  0.00  0.00    -0.323 N 
ATOM     23  H   UNL     1      -0.650  -6.341   0.338  0.00  0.00    +0.148 HD
BRANCH  22  24
ATOM     24  C   UNL     1      -0.765  -7.591   2.051  0.00  0.00    +0.072 C 
ATOM     25  C   UNL     1       0.097  -8.762   1.578  0.00  0.00    +0.024 C 
ATOM     26  C   UNL     1      -1.415  -8.780   1.341  0.00  0.00    +0.024 C 
ENDBRANCH  22  24
ENDBRANCH   1  18
BRANCH  10  27
ATOM     27  N   UNL     1       1.024   3.009   6.687  0.00  0.00    -0.308 N 
ATOM     28  C   UNL     1       2.107   2.538   7.566  0.00  0.00    +0.135 C 
ATOM     29  C   UNL     1       2.411   3.637   8.590  0.00  0.00    +0.179 C 
ATOM     30  O   UNL     1       2.641   4.870   7.904  0.00  0.00    -0.376 OA
ATOM     31  C   UNL     1       1.514   5.348   7.165  0.00  0.00    +0.182 C 
ATOM     32  C   UNL     1       1.167   4.334   6.063  0.00  0.00    +0.097 C 
ATOM     33  C   UNL     1      -0.149   4.732   5.391  0.00  0.00    +0.030 C 
ENDBRANCH  10  27
TORSDOF 3
