REMARK  Name = CHEMBL423071
REMARK  6 active torsions:
REMARK  status: ('A' for Active; 'I' for Inactive)
REMARK    1  A    between atoms: C_1  and  C_2
REMARK    2  A    between atoms: C_2  and  C_34
REMARK    3  A    between atoms: C_5  and  C_8
REMARK    4  A    between atoms: C_11  and  C_21
REMARK    5  A    between atoms: C_12  and  C_14
REMARK    6  A    between atoms: N_27  and  C_28
REMARK                            x       y       z     vdW  Elec       q    Type
REMARK                         _______ _______ _______ _____ _____    ______ ____
ROOT
ATOM      1  C   UNL     1      -1.552  -4.701   1.175  0.00  0.00    +0.165 A 
ATOM      2  N   UNL     1      -2.515  -5.303   0.538  0.00  0.00    -0.225 NA
ATOM      3  H   UNL     1       0.203  -5.430   2.031  0.00  0.00    +0.167 HD
ATOM      4  C   UNL     1      -2.257  -6.624   0.473  0.00  0.00    +0.115 A 
ATOM      5  C   UNL     1      -1.050  -6.842   1.115  0.00  0.00    +0.076 A 
ATOM      6  N   UNL     1      -0.617  -5.613   1.547  0.00  0.00    -0.337 N 
ENDROOT
BRANCH   4   7
ATOM      7  C   UNL     1      -3.106  -7.651  -0.167  0.00  0.00    +0.096 A 
ATOM      8  C   UNL     1      -4.481  -7.441  -0.322  0.00  0.00    +0.050 A 
ATOM      9  C   UNL     1      -5.234  -8.430  -0.926  0.00  0.00    +0.116 A 
ATOM     10  N   UNL     1      -4.638  -9.539  -1.337  0.00  0.00    -0.223 NA
ATOM     11  C   UNL     1      -3.333  -9.712  -1.179  0.00  0.00    +0.220 A 
ATOM     12  N   UNL     1      -2.573  -8.789  -0.611  0.00  0.00    -0.213 NA
ATOM     13  N   UNL     1      -2.749 -10.887  -1.623  0.00  0.00    -0.284 N 
ATOM     14  H   UNL     1      -1.813 -11.062  -1.443  0.00  0.00    +0.155 HD
BRANCH  13  15
ATOM     15  C   UNL     1      -3.511 -11.821  -2.333  0.00  0.00    +0.034 A 
ATOM     16  C   UNL     1      -4.526 -11.393  -3.179  0.00  0.00    +0.023 A 
ATOM     17  C   UNL     1      -5.276 -12.318  -3.878  0.00  0.00    +0.002 A 
ATOM     18  C   UNL     1      -5.017 -13.669  -3.737  0.00  0.00    +0.000 A 
ATOM     19  C   UNL     1      -4.007 -14.099  -2.896  0.00  0.00    +0.002 A 
ATOM     20  C   UNL     1      -3.250 -13.179  -2.198  0.00  0.00    +0.023 A 
ENDBRANCH  13  15
ENDBRANCH   4   7
BRANCH   1  25
ATOM     21  C   UNL     1      -0.601   0.868   0.933  0.00  0.00    +0.025 C 
ATOM     22  C   UNL     1      -0.656  -0.630   0.625  0.00  0.00    +0.091 C 
ATOM     23  C   UNL     1      -2.117  -1.088   0.563  0.00  0.00    +0.181 C 
ATOM     24  O   UNL     1      -2.152  -2.510   0.407  0.00  0.00    -0.344 OA
ATOM     25  C   UNL     1      -1.481  -3.221   1.450  0.00  0.00    +0.318 C 
ATOM     26  O   UNL     1      -0.113  -2.810   1.503  0.00  0.00    -0.344 OA
ATOM     27  C   UNL     1       0.060  -1.409   1.733  0.00  0.00    +0.181 C 
BRANCH  22  28
ATOM     28  C   UNL     1       0.017  -0.899  -0.697  0.00  0.00    +0.226 C 
ATOM     29  O   UNL     1      -0.571  -1.513  -1.562  0.00  0.00    -0.275 OA
ATOM     30  N   UNL     1       1.270  -0.457  -0.917  0.00  0.00    -0.297 N 
ATOM     31  C   UNL     1       2.046   0.186   0.155  0.00  0.00    +0.136 C 
ATOM     32  C   UNL     1       3.418  -0.493   0.233  0.00  0.00    +0.179 C 
ATOM     33  O   UNL     1       4.015  -0.499  -1.066  0.00  0.00    -0.377 OA
ATOM     34  C   UNL     1       3.283  -1.244  -2.043  0.00  0.00    +0.179 C 
ATOM     35  C   UNL     1       1.906  -0.608  -2.235  0.00  0.00    +0.136 C 
ENDBRANCH  22  28
ENDBRANCH   1  25
BRANCH   5  36
ATOM     36  C   UNL     1      -0.363  -8.137   1.295  0.00  0.00    +0.001 A 
ATOM     37  C   UNL     1      -1.085  -9.264   1.694  0.00  0.00    +0.013 A 
ATOM     38  C   UNL     1      -0.438 -10.470   1.861  0.00  0.00    +0.039 A 
ATOM     39  C   UNL     1       0.925 -10.566   1.632  0.00  0.00    +0.123 A 
ATOM     40  C   UNL     1       1.647  -9.451   1.236  0.00  0.00    +0.039 A 
ATOM     41  C   UNL     1       1.009  -8.241   1.060  0.00  0.00    +0.013 A 
ATOM     42  F   UNL     1       1.554 -11.751   1.796  0.00  0.00    -0.205 F 
ENDBRANCH   5  36
TORSDOF 5
