REMARK  Name = CHEMBL211795
REMARK  7 active torsions:
REMARK  status: ('A' for Active; 'I' for Inactive)
REMARK    1  A    between atoms: C_1  and  N_2
REMARK    2  A    between atoms: N_2  and  C_3
REMARK    3  A    between atoms: N_2  and  C_4
REMARK    4  A    between atoms: C_4  and  C_5
REMARK    5  A    between atoms: C_5  and  N_6
REMARK    6  A    between atoms: C_14  and  C_31
REMARK    7  A    between atoms: N_18  and  C_23
REMARK                            x       y       z     vdW  Elec       q    Type
REMARK                         _______ _______ _______ _____ _____    ______ ____
ROOT
ATOM      1  N   UNL     1      -2.921  -0.749  -2.288  0.00  0.00    -0.301 NA
ATOM      2  C   UNL     1      -2.987  -2.216  -2.312  0.00  0.00    +0.103 C 
ATOM      3  C   UNL     1      -4.350  -2.671  -1.780  0.00  0.00    +0.123 C 
ATOM      4  N   UNL     1      -5.403  -1.989  -2.547  0.00  0.00    -0.297 N 
ATOM      5  C   UNL     1      -5.327  -0.526  -2.684  0.00  0.00    +0.123 C 
ATOM      6  C   UNL     1      -3.925  -0.156  -3.181  0.00  0.00    +0.103 C 
ATOM      7  C   UNL     1      -6.438  -2.704  -3.125  0.00  0.00    +0.220 A 
ATOM      8  N   UNL     1      -6.470  -4.018  -2.971  0.00  0.00    -0.214 NA
ATOM      9  C   UNL     1      -7.452  -4.744  -3.514  0.00  0.00    +0.084 A 
ATOM     10  C   UNL     1      -8.434  -4.086  -4.238  0.00  0.00    +0.036 A 
ATOM     11  C   UNL     1      -8.370  -2.702  -4.380  0.00  0.00    +0.144 A 
ATOM     12  N   UNL     1      -7.365  -2.048  -3.808  0.00  0.00    -0.198 NA
ATOM     13  N   UNL     1      -9.347  -2.038  -5.104  0.00  0.00    -0.205 N 
ATOM     14  C   UNL     1     -10.375  -2.666  -5.690  0.00  0.00    +0.312 C 
ATOM     15  O   UNL     1     -11.185  -2.001  -6.306  0.00  0.00    -0.252 OA
ATOM     16  N   UNL     1     -10.555  -3.998  -5.630  0.00  0.00    -0.294 N 
ATOM     17  C   UNL     1      -9.581  -4.819  -4.888  0.00  0.00    +0.146 C 
ATOM     18  H   UNL     1     -11.314  -4.412  -6.069  0.00  0.00    +0.151 HD
ENDROOT
BRANCH  13  19
ATOM     19  C   UNL     1      -9.256  -0.644  -5.229  0.00  0.00    +0.081 A 
ATOM     20  C   UNL     1      -9.858   0.180  -4.287  0.00  0.00    +0.064 A 
ATOM     21  C   UNL     1      -9.766   1.554  -4.413  0.00  0.00    +0.022 A 
ATOM     22  C   UNL     1      -9.077   2.107  -5.476  0.00  0.00    +0.003 A 
ATOM     23  C   UNL     1      -8.477   1.290  -6.416  0.00  0.00    +0.022 A 
ATOM     24  C   UNL     1      -8.559  -0.085  -6.293  0.00  0.00    +0.064 A 
ATOM     25 CL   UNL     1      -7.798  -1.110  -7.469  0.00  0.00    -0.082 Cl
ATOM     26 CL   UNL     1     -10.725  -0.514  -2.953  0.00  0.00    -0.082 Cl
ENDBRANCH  13  19
BRANCH   9  27
ATOM     27  C   UNL     1      -7.492  -6.216  -3.345  0.00  0.00    +0.019 A 
ATOM     28  C   UNL     1      -7.572  -7.047  -4.461  0.00  0.00    +0.011 A 
ATOM     29  C   UNL     1      -7.608  -8.416  -4.298  0.00  0.00    +0.001 A 
ATOM     30  C   UNL     1      -7.565  -8.967  -3.029  0.00  0.00    +0.001 A 
ATOM     31  C   UNL     1      -7.486  -8.149  -1.917  0.00  0.00    +0.020 A 
ATOM     32  C   UNL     1      -7.442  -6.776  -2.068  0.00  0.00    +0.050 A 
ATOM     33 CL   UNL     1      -7.335  -5.750  -0.672  0.00  0.00    -0.083 Cl
ENDBRANCH   9  27
BRANCH   1  34
ATOM     34  C   UNL     1      -1.571  -0.278  -2.628  0.00  0.00    +0.066 C 
BRANCH  34  35
ATOM     35  C   UNL     1      -0.590  -0.711  -1.537  0.00  0.00    -0.064 C 
BRANCH  35  37
ATOM     36  C   UNL     1       0.783   1.229  -1.860  0.00  0.00    -0.097 C 
ATOM     37  N   UNL     1       0.759  -0.240  -1.877  0.00  0.00    +0.377 N 
ATOM     38  C   UNL     1       1.720  -0.757  -0.894  0.00  0.00    -0.097 C 
ATOM     39  H   UNL     1       1.009  -0.570  -2.797  0.00  0.00    -0.083 HD
ENDBRANCH  35  37
ENDBRANCH  34  35
ENDBRANCH   1  34
TORSDOF 5
