REMARK  Name = CHEMBL142115
REMARK  12 active torsions:
REMARK  status: ('A' for Active; 'I' for Inactive)
REMARK    1  A    between atoms: C_1  and  C_2
REMARK    2  A    between atoms: C_5  and  N_8
REMARK    3  A    between atoms: C_9  and  N_17
REMARK    4  A    between atoms: C_11  and  C_13
REMARK    5  A    between atoms: C_13  and  C_14
REMARK    6  A    between atoms: C_13  and  C_15
REMARK    7  A    between atoms: C_13  and  C_16
REMARK    8  A    between atoms: N_20  and  C_21
REMARK    9  A    between atoms: C_24  and  O_31
REMARK   10  A    between atoms: O_31  and  C_32
REMARK   11  A    between atoms: C_32  and  C_33
REMARK   12  A    between atoms: C_33  and  N_34
REMARK                            x       y       z     vdW  Elec       q    Type
REMARK                         _______ _______ _______ _____ _____    ______ ____
ROOT
ATOM      1  N   UNL     1       1.472  -4.266   2.275  0.00  0.00    -0.254 N 
ATOM      2  C   UNL     1       2.056  -5.209   3.040  0.00  0.00    +0.309 C 
ATOM      3  O   UNL     1       2.016  -6.377   2.703  0.00  0.00    -0.252 OA
ATOM      4  N   UNL     1       2.687  -4.858   4.178  0.00  0.00    -0.269 N 
ATOM      5  H   UNL     1       1.504  -3.335   2.544  0.00  0.00    +0.158 HD
ATOM      6  H   UNL     1       2.782  -3.921   4.410  0.00  0.00    +0.156 HD
ENDROOT
BRANCH   4   7
ATOM      7  C   UNL     1       3.203  -5.845   5.025  0.00  0.00    +0.043 A 
ATOM      8  C   UNL     1       3.718  -7.010   4.500  0.00  0.00    +0.027 A 
ATOM      9  C   UNL     1       4.235  -7.999   5.331  0.00  0.00    +0.048 A 
ATOM     10  C   UNL     1       4.246  -7.843   6.688  0.00  0.00    +0.128 A 
ATOM     11  C   UNL     1       3.729  -6.665   7.263  0.00  0.00    +0.026 A 
ATOM     12  C   UNL     1       3.206  -5.652   6.422  0.00  0.00    +0.007 A 
ATOM     13  C   UNL     1       2.695  -4.476   6.996  0.00  0.00    +0.010 A 
ATOM     14  C   UNL     1       2.713  -4.324   8.349  0.00  0.00    +0.001 A 
ATOM     15  C   UNL     1       3.233  -5.318   9.175  0.00  0.00    +0.001 A 
ATOM     16  C   UNL     1       3.726  -6.475   8.654  0.00  0.00    +0.012 A 
BRANCH  10  17
ATOM     17  O   UNL     1       4.755  -8.822   7.482  0.00  0.00    -0.490 OA
BRANCH  17  18
ATOM     18  C   UNL     1       5.262  -9.988   6.830  0.00  0.00    +0.244 C 
BRANCH  18  19
ATOM     19  C   UNL     1       5.788 -10.970   7.878  0.00  0.00    +0.125 C 
BRANCH  19  20
ATOM     20  N   UNL     1       4.683 -11.404   8.742  0.00  0.00    -0.297 NA
ATOM     21  C   UNL     1       5.187 -12.061   9.950  0.00  0.00    +0.097 C 
ATOM     22  C   UNL     1       4.092 -12.088  11.023  0.00  0.00    +0.119 C 
ATOM     23  S   UNL     1       2.685 -13.047  10.381  0.00  0.00    +0.025 S 
ATOM     24  O   UNL     1       3.073 -14.403  10.214  0.00  0.00    -0.257 OA
ATOM     25  C   UNL     1       2.396 -12.293   8.750  0.00  0.00    +0.119 C 
ATOM     26  C   UNL     1       3.733 -12.237   8.001  0.00  0.00    +0.097 C 
ENDBRANCH  19  20
ENDBRANCH  18  19
ENDBRANCH  17  18
ENDBRANCH  10  17
ENDBRANCH   4   7
BRANCH   1  28
ATOM     27  N   UNL     1       0.189  -3.788   0.233  0.00  0.00    -0.218 N 
ATOM     28  C   UNL     1       0.820  -4.630   1.097  0.00  0.00    +0.130 A 
ATOM     29  C   UNL     1       0.697  -5.891   0.600  0.00  0.00    +0.069 A 
ATOM     30  C   UNL     1      -0.025  -5.814  -0.594  0.00  0.00    +0.071 A 
ATOM     31  N   UNL     1      -0.334  -4.561  -0.812  0.00  0.00    -0.169 NA
BRANCH  27  36
ATOM     32  C   UNL     1      -0.262   1.843   0.776  0.00  0.00    +0.044 C 
ATOM     33  C   UNL     1      -0.142   0.347   0.632  0.00  0.00    -0.050 A 
ATOM     34  C   UNL     1      -0.012  -0.216  -0.624  0.00  0.00    +0.005 A 
ATOM     35  C   UNL     1       0.098  -1.586  -0.759  0.00  0.00    +0.028 A 
ATOM     36  C   UNL     1       0.078  -2.398   0.367  0.00  0.00    +0.067 A 
ATOM     37  C   UNL     1      -0.052  -1.829   1.627  0.00  0.00    +0.028 A 
ATOM     38  C   UNL     1      -0.157  -0.458   1.756  0.00  0.00    +0.005 A 
ENDBRANCH  27  36
BRANCH  30  39
ATOM     39  C   UNL     1      -0.392  -6.978  -1.478  0.00  0.00    +0.006 C 
ATOM     40  C   UNL     1      -1.532  -7.768  -0.834  0.00  0.00    +0.017 C 
ATOM     41  C   UNL     1      -0.840  -6.458  -2.846  0.00  0.00    +0.017 C 
ATOM     42  C   UNL     1       0.825  -7.889  -1.653  0.00  0.00    +0.017 C 
ENDBRANCH  30  39
ENDBRANCH   1  28
TORSDOF 8
