REMARK  Name = CHEMBL523880
REMARK  8 active torsions:
REMARK  status: ('A' for Active; 'I' for Inactive)
REMARK    1  A    between atoms: C_1  and  C_2
REMARK    2  A    between atoms: C_2  and  C_3
REMARK    3  A    between atoms: C_2  and  C_26
REMARK    4  A    between atoms: C_3  and  N_4
REMARK    5  A    between atoms: C_7  and  C_11
REMARK    6  A    between atoms: C_12  and  C_19
REMARK    7  A    between atoms: C_14  and  S_17
REMARK    8  A    between atoms: S_17  and  C_18
REMARK                            x       y       z     vdW  Elec       q    Type
REMARK                         _______ _______ _______ _____ _____    ______ ____
ROOT
ATOM      1  N   UNL     1       0.251   0.256  -2.376  0.00  0.00    -0.328 N 
ATOM      2  C   UNL     1       0.586  -0.228  -3.636  0.00  0.00    +0.119 A 
ATOM      3  C   UNL     1       1.752  -0.962  -3.800  0.00  0.00    +0.053 A 
ATOM      4  C   UNL     1       2.075  -1.442  -5.075  0.00  0.00    +0.005 A 
ATOM      5  C   UNL     1       1.197  -1.157  -6.133  0.00  0.00    +0.030 A 
ATOM      6  C   UNL     1       0.061  -0.421  -5.882  0.00  0.00    +0.113 A 
ATOM      7  N   UNL     1      -0.214   0.011  -4.664  0.00  0.00    -0.240 NA
ATOM      8  H   UNL     1      -0.565   0.766  -2.254  0.00  0.00    +0.147 HD
ENDROOT
BRANCH   4   9
ATOM      9  C   UNL     1       3.302  -2.226  -5.300  0.00  0.00    +0.075 A 
ATOM     10  C   UNL     1       4.234  -2.037  -6.303  0.00  0.00    +0.098 A 
ATOM     11  N   UNL     1       5.197  -2.965  -6.147  0.00  0.00    -0.221 NA
ATOM     12  C   UNL     1       4.920  -3.717  -5.108  0.00  0.00    +0.167 A 
ATOM     13  N   UNL     1       3.755  -3.294  -4.545  0.00  0.00    -0.332 N 
ATOM     14  H   UNL     1       3.323  -3.672  -3.763  0.00  0.00    +0.168 HD
BRANCH  10  15
ATOM     15  C   UNL     1       4.181  -1.001  -7.361  0.00  0.00    +0.003 A 
ATOM     16  C   UNL     1       3.820   0.307  -7.041  0.00  0.00    +0.013 A 
ATOM     17  C   UNL     1       3.773   1.269  -8.029  0.00  0.00    +0.039 A 
ATOM     18  C   UNL     1       4.084   0.936  -9.338  0.00  0.00    +0.123 A 
ATOM     19  C   UNL     1       4.443  -0.362  -9.660  0.00  0.00    +0.039 A 
ATOM     20  C   UNL     1       4.499  -1.330  -8.678  0.00  0.00    +0.013 A 
ATOM     21  F   UNL     1       4.036   1.881 -10.302  0.00  0.00    -0.205 F 
ENDBRANCH  10  15
BRANCH  12  22
ATOM     22  S   UNL     1       5.904  -5.059  -4.529  0.00  0.00    -0.091 S 
ATOM     23  C   UNL     1       7.304  -5.107  -5.683  0.00  0.00    +0.093 C 
ENDBRANCH  12  22
ENDBRANCH   4   9
BRANCH   1  24
ATOM     24  C   UNL     1       1.130  -0.004  -1.233  0.00  0.00    +0.110 C 
BRANCH  24  26
ATOM     25  C   UNL     1       0.518   2.155  -0.135  0.00  0.00    +0.014 C 
ATOM     26  C   UNL     1       0.535   0.633   0.024  0.00  0.00    +0.033 C 
BRANCH  26  27
ATOM     27  C   UNL     1       1.373   0.263   1.220  0.00  0.00    -0.043 A 
ATOM     28  C   UNL     1       2.707   0.623   1.268  0.00  0.00    +0.004 A 
ATOM     29  C   UNL     1       3.475   0.283   2.365  0.00  0.00    +0.000 A 
ATOM     30  C   UNL     1       2.910  -0.417   3.415  0.00  0.00    +0.000 A 
ATOM     31  C   UNL     1       1.577  -0.777   3.367  0.00  0.00    +0.000 A 
ATOM     32  C   UNL     1       0.806  -0.433   2.272  0.00  0.00    +0.004 A 
ENDBRANCH  26  27
ENDBRANCH  24  26
ENDBRANCH   1  24
TORSDOF 6
