REMARK  Name = CHEMBL277409
REMARK  4 active torsions:
REMARK  status: ('A' for Active; 'I' for Inactive)
REMARK    1  A    between atoms: C_6  and  C_7
REMARK    2  A    between atoms: C_8  and  C_21
REMARK    3  A    between atoms: C_11  and  C_13
REMARK    4  A    between atoms: C_13  and  O_20
REMARK                            x       y       z     vdW  Elec       q    Type
REMARK                         _______ _______ _______ _____ _____    ______ ____
ROOT
ATOM      1  C   UNL     1      -1.289  -0.733   0.056  0.00  0.00    +0.072 A 
ATOM      2  C   UNL     1      -1.529  -1.919   0.728  0.00  0.00    +0.072 A 
ATOM      3  N   UNL     1      -2.807  -2.300   0.387  0.00  0.00    -0.341 N 
ATOM      4  H   UNL     1      -3.271  -3.094   0.697  0.00  0.00    +0.167 HD
ATOM      5  C   UNL     1      -3.295  -1.366  -0.456  0.00  0.00    +0.118 A 
ATOM      6  N   UNL     1      -2.399  -0.439  -0.646  0.00  0.00    -0.341 N 
ATOM      7  H   UNL     1      -2.513   0.343  -1.210  0.00  0.00    +0.167 HD
ENDROOT
BRANCH   1  13
ATOM      8  C   UNL     1      -0.106   1.446   0.307  0.00  0.00    +0.013 A 
ATOM      9  C   UNL     1       1.057   2.187   0.353  0.00  0.00    +0.039 A 
ATOM     10  C   UNL     1       2.285   1.564   0.199  0.00  0.00    +0.123 A 
ATOM     11  C   UNL     1       2.352   0.194  -0.002  0.00  0.00    +0.039 A 
ATOM     12  C   UNL     1       1.195  -0.556  -0.049  0.00  0.00    +0.013 A 
ATOM     13  C   UNL     1      -0.044   0.067   0.106  0.00  0.00    +0.001 A 
ATOM     14  F   UNL     1       3.421   2.294   0.244  0.00  0.00    -0.205 F 
ENDBRANCH   1  13
BRANCH   5  15
ATOM     15  C   UNL     1      -4.668  -1.389  -1.077  0.00  0.00    +0.121 C 
ATOM     16  C   UNL     1      -4.546  -1.567  -2.567  0.00  0.00    +0.042 C 
ATOM     17  C   UNL     1      -5.647  -0.819  -3.342  0.00  0.00    +0.003 C 
ATOM     18  C   UNL     1      -7.033  -0.944  -2.682  0.00  0.00    +0.000 C 
ATOM     19  C   UNL     1      -7.308  -2.335  -2.179  0.00  0.00    +0.000 C 
ATOM     20  C   UNL     1      -6.910  -2.405  -0.690  0.00  0.00    +0.003 C 
ATOM     21  C   UNL     1      -5.476  -2.572  -0.507  0.00  0.00    +0.042 C 
BRANCH  15  22
ATOM     22  O   UNL     1      -5.345  -0.163  -0.791  0.00  0.00    -0.381 OA
ATOM     23  H   UNL     1      -4.894   0.623  -1.127  0.00  0.00    +0.211 HD
ENDBRANCH  15  22
ENDBRANCH   5  15
BRANCH   2  24
ATOM     24  C   UNL     1      -0.601  -2.631   1.627  0.00  0.00    +0.003 A 
ATOM     25  C   UNL     1       0.096  -1.946   2.632  0.00  0.00    +0.030 A 
ATOM     26  C   UNL     1       0.953  -2.651   3.450  0.00  0.00    +0.111 A 
ATOM     27  N   UNL     1       1.120  -3.952   3.296  0.00  0.00    -0.263 NA
ATOM     28  C   UNL     1       0.484  -4.635   2.363  0.00  0.00    +0.111 A 
ATOM     29  C   UNL     1      -0.397  -4.012   1.505  0.00  0.00    +0.030 A 
ENDBRANCH   2  24
TORSDOF 4
