REMARK  Name = CHEMBL1209838
REMARK  9 active torsions:
REMARK  status: ('A' for Active; 'I' for Inactive)
REMARK    1  A    between atoms: C_7  and  C_20
REMARK    2  A    between atoms: C_10  and  O_11
REMARK    3  A    between atoms: O_11  and  C_12
REMARK    4  A    between atoms: C_12  and  C_13
REMARK    5  A    between atoms: C_13  and  N_14
REMARK    6  A    between atoms: C_20  and  C_22
REMARK    7  A    between atoms: N_24  and  C_25
REMARK    8  A    between atoms: C_27  and  C_37
REMARK    9  A    between atoms: C_29  and  N_31
REMARK                            x       y       z     vdW  Elec       q    Type
REMARK                         _______ _______ _______ _____ _____    ______ ____
ROOT
ATOM      1  C   UNL     1       1.072   0.777   1.459  0.00  0.00    +0.001 A 
ATOM      2  C   UNL     1       2.316   1.394   1.368  0.00  0.00    +0.001 A 
ATOM      3  C   UNL     1       3.451   0.660   1.193  0.00  0.00    +0.012 A 
ATOM      4  C   UNL     1       3.367  -0.737   1.104  0.00  0.00    +0.024 A 
ATOM      5  C   UNL     1       2.102  -1.362   1.197  0.00  0.00    -0.003 A 
ATOM      6  C   UNL     1       0.957  -0.581   1.376  0.00  0.00    +0.009 A 
ATOM      7  C   UNL     1       2.023  -2.822   1.103  0.00  0.00    +0.035 A 
ATOM      8  C   UNL     1       3.202  -3.550   0.924  0.00  0.00    +0.016 A 
ATOM      9  C   UNL     1       4.420  -2.907   0.837  0.00  0.00    +0.047 A 
ATOM     10  C   UNL     1       4.522  -1.531   0.923  0.00  0.00    +0.128 A 
ENDROOT
BRANCH   7  11
ATOM     11  C   UNL     1       0.732  -3.505   1.195  0.00  0.00    +0.248 C 
ATOM     12  O   UNL     1      -0.272  -2.875   1.467  0.00  0.00    -0.282 OA
BRANCH  11  13
ATOM     13  C   UNL     1       0.647  -4.974   0.956  0.00  0.00    +0.289 C 
ATOM     14  O   UNL     1       1.625  -5.584   0.576  0.00  0.00    -0.266 OA
ATOM     15  N   UNL     1      -0.515  -5.624   1.161  0.00  0.00    -0.279 N 
ATOM     16  H   UNL     1      -1.315  -5.127   1.395  0.00  0.00    +0.155 HD
BRANCH  15  17
ATOM     17  C   UNL     1      -0.569  -7.016   1.039  0.00  0.00    +0.037 A 
ATOM     18  C   UNL     1       0.520  -7.787   1.417  0.00  0.00    +0.042 A 
ATOM     19  C   UNL     1       0.466  -9.176   1.295  0.00  0.00    +0.055 A 
ATOM     20  C   UNL     1      -0.685  -9.784   0.791  0.00  0.00    +0.042 A 
ATOM     21  C   UNL     1      -1.770  -9.006   0.414  0.00  0.00    +0.033 A 
ATOM     22  C   UNL     1      -1.714  -7.624   0.543  0.00  0.00    +0.046 A 
BRANCH  21  23
ATOM     23  N   UNL     1      -2.922  -9.614  -0.090  0.00  0.00    -0.325 N 
ATOM     24  C   UNL     1      -4.035  -8.808  -0.617  0.00  0.00    +0.133 C 
ATOM     25  C   UNL     1      -4.407  -9.345  -2.004  0.00  0.00    +0.178 C 
ATOM     26  O   UNL     1      -4.629 -10.755  -1.919  0.00  0.00    -0.377 OA
ATOM     27  C   UNL     1      -3.478 -11.505  -1.523  0.00  0.00    +0.178 C 
ATOM     28  C   UNL     1      -3.056 -11.079  -0.117  0.00  0.00    +0.133 C 
ENDBRANCH  21  23
BRANCH  19  29
ATOM     29  C   UNL     1       1.588  -9.975   1.684  0.00  0.00    +0.099 C 
ATOM     30  N   UNL     1       2.478 -10.610   1.993  0.00  0.00    -0.191 NA
ENDBRANCH  19  29
ENDBRANCH  15  17
ENDBRANCH  11  13
ENDBRANCH   7  11
BRANCH  10  31
ATOM     31  O   UNL     1       5.737  -0.940   0.833  0.00  0.00    -0.493 OA
BRANCH  31  32
ATOM     32  C   UNL     1       6.864  -1.798   0.651  0.00  0.00    +0.210 C 
BRANCH  32  33
ATOM     33  C   UNL     1       8.139  -0.956   0.571  0.00  0.00    -0.037 C 
BRANCH  33  34
ATOM     34  N   UNL     1       8.377  -0.305   1.866  0.00  0.00    +0.385 N 
ATOM     35  C   UNL     1       9.523   0.608   1.752  0.00  0.00    -0.050 C 
ATOM     36  C   UNL     1       9.769   1.286   3.103  0.00  0.00    +0.141 C 
ATOM     37  O   UNL     1       9.992   0.284   4.099  0.00  0.00    -0.383 OA
ATOM     38  C   UNL     1       8.913  -0.645   4.231  0.00  0.00    +0.141 C 
ATOM     39  C   UNL     1       8.665  -1.326   2.883  0.00  0.00    -0.050 C 
ATOM     40  H   UNL     1       7.557   0.217   2.137  0.00  0.00    -0.081 HD
ENDBRANCH  33  34
ENDBRANCH  32  33
ENDBRANCH  31  32
ENDBRANCH  10  31
TORSDOF 9
