REMARK  Name = CHEMBL428041
REMARK  6 active torsions:
REMARK  status: ('A' for Active; 'I' for Inactive)
REMARK    1  A    between atoms: C_1  and  N_2
REMARK    2  A    between atoms: N_2  and  C_3
REMARK    3  A    between atoms: C_4  and  C_6
REMARK    4  A    between atoms: C_6  and  C_8
REMARK    5  A    between atoms: C_15  and  C_19
REMARK    6  A    between atoms: C_28  and  C_29
REMARK                            x       y       z     vdW  Elec       q    Type
REMARK                         _______ _______ _______ _____ _____    ______ ____
ROOT
ATOM      1  C   UNL     1       0.817  -8.659  -4.469  0.00  0.00    +0.248 C 
ATOM      2  O   UNL     1       0.675  -9.565  -5.267  0.00  0.00    -0.270 OA
ATOM      3  N   UNL     1       1.003  -8.935  -3.163  0.00  0.00    -0.290 N 
ATOM      4  C   UNL     1       1.135 -10.322  -2.695  0.00  0.00    +0.130 C 
ATOM      5  C   UNL     1       2.537 -10.530  -2.109  0.00  0.00    +0.142 C 
ATOM      6  N   UNL     1       2.858  -9.410  -1.224  0.00  0.00    -0.326 N 
ATOM      7  C   UNL     1       2.220  -8.194  -1.235  0.00  0.00    +0.054 A 
ATOM      8  C   UNL     1       2.795  -7.431  -0.297  0.00  0.00    +0.107 A 
ATOM      9  N   UNL     1       3.763  -8.150   0.291  0.00  0.00    -0.345 N 
ATOM     10  C   UNL     1       3.811  -9.347  -0.257  0.00  0.00    +0.122 A 
ATOM     11  C   UNL     1       1.085  -7.852  -2.164  0.00  0.00    +0.163 C 
ATOM     12  H   UNL     1       4.337  -7.838   1.008  0.00  0.00    +0.167 HD
ENDROOT
BRANCH   1  20
ATOM     13  C   UNL     1      -0.847  -3.823  -4.356  0.00  0.00    +0.052 A 
ATOM     14  C   UNL     1      -0.415  -2.803  -5.181  0.00  0.00    +0.095 A 
ATOM     15  N   UNL     1       0.513  -3.275  -6.035  0.00  0.00    -0.360 N 
ATOM     16  H   UNL     1       0.961  -2.743  -6.710  0.00  0.00    +0.165 HD
ATOM     17  C   UNL     1       0.740  -4.617  -5.819  0.00  0.00    +0.049 A 
ATOM     18  C   UNL     1      -0.091  -5.026  -4.760  0.00  0.00    +0.011 A 
ATOM     19  C   UNL     1      -0.069  -6.341  -4.319  0.00  0.00    +0.025 A 
ATOM     20  C   UNL     1       0.785  -7.257  -4.930  0.00  0.00    +0.056 A 
ATOM     21  C   UNL     1       1.613  -6.846  -5.984  0.00  0.00    +0.055 A 
ATOM     22  C   UNL     1       1.585  -5.543  -6.425  0.00  0.00    +0.047 A 
ATOM     23 CL   UNL     1       2.675  -7.991  -6.742  0.00  0.00    -0.083 Cl
BRANCH  13  24
ATOM     24  C   UNL     1      -1.846  -3.730  -3.292  0.00  0.00    +0.249 C 
ATOM     25  O   UNL     1      -2.128  -4.713  -2.635  0.00  0.00    -0.282 OA
BRANCH  24  29
ATOM     26  C   UNL     1      -4.076  -1.062  -1.730  0.00  0.00    +0.132 C 
ATOM     27  N   UNL     1      -3.324  -2.302  -1.940  0.00  0.00    -0.301 N 
ATOM     28  C   UNL     1      -3.445  -3.403  -0.982  0.00  0.00    +0.132 C 
ATOM     29  C   UNL     1      -2.520  -2.428  -3.014  0.00  0.00    +0.287 C 
ATOM     30  O   UNL     1      -2.344  -1.483  -3.755  0.00  0.00    -0.266 OA
ENDBRANCH  24  29
ENDBRANCH  13  24
ENDBRANCH   1  20
BRANCH  10  31
ATOM     31  C   UNL     1       4.741 -10.434   0.115  0.00  0.00    +0.051 A 
ATOM     32  C   UNL     1       5.430 -11.136  -0.875  0.00  0.00    +0.017 A 
ATOM     33  C   UNL     1       6.296 -12.150  -0.523  0.00  0.00    +0.039 A 
ATOM     34  C   UNL     1       6.485 -12.473   0.812  0.00  0.00    +0.126 A 
ATOM     35  C   UNL     1       5.805 -11.780   1.800  0.00  0.00    +0.077 A 
ATOM     36  C   UNL     1       4.939 -10.759   1.460  0.00  0.00    +0.137 A 
ATOM     37  F   UNL     1       4.280 -10.079   2.424  0.00  0.00    -0.205 F 
ATOM     38  F   UNL     1       7.335 -13.467   1.150  0.00  0.00    -0.205 F 
ENDBRANCH  10  31
TORSDOF 4
