REMARK  Name = CHEMBL14187
REMARK  6 active torsions:
REMARK  status: ('A' for Active; 'I' for Inactive)
REMARK    1  A    between atoms: C_4  and  C_7
REMARK    2  A    between atoms: C_10  and  O_13
REMARK    3  A    between atoms: O_13  and  C_14
REMARK    4  A    between atoms: C_18  and  C_20
REMARK    5  A    between atoms: C_21  and  C_31
REMARK    6  A    between atoms: N_24  and  C_25
REMARK                            x       y       z     vdW  Elec       q    Type
REMARK                         _______ _______ _______ _____ _____    ______ ____
ROOT
ATOM      1  C   UNL     1       9.708  -6.778   0.282  0.00  0.00    +0.095 A 
ATOM      2  C   UNL     1      10.966  -6.314  -0.065  0.00  0.00    +0.098 A 
ATOM      3  N   UNL     1      11.844  -7.295   0.210  0.00  0.00    -0.235 NA
ATOM      4  C   UNL     1      11.211  -8.325   0.700  0.00  0.00    +0.200 A 
ATOM      5  N   UNL     1       9.891  -8.053   0.770  0.00  0.00    -0.325 N 
ENDROOT
BRANCH   5   6
ATOM      6  C   UNL     1       8.846  -8.950   1.268  0.00  0.00    +0.085 C 
ATOM      7  C   UNL     1       9.211  -9.429   2.677  0.00  0.00    +0.006 C 
ATOM      8  C   UNL     1       8.156 -10.427   3.160  0.00  0.00    -0.081 C 
ATOM      9  N   UNL     1       8.110 -11.576   2.247  0.00  0.00    +0.379 N 
ATOM     10  C   UNL     1       7.691 -11.135   0.911  0.00  0.00    -0.081 C 
ATOM     11  C   UNL     1       8.728 -10.164   0.342  0.00  0.00    +0.006 C 
ATOM     12  H   UNL     1       9.026 -11.995   2.190  0.00  0.00    -0.086 HD
ATOM     13  H   UNL     1       7.452 -12.256   2.598  0.00  0.00    -0.086 HD
ENDBRANCH   5   6
BRANCH   2  14
ATOM     14  C   UNL     1      11.284  -4.984  -0.633  0.00  0.00    +0.003 A 
ATOM     15  C   UNL     1      10.392  -4.365  -1.508  0.00  0.00    +0.013 A 
ATOM     16  C   UNL     1      10.694  -3.126  -2.035  0.00  0.00    +0.039 A 
ATOM     17  C   UNL     1      11.881  -2.497  -1.696  0.00  0.00    +0.123 A 
ATOM     18  C   UNL     1      12.771  -3.108  -0.828  0.00  0.00    +0.039 A 
ATOM     19  C   UNL     1      12.476  -4.344  -0.291  0.00  0.00    +0.013 A 
ATOM     20  F   UNL     1      12.172  -1.284  -2.216  0.00  0.00    -0.205 F 
ENDBRANCH   2  14
BRANCH   1  25
ATOM     21  C   UNL     1       7.253  -4.069   0.135  0.00  0.00    +0.324 A 
ATOM     22  N   UNL     1       6.106  -4.702  -0.062  0.00  0.00    -0.203 NA
ATOM     23  C   UNL     1       6.062  -6.022  -0.158  0.00  0.00    +0.118 A 
ATOM     24  C   UNL     1       7.233  -6.748  -0.050  0.00  0.00    +0.050 A 
ATOM     25  C   UNL     1       8.431  -6.052   0.159  0.00  0.00    +0.096 A 
ATOM     26  N   UNL     1       8.398  -4.720   0.239  0.00  0.00    -0.193 NA
BRANCH  21  27
ATOM     27  O   UNL     1       7.252  -2.717   0.226  0.00  0.00    -0.424 OA
BRANCH  27  31
ATOM     28  C   UNL     1       3.609  -0.775   0.224  0.00  0.00    -0.018 A 
ATOM     29  C   UNL     1       3.960  -1.600   1.292  0.00  0.00    +0.012 A 
ATOM     30  C   UNL     1       5.177  -2.247   1.289  0.00  0.00    +0.047 A 
ATOM     31  C   UNL     1       6.053  -2.078   0.225  0.00  0.00    +0.132 A 
ATOM     32  C   UNL     1       5.706  -1.257  -0.839  0.00  0.00    +0.047 A 
ATOM     33  C   UNL     1       4.487  -0.612  -0.845  0.00  0.00    +0.012 A 
BRANCH  28  37
ATOM     34  C   UNL     1      -0.144   1.225   0.222  0.00  0.00    +0.000 A 
ATOM     35  C   UNL     1       0.203   0.412   1.286  0.00  0.00    +0.001 A 
ATOM     36  C   UNL     1       1.420  -0.240   1.292  0.00  0.00    +0.008 A 
ATOM     37  C   UNL     1       2.299  -0.077   0.223  0.00  0.00    -0.018 A 
ATOM     38  C   UNL     1       1.945   0.743  -0.846  0.00  0.00    +0.008 A 
ATOM     39  C   UNL     1       0.726   1.390  -0.841  0.00  0.00    +0.001 A 
ENDBRANCH  28  37
ENDBRANCH  27  31
ENDBRANCH  21  27
ENDBRANCH   1  25
TORSDOF 6
