REMARK  Name = CHEMBL92082
REMARK  5 active torsions:
REMARK  status: ('A' for Active; 'I' for Inactive)
REMARK    1  A    between atoms: C_1  and  C_2
REMARK    2  A    between atoms: C_2  and  C_4
REMARK    3  A    between atoms: C_2  and  N_10
REMARK    4  A    between atoms: C_15  and  C_17
REMARK    5  A    between atoms: C_18  and  C_26
REMARK                            x       y       z     vdW  Elec       q    Type
REMARK                         _______ _______ _______ _____ _____    ______ ____
ROOT
ATOM      1  N   UNL     1       0.698   0.009  -1.452  0.00  0.00    -0.307 N 
ATOM      2  C   UNL     1       2.074  -0.139  -1.434  0.00  0.00    +0.216 A 
ATOM      3  N   UNL     1       2.755   0.285  -0.379  0.00  0.00    -0.223 NA
ATOM      4  C   UNL     1       4.071   0.162  -0.323  0.00  0.00    +0.116 A 
ATOM      5  C   UNL     1       4.743  -0.420  -1.385  0.00  0.00    +0.050 A 
ATOM      6  C   UNL     1       3.998  -0.859  -2.484  0.00  0.00    +0.095 A 
ATOM      7  N   UNL     1       2.674  -0.706  -2.468  0.00  0.00    -0.213 NA
ATOM      8  H   UNL     1       0.186  -0.301  -2.216  0.00  0.00    +0.149 HD
ENDROOT
BRANCH   6   9
ATOM      9  C   UNL     1       4.668  -1.486  -3.643  0.00  0.00    +0.097 A 
ATOM     10  C   UNL     1       4.038  -2.053  -4.733  0.00  0.00    +0.075 A 
ATOM     11  C   UNL     1       5.095  -2.546  -5.623  0.00  0.00    +0.276 A 
ATOM     12  O   UNL     1       4.937  -3.109  -6.690  0.00  0.00    -0.266 OA
ATOM     13  N   UNL     1       6.277  -2.257  -5.035  0.00  0.00    -0.249 N 
ATOM     14  N   UNL     1       6.029  -1.603  -3.824  0.00  0.00    -0.279 N 
ATOM     15  C   UNL     1       7.304  -1.268  -3.165  0.00  0.00    +0.144 C 
ATOM     16  C   UNL     1       8.360  -2.153  -3.861  0.00  0.00    +0.046 C 
ATOM     17  C   UNL     1       7.728  -2.397  -5.245  0.00  0.00    +0.147 C 
BRANCH  10  18
ATOM     18  C   UNL     1       2.578  -2.144  -4.960  0.00  0.00    -0.010 A 
ATOM     19  C   UNL     1       1.789  -2.944  -4.132  0.00  0.00    +0.011 A 
ATOM     20  C   UNL     1       0.429  -3.026  -4.348  0.00  0.00    +0.039 A 
ATOM     21  C   UNL     1      -0.154  -2.317  -5.386  0.00  0.00    +0.123 A 
ATOM     22  C   UNL     1       0.625  -1.522  -6.211  0.00  0.00    +0.039 A 
ATOM     23  C   UNL     1       1.985  -1.427  -6.000  0.00  0.00    +0.011 A 
ATOM     24  F   UNL     1      -1.486  -2.402  -5.593  0.00  0.00    -0.205 F 
ENDBRANCH  10  18
ENDBRANCH   6   9
BRANCH   1  26
ATOM     25  C   UNL     1       0.032   2.154  -0.484  0.00  0.00    +0.033 C 
ATOM     26  C   UNL     1       0.013   0.633  -0.317  0.00  0.00    +0.100 C 
BRANCH  26  27
ATOM     27  C   UNL     1      -1.413   0.151  -0.264  0.00  0.00    -0.027 A 
ATOM     28  C   UNL     1      -2.133  -0.008  -1.433  0.00  0.00    +0.005 A 
ATOM     29  C   UNL     1      -3.442  -0.450  -1.384  0.00  0.00    +0.000 A 
ATOM     30  C   UNL     1      -4.031  -0.733  -0.166  0.00  0.00    +0.000 A 
ATOM     31  C   UNL     1      -3.311  -0.575   1.003  0.00  0.00    +0.000 A 
ATOM     32  C   UNL     1      -2.001  -0.137   0.954  0.00  0.00    +0.005 A 
ENDBRANCH  26  27
ENDBRANCH   1  26
TORSDOF 4
