REMARK  Name = CHEMBL321494
REMARK  5 active torsions:
REMARK  status: ('A' for Active; 'I' for Inactive)
REMARK    1  A    between atoms: C_1  and  S_2
REMARK    2  A    between atoms: S_2  and  C_3
REMARK    3  A    between atoms: C_6  and  C_16
REMARK    4  A    between atoms: C_7  and  C_9
REMARK    5  A    between atoms: N_22  and  C_23
REMARK                            x       y       z     vdW  Elec       q    Type
REMARK                         _______ _______ _______ _____ _____    ______ ____
ROOT
ATOM      1  C   UNL     1       0.897  -0.090   1.621  0.00  0.00    +0.167 A 
ATOM      2  N   UNL     1       1.121  -1.362   2.050  0.00  0.00    -0.332 N 
ATOM      3  H   UNL     1       0.671  -2.163   1.739  0.00  0.00    +0.168 HD
ATOM      4  C   UNL     1       2.112  -1.298   3.014  0.00  0.00    +0.075 A 
ATOM      5  C   UNL     1       2.454   0.036   3.131  0.00  0.00    +0.098 A 
ATOM      6  N   UNL     1       1.695   0.731   2.263  0.00  0.00    -0.221 NA
ENDROOT
BRANCH   4   7
ATOM      7  C   UNL     1       2.688  -2.427   3.766  0.00  0.00    +0.005 A 
ATOM      8  C   UNL     1       2.846  -2.360   5.160  0.00  0.00    +0.030 A 
ATOM      9  C   UNL     1       3.388  -3.436   5.826  0.00  0.00    +0.113 A 
ATOM     10  N   UNL     1       3.758  -4.524   5.174  0.00  0.00    -0.240 NA
ATOM     11  C   UNL     1       3.628  -4.633   3.860  0.00  0.00    +0.123 A 
ATOM     12  C   UNL     1       3.086  -3.598   3.112  0.00  0.00    +0.053 A 
ATOM     13  N   UNL     1       4.035  -5.802   3.223  0.00  0.00    -0.299 N 
ATOM     14  H   UNL     1       4.015  -5.859   2.255  0.00  0.00    +0.154 HD
BRANCH  13  15
ATOM     15  C   UNL     1       4.475  -6.892   3.979  0.00  0.00    +0.032 A 
ATOM     16  C   UNL     1       3.919  -7.144   5.227  0.00  0.00    +0.023 A 
ATOM     17  C   UNL     1       4.355  -8.222   5.971  0.00  0.00    +0.002 A 
ATOM     18  C   UNL     1       5.345  -9.051   5.475  0.00  0.00    +0.000 A 
ATOM     19  C   UNL     1       5.900  -8.804   4.233  0.00  0.00    +0.002 A 
ATOM     20  C   UNL     1       5.465  -7.731   3.481  0.00  0.00    +0.023 A 
ENDBRANCH  13  15
ENDBRANCH   4   7
BRANCH   5  21
ATOM     21  C   UNL     1       3.476   0.599   4.044  0.00  0.00    +0.003 A 
ATOM     22  C   UNL     1       4.701  -0.048   4.207  0.00  0.00    +0.013 A 
ATOM     23  C   UNL     1       5.649   0.481   5.058  0.00  0.00    +0.039 A 
ATOM     24  C   UNL     1       5.387   1.652   5.750  0.00  0.00    +0.123 A 
ATOM     25  C   UNL     1       4.171   2.299   5.591  0.00  0.00    +0.039 A 
ATOM     26  C   UNL     1       3.219   1.782   4.738  0.00  0.00    +0.013 A 
ATOM     27  F   UNL     1       6.319   2.166   6.582  0.00  0.00    -0.205 F 
ENDBRANCH   5  21
BRANCH   1  29
ATOM     28  C   UNL     1      -0.085   2.180   0.270  0.00  0.00    +0.093 C 
ATOM     29  S   UNL     1      -0.275   0.380   0.391  0.00  0.00    -0.091 S 
ENDBRANCH   1  29
TORSDOF 4
