REMARK  Name = CHEMBL1213107
REMARK  14 active torsions:
REMARK  status: ('A' for Active; 'I' for Inactive)
REMARK    1  A    between atoms: C_1  and  C_2
REMARK    2  A    between atoms: C_6  and  C_8
REMARK    3  A    between atoms: C_8  and  N_9
REMARK    4  A    between atoms: N_16  and  C_17
REMARK    5  A    between atoms: C_17  and  C_18
REMARK    6  A    between atoms: C_17  and  C_19
REMARK    7  A    between atoms: C_19  and  C_20
REMARK    8  A    between atoms: C_19  and  C_21
REMARK    9  A    between atoms: C_19  and  C_22
REMARK   10  A    between atoms: N_23  and  C_24
REMARK   11  A    between atoms: C_26  and  C_31
REMARK   12  A    between atoms: C_29  and  C_30
REMARK   13  A    between atoms: N_33  and  O_34
REMARK   14  A    between atoms: O_34  and  C_35
REMARK                            x       y       z     vdW  Elec       q    Type
REMARK                         _______ _______ _______ _____ _____    ______ ____
ROOT
ATOM      1  N   UNL     1       1.433  -3.202   2.827  0.00  0.00    -0.309 N 
ATOM      2  C   UNL     1       1.702  -3.843   4.019  0.00  0.00    +0.221 A 
ATOM      3  N   UNL     1       0.703  -4.273   4.783  0.00  0.00    -0.181 NA
ATOM      4  C   UNL     1       0.962  -4.889   5.932  0.00  0.00    +0.225 A 
ATOM      5  N   UNL     1       2.221  -5.075   6.317  0.00  0.00    -0.181 NA
ATOM      6  C   UNL     1       3.220  -4.645   5.553  0.00  0.00    +0.221 A 
ATOM      7  N   UNL     1       2.961  -4.034   4.402  0.00  0.00    -0.181 NA
ATOM      8  N   UNL     1       4.527  -4.838   5.954  0.00  0.00    -0.310 N 
ATOM      9  N   UNL     1      -0.077  -5.336   6.726  0.00  0.00    -0.283 N 
ATOM     10  H   UNL     1       2.163  -2.892   2.268  0.00  0.00    +0.149 HD
ATOM     11  H   UNL     1       5.256  -4.524   5.396  0.00  0.00    +0.149 HD
ATOM     12  H   UNL     1       0.111  -5.860   7.520  0.00  0.00    +0.155 HD
ENDROOT
BRANCH   9  13
ATOM     13  C   UNL     1      -1.399  -5.034   6.383  0.00  0.00    +0.037 A 
ATOM     14  C   UNL     1      -1.679  -3.899   5.637  0.00  0.00    +0.036 A 
ATOM     15  C   UNL     1      -2.999  -3.602   5.298  0.00  0.00    +0.040 A 
ATOM     16  C   UNL     1      -4.029  -4.449   5.712  0.00  0.00    +0.013 A 
ATOM     17  C   UNL     1      -3.739  -5.576   6.454  0.00  0.00    +0.006 A 
ATOM     18  C   UNL     1      -2.430  -5.873   6.786  0.00  0.00    -0.029 A 
ATOM     19  C   UNL     1      -2.122  -7.109   7.592  0.00  0.00    +0.045 C 
BRANCH  15  20
ATOM     20  C   UNL     1      -3.307  -2.394   4.503  0.00  0.00    +0.267 C 
ATOM     21  O   UNL     1      -2.409  -1.658   4.144  0.00  0.00    -0.268 OA
ATOM     22  N   UNL     1      -4.583  -2.109   4.176  0.00  0.00    -0.191 N 
ATOM     23  H   UNL     1      -5.300  -2.697   4.463  0.00  0.00    +0.183 HD
BRANCH  22  24
ATOM     24  O   UNL     1      -4.878  -0.952   3.415  0.00  0.00    -0.283 OA
ATOM     25  C   UNL     1      -6.269  -0.775   3.143  0.00  0.00    +0.226 C 
ENDBRANCH  22  24
ENDBRANCH  15  20
ENDBRANCH   9  13
BRANCH   8  26
ATOM     26  C   UNL     1       4.812  -5.517   7.220  0.00  0.00    +0.075 C 
ATOM     27  C   UNL     1       4.766  -4.502   8.364  0.00  0.00    +0.028 C 
BRANCH  26  28
ATOM     28  C   UNL     1       6.204  -6.151   7.157  0.00  0.00    -0.020 C 
ATOM     29  C   UNL     1       7.250  -5.061   6.915  0.00  0.00    +0.012 C 
ATOM     30  C   UNL     1       6.502  -6.860   8.479  0.00  0.00    +0.012 C 
ATOM     31  C   UNL     1       6.250  -7.166   6.013  0.00  0.00    +0.012 C 
ENDBRANCH  26  28
ENDBRANCH   8  26
BRANCH   1  32
ATOM     32  C   UNL     1       0.046  -2.991   2.405  0.00  0.00    +0.139 C 
BRANCH  32  38
ATOM     33  C   UNL     1      -0.037   1.268  -0.221  0.00  0.00    +0.044 C 
ATOM     34  C   UNL     1      -0.013  -0.238  -0.177  0.00  0.00    -0.050 A 
ATOM     35  C   UNL     1      -0.008  -0.964  -1.354  0.00  0.00    +0.003 A 
ATOM     36  C   UNL     1       0.014  -2.345  -1.314  0.00  0.00    +0.001 A 
ATOM     37  C   UNL     1       0.031  -3.002  -0.098  0.00  0.00    +0.005 A 
ATOM     38  C   UNL     1       0.028  -2.276   1.079  0.00  0.00    -0.030 A 
ATOM     39  C   UNL     1       0.010  -0.894   1.039  0.00  0.00    +0.008 A 
ENDBRANCH  32  38
ENDBRANCH   1  32
TORSDOF 7
