REMARK  Name = CHEMBL1097021
REMARK  7 active torsions:
REMARK  status: ('A' for Active; 'I' for Inactive)
REMARK    1  A    between atoms: C_1  and  C_2
REMARK    2  A    between atoms: C_5  and  C_26
REMARK    3  A    between atoms: C_7  and  N_8
REMARK    4  A    between atoms: C_12  and  O_15
REMARK    5  A    between atoms: O_15  and  C_16
REMARK    6  A    between atoms: C_16  and  C_17
REMARK    7  A    between atoms: N_28  and  C_29
REMARK                            x       y       z     vdW  Elec       q    Type
REMARK                         _______ _______ _______ _____ _____    ______ ____
ROOT
ATOM      1  N   UNL     1       0.023  -0.012   2.421  0.00  0.00    -0.195 N 
ATOM      2  C   UNL     1      -0.971  -0.213   3.309  0.00  0.00    +0.289 A 
ATOM      3  O   UNL     1      -1.869  -1.001   3.058  0.00  0.00    -0.264 OA
ATOM      4  C   UNL     1      -0.965   0.489   4.524  0.00  0.00    +0.127 A 
ATOM      5  C   UNL     1       0.063   1.374   4.782  0.00  0.00    +0.160 A 
ATOM      6  C   UNL     1       1.080   1.552   3.825  0.00  0.00    +0.180 A 
ATOM      7  N   UNL     1       1.058   0.885   2.704  0.00  0.00    -0.168 NA
ATOM      8 BR   UNL     1      -2.346   0.228   5.789  0.00  0.00    -0.041 Br
ENDROOT
BRANCH   1  15
ATOM      9  C   UNL     1       0.172   1.488   0.011  0.00  0.00    +0.046 C 
ATOM     10  C   UNL     1       0.093  -0.017   0.006  0.00  0.00    -0.025 A 
ATOM     11  C   UNL     1       0.098  -0.703  -1.195  0.00  0.00    +0.006 A 
ATOM     12  C   UNL     1       0.026  -2.080  -1.208  0.00  0.00    +0.013 A 
ATOM     13  C   UNL     1      -0.052  -2.787  -0.006  0.00  0.00    +0.039 A 
ATOM     14  C   UNL     1      -0.056  -2.095   1.205  0.00  0.00    +0.041 A 
ATOM     15  C   UNL     1       0.022  -0.711   1.208  0.00  0.00    +0.073 A 
BRANCH  13  16
ATOM     16  C   UNL     1      -0.130  -4.263  -0.017  0.00  0.00    +0.244 C 
ATOM     17  O   UNL     1      -0.198  -4.876   1.030  0.00  0.00    -0.270 OA
ATOM     18  N   UNL     1      -0.127  -4.930  -1.189  0.00  0.00    -0.314 N 
ATOM     19  C   UNL     1      -0.204  -6.393  -1.200  0.00  0.00    +0.128 C 
ATOM     20  H   UNL     1      -0.072  -4.440  -2.025  0.00  0.00    +0.149 HD
ENDBRANCH  13  16
ENDBRANCH   1  15
BRANCH   5  21
ATOM     21  O   UNL     1       0.092   2.066   5.947  0.00  0.00    -0.484 OA
BRANCH  21  22
ATOM     22  C   UNL     1       1.164   1.776   6.847  0.00  0.00    +0.267 C 
BRANCH  22  23
ATOM     23  C   UNL     1       0.964   2.542   8.130  0.00  0.00    +0.025 A 
ATOM     24  C   UNL     1      -0.139   3.361   8.280  0.00  0.00    +0.012 A 
ATOM     25  C   UNL     1      -0.323   4.064   9.456  0.00  0.00    +0.039 A 
ATOM     26  C   UNL     1       0.597   3.948  10.484  0.00  0.00    +0.126 A 
ATOM     27  C   UNL     1       1.702   3.127  10.334  0.00  0.00    +0.077 A 
ATOM     28  C   UNL     1       1.883   2.420   9.158  0.00  0.00    +0.132 A 
ATOM     29  F   UNL     1       2.958   1.614   9.013  0.00  0.00    -0.205 F 
ATOM     30  F   UNL     1       0.417   4.635  11.633  0.00  0.00    -0.205 F 
ENDBRANCH  22  23
ENDBRANCH  21  22
ENDBRANCH   5  21
TORSDOF 5
