REMARK  Name = CHEMBL381457
REMARK  9 active torsions:
REMARK  status: ('A' for Active; 'I' for Inactive)
REMARK    1  A    between atoms: C_1  and  N_2
REMARK    2  A    between atoms: N_5  and  C_8
REMARK    3  A    between atoms: C_8  and  C_9
REMARK    4  A    between atoms: C_9  and  C_10
REMARK    5  A    between atoms: C_10  and  C_11
REMARK    6  A    between atoms: C_14  and  O_36
REMARK    7  A    between atoms: C_15  and  C_17
REMARK    8  A    between atoms: N_27  and  C_28
REMARK    9  A    between atoms: O_36  and  C_37
REMARK                            x       y       z     vdW  Elec       q    Type
REMARK                         _______ _______ _______ _____ _____    ______ ____
ROOT
ATOM      1  C   UNL     1      -1.152  -8.188   6.470  0.00  0.00    +0.107 A 
ATOM      2  C   UNL     1      -2.024  -7.225   7.145  0.00  0.00    +0.065 A 
ATOM      3  C   UNL     1      -2.466  -5.931   6.867  0.00  0.00    +0.128 A 
ATOM      4  N   UNL     1      -3.276  -5.340   7.727  0.00  0.00    -0.222 NA
ATOM      5  C   UNL     1      -3.668  -5.957   8.837  0.00  0.00    +0.221 A 
ATOM      6  N   UNL     1      -3.276  -7.182   9.143  0.00  0.00    -0.195 NA
ATOM      7  C   UNL     1      -2.461  -7.850   8.333  0.00  0.00    +0.161 A 
ATOM      8  N   UNL     1      -1.891  -9.089   8.360  0.00  0.00    -0.259 N 
ATOM      9  N   UNL     1      -1.108  -9.267   7.215  0.00  0.00    -0.171 NA
ATOM     10  H   UNL     1      -2.013  -9.746   9.063  0.00  0.00    +0.191 HD
ATOM     11  N   UNL     1      -4.518  -5.291   9.704  0.00  0.00    -0.281 N 
ATOM     12  H   UNL     1      -4.744  -5.687  10.561  0.00  0.00    +0.155 HD
ENDROOT
BRANCH  11  13
ATOM     13  C   UNL     1      -5.052  -4.047   9.345  0.00  0.00    +0.069 A 
ATOM     14  C   UNL     1      -5.161  -3.698   8.007  0.00  0.00    +0.029 A 
ATOM     15  C   UNL     1      -5.688  -2.470   7.654  0.00  0.00    +0.040 A 
ATOM     16  C   UNL     1      -6.107  -1.587   8.635  0.00  0.00    +0.126 A 
ATOM     17  C   UNL     1      -6.000  -1.932   9.972  0.00  0.00    +0.078 A 
ATOM     18  C   UNL     1      -5.479  -3.162  10.329  0.00  0.00    +0.147 A 
ATOM     19  F   UNL     1      -5.380  -3.502  11.633  0.00  0.00    -0.203 F 
ATOM     20  F   UNL     1      -6.622  -0.388   8.287  0.00  0.00    -0.205 F 
ENDBRANCH  11  13
BRANCH   1  25
ATOM     21  C   UNL     1      -0.472  -7.229   2.900  0.00  0.00    -0.047 A 
ATOM     22  C   UNL     1       0.854  -7.603   2.764  0.00  0.00    +0.007 A 
ATOM     23  C   UNL     1       1.532  -8.167   3.828  0.00  0.00    +0.046 A 
ATOM     24  C   UNL     1       0.887  -8.361   5.038  0.00  0.00    +0.129 A 
ATOM     25  C   UNL     1      -0.453  -7.985   5.179  0.00  0.00    +0.045 A 
ATOM     26  C   UNL     1      -1.126  -7.411   4.101  0.00  0.00    +0.017 A 
BRANCH  24  27
ATOM     27  O   UNL     1       1.552  -8.916   6.084  0.00  0.00    -0.494 OA
ATOM     28  C   UNL     1       2.918  -9.277   5.867  0.00  0.00    +0.277 C 
ENDBRANCH  24  27
BRANCH  21  29
ATOM     29  C   UNL     1      -1.202  -6.615   1.733  0.00  0.00    +0.033 C 
BRANCH  29  30
ATOM     30  C   UNL     1      -1.029  -5.095   1.766  0.00  0.00    -0.014 C 
BRANCH  30  31
ATOM     31  C   UNL     1      -1.770  -4.472   0.582  0.00  0.00    -0.078 C 
BRANCH  31  36
ATOM     32  C   UNL     1      -0.652   0.921  -0.606  0.00  0.00    +0.104 C 
ATOM     33  N   UNL     1      -0.838  -0.536  -0.586  0.00  0.00    -0.309 NA
ATOM     34  C   UNL     1      -2.255  -0.884  -0.408  0.00  0.00    +0.065 C 
ATOM     35  C   UNL     1      -2.413  -2.405  -0.452  0.00  0.00    -0.063 C 
ATOM     36  N   UNL     1      -1.604  -3.013   0.613  0.00  0.00    +0.381 N 
ATOM     37  C   UNL     1      -0.189  -2.677   0.408  0.00  0.00    -0.063 C 
ATOM     38  C   UNL     1      -0.012  -1.158   0.460  0.00  0.00    +0.065 C 
ATOM     39  H   UNL     1      -1.907  -2.659   1.508  0.00  0.00    -0.082 HD
ENDBRANCH  31  36
ENDBRANCH  30  31
ENDBRANCH  29  30
ENDBRANCH  21  29
ENDBRANCH   1  25
TORSDOF 7
