REMARK  Name = CHEMBL476507
REMARK  7 active torsions:
REMARK  status: ('A' for Active; 'I' for Inactive)
REMARK    1  A    between atoms: C_1  and  C_2
REMARK    2  A    between atoms: C_5  and  C_25
REMARK    3  A    between atoms: C_7  and  C_8
REMARK    4  A    between atoms: C_11  and  C_14
REMARK    5  A    between atoms: N_16  and  C_17
REMARK    6  A    between atoms: C_21  and  C_23
REMARK    7  A    between atoms: N_27  and  C_28
REMARK                            x       y       z     vdW  Elec       q    Type
REMARK                         _______ _______ _______ _____ _____    ______ ____
ROOT
ATOM      1  C   UNL     1      -0.043   0.162   2.434  0.00  0.00    -0.018 A 
ATOM      2  C   UNL     1       0.731   1.312   2.595  0.00  0.00    +0.009 A 
ATOM      3  C   UNL     1       0.717   1.989   3.793  0.00  0.00    +0.013 A 
ATOM      4  C   UNL     1      -0.071   1.524   4.849  0.00  0.00    +0.037 A 
ATOM      5  C   UNL     1      -0.846   0.373   4.687  0.00  0.00    +0.013 A 
ATOM      6  C   UNL     1      -0.836  -0.299   3.486  0.00  0.00    +0.009 A 
ENDROOT
BRANCH   1  13
ATOM      7  C   UNL     1      -0.442   1.617  -0.030  0.00  0.00    +0.044 C 
ATOM      8  C   UNL     1      -0.220   0.126  -0.052  0.00  0.00    -0.043 A 
ATOM      9  C   UNL     1      -0.201  -0.550  -1.257  0.00  0.00    +0.005 A 
ATOM     10  C   UNL     1       0.002  -1.915  -1.286  0.00  0.00    +0.013 A 
ATOM     11  C   UNL     1       0.190  -2.621  -0.096  0.00  0.00    +0.037 A 
ATOM     12  C   UNL     1       0.172  -1.944   1.122  0.00  0.00    +0.021 A 
ATOM     13  C   UNL     1      -0.028  -0.567   1.143  0.00  0.00    -0.014 A 
BRANCH  11  14
ATOM     14  C   UNL     1       0.406  -4.083  -0.128  0.00  0.00    +0.244 C 
ATOM     15  O   UNL     1       0.570  -4.696   0.909  0.00  0.00    -0.270 OA
ATOM     16  N   UNL     1       0.423  -4.736  -1.307  0.00  0.00    -0.308 N 
ATOM     17  H   UNL     1       0.293  -4.247  -2.134  0.00  0.00    +0.149 HD
BRANCH  16  18
ATOM     18  C   UNL     1       0.638  -6.185  -1.339  0.00  0.00    +0.073 C 
ATOM     19  C   UNL     1       1.597  -6.734  -2.397  0.00  0.00    +0.024 C 
ATOM     20  C   UNL     1       0.089  -6.954  -2.542  0.00  0.00    +0.024 C 
ENDBRANCH  16  18
ENDBRANCH  11  14
ENDBRANCH   1  13
BRANCH   4  21
ATOM     21  C   UNL     1      -0.086   2.250   6.136  0.00  0.00    +0.248 C 
ATOM     22  O   UNL     1       0.589   3.252   6.276  0.00  0.00    -0.270 OA
ATOM     23  N   UNL     1      -0.847   1.801   7.153  0.00  0.00    -0.281 N 
ATOM     24  H   UNL     1      -1.443   1.048   7.018  0.00  0.00    +0.155 HD
BRANCH  23  25
ATOM     25  C   UNL     1      -0.777   2.422   8.405  0.00  0.00    +0.035 A 
ATOM     26  C   UNL     1      -1.910   2.497   9.208  0.00  0.00    +0.023 A 
ATOM     27  C   UNL     1      -1.846   3.109  10.445  0.00  0.00    +0.003 A 
ATOM     28  C   UNL     1      -0.658   3.650  10.893  0.00  0.00    +0.019 A 
ATOM     29  C   UNL     1       0.485   3.580  10.095  0.00  0.00    +0.054 A 
ATOM     30  C   UNL     1       0.422   2.957   8.847  0.00  0.00    +0.042 A 
BRANCH  29  31
ATOM     31  C   UNL     1       1.720   4.140  10.556  0.00  0.00    +0.099 C 
ATOM     32  N   UNL     1       2.699   4.584  10.923  0.00  0.00    -0.191 NA
ENDBRANCH  29  31
ENDBRANCH  23  25
ENDBRANCH   4  21
TORSDOF 6
