REMARK  Name = CHEMBL409916
REMARK  8 active torsions:
REMARK  status: ('A' for Active; 'I' for Inactive)
REMARK    1  A    between atoms: C_1  and  C_2
REMARK    2  A    between atoms: C_5  and  C_32
REMARK    3  A    between atoms: C_7  and  N_8
REMARK    4  A    between atoms: N_13  and  C_26
REMARK    5  A    between atoms: N_18  and  C_19
REMARK    6  A    between atoms: C_19  and  C_20
REMARK    7  A    between atoms: C_20  and  N_21
REMARK    8  A    between atoms: N_34  and  C_35
REMARK                            x       y       z     vdW  Elec       q    Type
REMARK                         _______ _______ _______ _____ _____    ______ ____
ROOT
ATOM      1  N   UNL     1       1.237   0.183   1.598  0.00  0.00    -0.299 N 
ATOM      2  C   UNL     1       1.182  -0.406   2.847  0.00  0.00    +0.139 A 
ATOM      3  C   UNL     1       1.243   0.377   4.017  0.00  0.00    +0.079 A 
ATOM      4  C   UNL     1       1.358   1.759   4.279  0.00  0.00    +0.148 A 
ATOM      5  N   UNL     1       1.367   1.936   5.570  0.00  0.00    -0.172 NA
ATOM      6  N   UNL     1       1.260   0.699   6.217  0.00  0.00    -0.214 N 
ATOM      7  C   UNL     1       1.182  -0.276   5.263  0.00  0.00    +0.170 A 
ATOM      8  N   UNL     1       1.070  -1.603   5.291  0.00  0.00    -0.195 NA
ATOM      9  C   UNL     1       1.017  -2.298   4.167  0.00  0.00    +0.219 A 
ATOM     10  N   UNL     1       1.064  -1.723   2.971  0.00  0.00    -0.199 NA
ATOM     11  N   UNL     1       0.900  -3.675   4.240  0.00  0.00    -0.315 N 
ATOM     12  H   UNL     1       1.410   1.134   1.518  0.00  0.00    +0.154 HD
ATOM     13  H   UNL     1       0.929  -4.119   5.102  0.00  0.00    +0.149 HD
ENDROOT
BRANCH   1  20
ATOM     14  C   UNL     1       2.390   1.090  -0.836  0.00  0.00    +0.045 C 
ATOM     15  C   UNL     1       1.591  -0.185  -0.762  0.00  0.00    -0.029 A 
ATOM     16  C   UNL     1       1.408  -0.951  -1.898  0.00  0.00    +0.006 A 
ATOM     17  C   UNL     1       0.677  -2.119  -1.839  0.00  0.00    +0.013 A 
ATOM     18  C   UNL     1       0.119  -2.533  -0.627  0.00  0.00    +0.038 A 
ATOM     19  C   UNL     1       0.303  -1.761   0.519  0.00  0.00    +0.036 A 
ATOM     20  C   UNL     1       1.044  -0.591   0.450  0.00  0.00    +0.036 A 
BRANCH  18  21
ATOM     21  C   UNL     1      -0.665  -3.785  -0.561  0.00  0.00    +0.244 C 
ATOM     22  O   UNL     1      -1.117  -4.163   0.502  0.00  0.00    -0.270 OA
ATOM     23  N   UNL     1      -0.880  -4.506  -1.679  0.00  0.00    -0.314 N 
ATOM     24  C   UNL     1      -1.742  -5.689  -1.634  0.00  0.00    +0.128 C 
ATOM     25  H   UNL     1      -0.462  -4.242  -2.514  0.00  0.00    +0.149 HD
ENDBRANCH  18  21
ENDBRANCH   1  20
BRANCH   6  26
ATOM     26  C   UNL     1       1.237   0.496   7.603  0.00  0.00    +0.068 A 
ATOM     27  C   UNL     1       0.462  -0.521   8.144  0.00  0.00    +0.028 A 
ATOM     28  C   UNL     1       0.442  -0.719   9.511  0.00  0.00    +0.002 A 
ATOM     29  C   UNL     1       1.192   0.095  10.340  0.00  0.00    +0.000 A 
ATOM     30  C   UNL     1       1.965   1.109   9.804  0.00  0.00    +0.002 A 
ATOM     31  C   UNL     1       1.994   1.307   8.437  0.00  0.00    +0.028 A 
ENDBRANCH   6  26
BRANCH  11  32
ATOM     32  C   UNL     1       0.734  -4.462   3.016  0.00  0.00    +0.086 C 
BRANCH  32  33
ATOM     33  C   UNL     1       0.601  -5.943   3.376  0.00  0.00    -0.060 C 
BRANCH  33  34
ATOM     34  N   UNL     1       0.488  -6.738   2.146  0.00  0.00    +0.381 N 
ATOM     35  C   UNL     1       1.778  -6.727   1.409  0.00  0.00    -0.079 C 
ATOM     36  C   UNL     1       1.688  -7.991   0.518  0.00  0.00    -0.020 C 
ATOM     37  C   UNL     1       0.969  -9.008   1.432  0.00  0.00    -0.020 C 
ATOM     38  C   UNL     1       0.225  -8.155   2.477  0.00  0.00    -0.079 C 
ATOM     39  H   UNL     1      -0.249  -6.374   1.562  0.00  0.00    -0.082 HD
ENDBRANCH  33  34
ENDBRANCH  32  33
ENDBRANCH  11  32
TORSDOF 6
