REMARK  Name = CHEMBL493707
REMARK  4 active torsions:
REMARK  status: ('A' for Active; 'I' for Inactive)
REMARK    1  A    between atoms: C_1  and  C_2
REMARK    2  A    between atoms: C_7  and  C_8
REMARK    3  A    between atoms: C_17  and  N_18
REMARK    4  A    between atoms: C_23  and  C_25
REMARK                            x       y       z     vdW  Elec       q    Type
REMARK                         _______ _______ _______ _____ _____    ______ ____
ROOT
ATOM      1  C   UNL     1      -0.850  -0.061   3.033  0.00  0.00    -0.015 A 
ATOM      2  C   UNL     1       0.334  -0.242   3.767  0.00  0.00    +0.009 A 
ATOM      3  C   UNL     1       0.601   0.519   4.862  0.00  0.00    +0.012 A 
ATOM      4  C   UNL     1      -0.314   1.498   5.268  0.00  0.00    +0.023 A 
ATOM      5  C   UNL     1      -1.514   1.692   4.534  0.00  0.00    +0.006 A 
ATOM      6  C   UNL     1      -1.771   0.904   3.407  0.00  0.00    +0.018 A 
ATOM      7  C   UNL     1      -2.403   2.689   4.980  0.00  0.00    +0.141 A 
ATOM      8  N   UNL     1      -2.091   3.392   6.044  0.00  0.00    -0.180 NA
ATOM      9  N   UNL     1      -1.010   3.223   6.711  0.00  0.00    -0.264 N 
ATOM     10  C   UNL     1      -0.097   2.322   6.395  0.00  0.00    +0.123 A 
ATOM     11  H   UNL     1      -0.855   3.785   7.486  0.00  0.00    +0.190 HD
ENDROOT
BRANCH   1  18
ATOM     12  C   UNL     1      -0.963   1.148   0.418  0.00  0.00    +0.044 C 
ATOM     13  C   UNL     1      -1.170  -0.336   0.580  0.00  0.00    -0.041 A 
ATOM     14  C   UNL     1      -1.410  -1.123  -0.537  0.00  0.00    +0.005 A 
ATOM     15  C   UNL     1      -1.601  -2.469  -0.415  0.00  0.00    +0.014 A 
ATOM     16  C   UNL     1      -1.555  -3.072   0.847  0.00  0.00    +0.042 A 
ATOM     17  C   UNL     1      -1.313  -2.288   1.988  0.00  0.00    +0.076 A 
ATOM     18  C   UNL     1      -1.113  -0.906   1.844  0.00  0.00    +0.010 A 
ATOM     19  N   UNL     1      -1.325  -3.135   3.063  0.00  0.00    -0.275 N 
ATOM     20  N   UNL     1      -1.570  -4.438   2.619  0.00  0.00    -0.158 NA
ATOM     21  C   UNL     1      -1.713  -4.449   1.320  0.00  0.00    +0.146 A 
ATOM     22  N   UNL     1      -1.970  -5.570   0.527  0.00  0.00    -0.341 N 
ATOM     23  H   UNL     1      -2.060  -5.474  -0.434  0.00  0.00    +0.144 HD
ATOM     24  H   UNL     1      -2.058  -6.444   0.937  0.00  0.00    +0.144 HD
ATOM     25  H   UNL     1      -1.185  -2.873   3.986  0.00  0.00    +0.189 HD
ENDBRANCH   1  18
BRANCH  10  26
ATOM     26  N   UNL     1       1.053   2.186   7.156  0.00  0.00    -0.308 N 
ATOM     27  C   UNL     1       1.101   1.256   8.296  0.00  0.00    +0.135 C 
ATOM     28  C   UNL     1       1.639   2.014   9.515  0.00  0.00    +0.179 C 
ATOM     29  O   UNL     1       2.868   2.656   9.166  0.00  0.00    -0.376 OA
ATOM     30  C   UNL     1       2.742   3.642   8.139  0.00  0.00    +0.182 C 
ATOM     31  C   UNL     1       2.263   2.963   6.845  0.00  0.00    +0.097 C 
ATOM     32  C   UNL     1       1.937   4.026   5.794  0.00  0.00    +0.030 C 
ENDBRANCH  10  26
TORSDOF 2
