REMARK  Name = CHEMBL480952
REMARK  6 active torsions:
REMARK  status: ('A' for Active; 'I' for Inactive)
REMARK    1  A    between atoms: C_1  and  S_2
REMARK    2  A    between atoms: S_2  and  C_3
REMARK    3  A    between atoms: C_6  and  C_16
REMARK    4  A    between atoms: C_7  and  C_9
REMARK    5  A    between atoms: N_22  and  C_23
REMARK    6  A    between atoms: C_23  and  C_24
REMARK                            x       y       z     vdW  Elec       q    Type
REMARK                         _______ _______ _______ _____ _____    ______ ____
ROOT
ATOM      1  C   UNL     1      -0.735   3.448  -1.364  0.00  0.00    +0.167 A 
ATOM      2  N   UNL     1      -1.262   4.342  -2.245  0.00  0.00    -0.332 N 
ATOM      3  H   UNL     1      -1.654   4.137  -3.108  0.00  0.00    +0.168 HD
ATOM      4  C   UNL     1      -1.133   5.598  -1.678  0.00  0.00    +0.075 A 
ATOM      5  C   UNL     1      -0.522   5.409  -0.453  0.00  0.00    +0.098 A 
ATOM      6  N   UNL     1      -0.304   4.090  -0.303  0.00  0.00    -0.221 NA
ENDROOT
BRANCH   4   7
ATOM      7  C   UNL     1      -1.562   6.880  -2.264  0.00  0.00    +0.005 A 
ATOM      8  C   UNL     1      -0.701   7.990  -2.279  0.00  0.00    +0.030 A 
ATOM      9  C   UNL     1      -1.138   9.170  -2.836  0.00  0.00    +0.113 A 
ATOM     10  N   UNL     1      -2.350   9.271  -3.353  0.00  0.00    -0.240 NA
ATOM     11  C   UNL     1      -3.196   8.251  -3.363  0.00  0.00    +0.119 A 
ATOM     12  C   UNL     1      -2.835   7.024  -2.827  0.00  0.00    +0.053 A 
ATOM     13  N   UNL     1      -4.460   8.412  -3.921  0.00  0.00    -0.327 N 
ATOM     14  H   UNL     1      -4.718   9.267  -4.300  0.00  0.00    +0.148 HD
BRANCH  13  15
ATOM     15  C   UNL     1      -5.403   7.290  -3.936  0.00  0.00    +0.134 C 
BRANCH  15  16
ATOM     16  C   UNL     1      -6.708   7.730  -4.601  0.00  0.00    +0.135 C 
ATOM     17  C   UNL     1      -7.748   6.592  -4.518  0.00  0.00    +0.035 C 
ATOM     18  C   UNL     1      -8.441   6.677  -5.905  0.00  0.00    +0.031 C 
ATOM     19  C   UNL     1      -7.254   7.113  -6.801  0.00  0.00    +0.160 C 
ATOM     20  O   UNL     1      -6.479   8.007  -5.987  0.00  0.00    -0.375 OA
ENDBRANCH  15  16
ENDBRANCH  13  15
ENDBRANCH   4   7
BRANCH   5  21
ATOM     21  C   UNL     1      -0.174   6.469   0.522  0.00  0.00    +0.003 A 
ATOM     22  C   UNL     1      -1.081   7.493   0.796  0.00  0.00    +0.013 A 
ATOM     23  C   UNL     1      -0.752   8.478   1.704  0.00  0.00    +0.039 A 
ATOM     24  C   UNL     1       0.477   8.450   2.345  0.00  0.00    +0.123 A 
ATOM     25  C   UNL     1       1.380   7.435   2.077  0.00  0.00    +0.039 A 
ATOM     26  C   UNL     1       1.059   6.442   1.174  0.00  0.00    +0.013 A 
ATOM     27  F   UNL     1       0.794   9.417   3.233  0.00  0.00    -0.205 F 
ENDBRANCH   5  21
BRANCH   1  29
ATOM     28  C   UNL     1       0.136   1.089  -0.092  0.00  0.00    +0.093 C 
ATOM     29  S   UNL     1      -0.653   1.704  -1.605  0.00  0.00    -0.091 S 
ENDBRANCH   1  29
TORSDOF 5
