REMARK  Name = CHEMBL197351
REMARK  6 active torsions:
REMARK  status: ('A' for Active; 'I' for Inactive)
REMARK    1  A    between atoms: C_1  and  C_2
REMARK    2  A    between atoms: C_5  and  C_24
REMARK    3  A    between atoms: C_7  and  N_8
REMARK    4  A    between atoms: C_10  and  C_22
REMARK    5  A    between atoms: C_11  and  N_16
REMARK    6  A    between atoms: N_16  and  C_17
REMARK                            x       y       z     vdW  Elec       q    Type
REMARK                         _______ _______ _______ _____ _____    ______ ____
ROOT
ATOM      1  N   UNL     1       0.025  -0.008   2.417  0.00  0.00    -0.298 N 
ATOM      2  C   UNL     1      -0.059  -0.700   3.609  0.00  0.00    +0.147 A 
ATOM      3  C   UNL     1      -0.170  -0.009   4.833  0.00  0.00    +0.131 A 
ATOM      4  C   UNL     1      -0.252  -0.768   6.018  0.00  0.00    +0.143 A 
ATOM      5  N   UNL     1      -0.221  -2.094   5.934  0.00  0.00    -0.198 NA
ATOM      6  C   UNL     1      -0.116  -2.702   4.761  0.00  0.00    +0.216 A 
ATOM      7  N   UNL     1      -0.042  -2.029   3.622  0.00  0.00    -0.198 NA
ATOM      8  N   UNL     1      -0.087  -4.081   4.724  0.00  0.00    -0.327 N 
ATOM      9  H   UNL     1      -0.086   0.956   2.406  0.00  0.00    +0.154 HD
ATOM     10  H   UNL     1      -0.144  -4.590   5.549  0.00  0.00    +0.145 HD
ATOM     11  H   UNL     1      -0.011  -4.543   3.874  0.00  0.00    +0.145 HD
ENDROOT
BRANCH   1  18
ATOM     12  C   UNL     1      -0.994   1.095   0.004  0.00  0.00    +0.045 C 
ATOM     13  C   UNL     1      -0.212  -0.193   0.021  0.00  0.00    -0.029 A 
ATOM     14  C   UNL     1       0.030  -0.868  -1.162  0.00  0.00    +0.006 A 
ATOM     15  C   UNL     1       0.746  -2.047  -1.155  0.00  0.00    +0.013 A 
ATOM     16  C   UNL     1       1.228  -2.564   0.050  0.00  0.00    +0.039 A 
ATOM     17  C   UNL     1       0.983  -1.884   1.243  0.00  0.00    +0.036 A 
ATOM     18  C   UNL     1       0.268  -0.697   1.224  0.00  0.00    +0.036 A 
BRANCH  16  19
ATOM     19  C   UNL     1       1.994  -3.828   0.060  0.00  0.00    +0.249 C 
ATOM     20  O   UNL     1       2.412  -4.277   1.110  0.00  0.00    -0.270 OA
ATOM     21  N   UNL     1       2.229  -4.484  -1.094  0.00  0.00    -0.264 N 
ATOM     22  C   UNL     1       2.951  -5.676  -1.084  0.00  0.00    +0.168 A 
ATOM     23  C   UNL     1       3.490  -6.313   0.057  0.00  0.00    +0.088 A 
ATOM     24  C   UNL     1       4.114  -7.434  -0.346  0.00  0.00    +0.232 A 
ATOM     25  O   UNL     1       3.990  -7.525  -1.679  0.00  0.00    -0.361 OA
ATOM     26  N   UNL     1       3.246  -6.407  -2.128  0.00  0.00    -0.063 NA
ATOM     27  H   UNL     1       1.895  -4.126  -1.931  0.00  0.00    +0.157 HD
ENDBRANCH  16  19
ENDBRANCH   1  18
BRANCH   4  28
ATOM     28  N   UNL     1      -0.361  -0.145   7.244  0.00  0.00    -0.325 N 
ATOM     29  H   UNL     1      -0.382   0.824   7.296  0.00  0.00    +0.148 HD
BRANCH  28  30
ATOM     30  C   UNL     1      -0.445  -0.945   8.468  0.00  0.00    +0.072 C 
ATOM     31  C   UNL     1      -1.916  -1.306   8.764  0.00  0.00    +0.022 C 
ATOM     32  C   UNL     1      -2.022  -1.232  10.307  0.00  0.00    +0.002 C 
ATOM     33  C   UNL     1      -1.126  -0.017  10.654  0.00  0.00    +0.002 C 
ATOM     34  C   UNL     1       0.057  -0.126   9.670  0.00  0.00    +0.022 C 
ENDBRANCH  28  30
ENDBRANCH   4  28
BRANCH   3  35
ATOM     35  C   UNL     1      -0.198   1.422   4.871  0.00  0.00    +0.106 C 
ATOM     36  N   UNL     1      -0.221   2.557   4.901  0.00  0.00    -0.191 NA
ENDBRANCH   3  35
TORSDOF 5
