REMARK  Name = CHEMBL194201
REMARK  8 active torsions:
REMARK  status: ('A' for Active; 'I' for Inactive)
REMARK    1  A    between atoms: C_1  and  C_2
REMARK    2  A    between atoms: C_2  and  C_3
REMARK    3  A    between atoms: C_5  and  C_25
REMARK    4  A    between atoms: C_6  and  C_8
REMARK    5  A    between atoms: C_15  and  C_17
REMARK    6  A    between atoms: C_17  and  C_18
REMARK    7  A    between atoms: C_18  and  C_19
REMARK    8  A    between atoms: C_29  and  C_31
REMARK                            x       y       z     vdW  Elec       q    Type
REMARK                         _______ _______ _______ _____ _____    ______ ____
ROOT
ATOM      1  C   UNL     1      -5.159  -2.135   0.748  0.00  0.00    -0.005 A 
ATOM      2  C   UNL     1      -6.062  -2.557  -0.239  0.00  0.00    +0.029 A 
ATOM      3  C   UNL     1      -7.269  -3.097   0.144  0.00  0.00    +0.113 A 
ATOM      4  N   UNL     1      -7.585  -3.221   1.421  0.00  0.00    -0.240 NA
ATOM      5  C   UNL     1      -6.764  -2.837   2.387  0.00  0.00    +0.125 A 
ATOM      6  C   UNL     1      -5.526  -2.288   2.089  0.00  0.00    +0.053 A 
ATOM      7  N   UNL     1      -7.147  -2.991   3.719  0.00  0.00    -0.270 N 
ATOM      8  C   UNL     1      -8.298  -3.625   4.020  0.00  0.00    +0.219 C 
ATOM      9  O   UNL     1      -9.046  -3.978   3.133  0.00  0.00    -0.275 OA
ATOM     10  H   UNL     1      -6.586  -2.641   4.428  0.00  0.00    +0.156 HD
ENDROOT
BRANCH   1  14
ATOM     11  C   UNL     1      -1.356  -0.824   0.067  0.00  0.00    +0.079 A 
ATOM     12  N   UNL     1      -2.274  -0.239  -0.660  0.00  0.00    -0.243 NA
ATOM     13  C   UNL     1      -3.552  -0.559  -0.551  0.00  0.00    +0.086 A 
ATOM     14  C   UNL     1      -3.854  -1.550   0.381  0.00  0.00    +0.047 A 
ATOM     15  S   UNL     1      -2.222  -1.921   1.003  0.00  0.00    -0.071 S 
BRANCH  13  16
ATOM     16  C   UNL     1      -4.599   0.096  -1.369  0.00  0.00    +0.002 A 
ATOM     17  C   UNL     1      -5.803   0.486  -0.783  0.00  0.00    +0.010 A 
ATOM     18  C   UNL     1      -6.775   1.096  -1.550  0.00  0.00    +0.001 A 
ATOM     19  C   UNL     1      -6.556   1.322  -2.897  0.00  0.00    +0.003 A 
ATOM     20  C   UNL     1      -5.364   0.937  -3.484  0.00  0.00    -0.050 A 
ATOM     21  C   UNL     1      -4.382   0.331  -2.726  0.00  0.00    +0.013 A 
ATOM     22  C   UNL     1      -5.133   1.186  -4.952  0.00  0.00    +0.044 C 
ENDBRANCH  13  16
BRANCH  11  24
ATOM     23  C   UNL     1       0.469   0.511   1.084  0.00  0.00    +0.011 C 
ATOM     24  C   UNL     1       0.130  -0.576   0.062  0.00  0.00    +0.059 C 
ENDBRANCH  11  24
ENDBRANCH   1  14
BRANCH   8  25
ATOM     25  C   UNL     1      -8.655  -3.896   5.459  0.00  0.00    +0.101 C 
BRANCH  25  26
ATOM     26  C   UNL     1     -10.000  -4.622   5.523  0.00  0.00    +0.044 C 
BRANCH  26  27
ATOM     27  C   UNL     1     -10.357  -4.893   6.962  0.00  0.00    -0.047 A 
ATOM     28  C   UNL     1      -9.950  -6.068   7.565  0.00  0.00    +0.003 A 
ATOM     29  C   UNL     1     -10.277  -6.316   8.885  0.00  0.00    +0.000 A 
ATOM     30  C   UNL     1     -11.011  -5.389   9.601  0.00  0.00    +0.000 A 
ATOM     31  C   UNL     1     -11.417  -4.213   8.998  0.00  0.00    +0.000 A 
ATOM     32  C   UNL     1     -11.086  -3.963   7.679  0.00  0.00    +0.003 A 
ENDBRANCH  26  27
ENDBRANCH  25  26
ENDBRANCH   8  25
TORSDOF 6
