REMARK  Name = CHEMBL109732
REMARK  10 active torsions:
REMARK  status: ('A' for Active; 'I' for Inactive)
REMARK    1  A    between atoms: C_1  and  C_2
REMARK    2  A    between atoms: C_2  and  C_3
REMARK    3  A    between atoms: C_2  and  N_9
REMARK    4  A    between atoms: C_12  and  C_16
REMARK    5  A    between atoms: C_17  and  C_33
REMARK    6  A    between atoms: C_19  and  S_22
REMARK    7  A    between atoms: S_22  and  C_23
REMARK    8  A    between atoms: C_23  and  C_24
REMARK    9  A    between atoms: C_27  and  S_30
REMARK   10  A    between atoms: S_30  and  C_32
REMARK                            x       y       z     vdW  Elec       q    Type
REMARK                         _______ _______ _______ _____ _____    ______ ____
ROOT
ATOM      1  C   UNL     1      -1.559  -0.062  -4.853  0.00  0.00    +0.075 A 
ATOM      2  C   UNL     1      -2.186   0.548  -5.923  0.00  0.00    +0.098 A 
ATOM      3  N   UNL     1      -1.291   0.637  -6.925  0.00  0.00    -0.221 NA
ATOM      4  C   UNL     1      -0.147   0.119  -6.542  0.00  0.00    +0.168 A 
ATOM      5  N   UNL     1      -0.263  -0.324  -5.260  0.00  0.00    -0.332 N 
ATOM      6  H   UNL     1       0.433  -0.746  -4.731  0.00  0.00    +0.168 HD
ENDROOT
BRANCH   1  10
ATOM      7  N   UNL     1      -1.425  -0.030   0.046  0.00  0.00    -0.322 N 
ATOM      8  C   UNL     1      -2.078  -0.347  -1.140  0.00  0.00    +0.120 A 
ATOM      9  C   UNL     1      -1.482  -0.041  -2.354  0.00  0.00    +0.053 A 
ATOM     10  C   UNL     1      -2.152  -0.367  -3.538  0.00  0.00    +0.005 A 
ATOM     11  C   UNL     1      -3.406  -0.993  -3.440  0.00  0.00    +0.030 A 
ATOM     12  C   UNL     1      -3.925  -1.261  -2.195  0.00  0.00    +0.113 A 
ATOM     13  N   UNL     1      -3.261  -0.944  -1.097  0.00  0.00    -0.240 NA
ATOM     14  H   UNL     1      -1.836  -0.245   0.898  0.00  0.00    +0.148 HD
BRANCH   7  16
ATOM     15  C   UNL     1      -0.312   2.141  -0.117  0.00  0.00    +0.033 C 
ATOM     16  C   UNL     1      -0.117   0.629   0.009  0.00  0.00    +0.099 C 
BRANCH  16  17
ATOM     17  C   UNL     1       0.636   0.324   1.278  0.00  0.00    -0.028 A 
ATOM     18  C   UNL     1      -0.031   0.298   2.488  0.00  0.00    +0.005 A 
ATOM     19  C   UNL     1       0.659   0.018   3.652  0.00  0.00    +0.000 A 
ATOM     20  C   UNL     1       2.017  -0.237   3.606  0.00  0.00    +0.000 A 
ATOM     21  C   UNL     1       2.684  -0.213   2.395  0.00  0.00    +0.000 A 
ATOM     22  C   UNL     1       1.992   0.063   1.231  0.00  0.00    +0.005 A 
ENDBRANCH  16  17
ENDBRANCH   7  16
ENDBRANCH   1  10
BRANCH   2  23
ATOM     23  C   UNL     1      -3.590   1.019  -5.961  0.00  0.00    +0.003 A 
ATOM     24  C   UNL     1      -4.128   1.704  -4.872  0.00  0.00    +0.013 A 
ATOM     25  C   UNL     1      -5.436   2.141  -4.912  0.00  0.00    +0.039 A 
ATOM     26  C   UNL     1      -6.215   1.901  -6.033  0.00  0.00    +0.123 A 
ATOM     27  C   UNL     1      -5.685   1.220  -7.117  0.00  0.00    +0.039 A 
ATOM     28  C   UNL     1      -4.376   0.785  -7.089  0.00  0.00    +0.013 A 
ATOM     29  F   UNL     1      -7.495   2.330  -6.067  0.00  0.00    -0.205 F 
ENDBRANCH   2  23
BRANCH   4  30
ATOM     30  S   UNL     1       1.309   0.019  -7.528  0.00  0.00    -0.083 S 
BRANCH  30  31
ATOM     31  C   UNL     1       0.825   0.776  -9.104  0.00  0.00    +0.112 C 
BRANCH  31  32
ATOM     32  C   UNL     1       1.995   0.755 -10.053  0.00  0.00    -0.037 A 
ATOM     33  C   UNL     1       2.885   1.813 -10.077  0.00  0.00    +0.005 A 
ATOM     34  C   UNL     1       3.958   1.794 -10.947  0.00  0.00    +0.017 A 
ATOM     35  C   UNL     1       4.143   0.716 -11.793  0.00  0.00    +0.039 A 
ATOM     36  C   UNL     1       3.255  -0.343 -11.768  0.00  0.00    +0.017 A 
ATOM     37  C   UNL     1       2.183  -0.325 -10.895  0.00  0.00    +0.005 A 
BRANCH  35  38
ATOM     38  S   UNL     1       5.512   0.692 -12.902  0.00  0.00    +0.051 S 
ATOM     39  O   UNL     1       5.827   2.064 -13.089  0.00  0.00    -0.252 OA
ATOM     40  C   UNL     1       6.833  -0.108 -11.952  0.00  0.00    +0.127 C 
ENDBRANCH  35  38
ENDBRANCH  31  32
ENDBRANCH  30  31
ENDBRANCH   4  30
TORSDOF 8
