REMARK  Name = CHEMBL495492
REMARK  7 active torsions:
REMARK  status: ('A' for Active; 'I' for Inactive)
REMARK    1  A    between atoms: C_1  and  C_2
REMARK    2  A    between atoms: C_7  and  C_8
REMARK    3  A    between atoms: C_17  and  N_18
REMARK    4  A    between atoms: N_18  and  C_19
REMARK    5  A    between atoms: C_19  and  C_20
REMARK    6  A    between atoms: C_19  and  C_21
REMARK    7  A    between atoms: N_25  and  C_26
REMARK                            x       y       z     vdW  Elec       q    Type
REMARK                         _______ _______ _______ _____ _____    ______ ____
ROOT
ATOM      1  C   UNL     1      -0.018   1.503   0.010  0.00  0.00    +0.044 C 
ATOM      2  C   UNL     1       0.002  -0.004   0.002  0.00  0.00    -0.039 A 
ATOM      3  C   UNL     1       0.006  -0.685  -1.204  0.00  0.00    +0.005 A 
ATOM      4  C   UNL     1       0.024  -2.063  -1.228  0.00  0.00    +0.015 A 
ATOM      5  C   UNL     1       0.040  -2.781  -0.031  0.00  0.00    +0.063 A 
ATOM      6  C   UNL     1       0.036  -2.102   1.194  0.00  0.00    +0.177 A 
ATOM      7  C   UNL     1       0.023  -0.701   1.204  0.00  0.00    +0.031 A 
ATOM      8  O   UNL     1       0.054  -3.032   2.169  0.00  0.00    -0.352 OA
ATOM      9  N   UNL     1       0.070  -4.321   1.590  0.00  0.00    -0.062 NA
ATOM     10  C   UNL     1       0.061  -4.217   0.290  0.00  0.00    +0.170 A 
ATOM     11  N   UNL     1       0.072  -5.264  -0.620  0.00  0.00    -0.323 N 
ATOM     12  H   UNL     1       0.064  -5.079  -1.572  0.00  0.00    +0.148 HD
ENDROOT
BRANCH   7  13
ATOM     13  C   UNL     1       0.025   0.035   2.492  0.00  0.00    -0.013 A 
ATOM     14  C   UNL     1       1.120   0.847   2.827  0.00  0.00    +0.009 A 
ATOM     15  C   UNL     1       1.149   1.533   4.001  0.00  0.00    +0.012 A 
ATOM     16  C   UNL     1       0.073   1.432   4.891  0.00  0.00    +0.025 A 
ATOM     17  C   UNL     1      -1.041   0.614   4.564  0.00  0.00    +0.006 A 
ATOM     18  C   UNL     1      -1.056  -0.081   3.350  0.00  0.00    +0.018 A 
ATOM     19  C   UNL     1      -2.099   0.544   5.491  0.00  0.00    +0.143 A 
ATOM     20  N   UNL     1      -2.015   1.229   6.607  0.00  0.00    -0.155 NA
ATOM     21  N   UNL     1      -1.014   1.969   6.909  0.00  0.00    -0.134 NA
ATOM     22  C   UNL     1       0.040   2.119   6.125  0.00  0.00    +0.149 A 
BRANCH  22  23
ATOM     23  N   UNL     1       1.093   2.933   6.508  0.00  0.00    -0.325 N 
ATOM     24  H   UNL     1       1.862   3.036   5.926  0.00  0.00    +0.148 HD
BRANCH  23  25
ATOM     25  C   UNL     1       1.045   3.639   7.790  0.00  0.00    +0.066 C 
ATOM     26  C   UNL     1       2.470   3.934   8.264  0.00  0.00    +0.027 C 
ATOM     27  C   UNL     1       0.282   4.954   7.620  0.00  0.00    +0.027 C 
ENDBRANCH  23  25
ENDBRANCH  22  23
ENDBRANCH   7  13
BRANCH  11  28
ATOM     28  C   UNL     1       0.094  -6.649  -0.143  0.00  0.00    +0.072 C 
ATOM     29  C   UNL     1       1.040  -7.624  -0.847  0.00  0.00    +0.024 C 
ATOM     30  C   UNL     1      -0.469  -7.726  -1.073  0.00  0.00    +0.024 C 
ENDBRANCH  11  28
TORSDOF 4
