REMARK  Name = CHEMBL366080
REMARK  7 active torsions:
REMARK  status: ('A' for Active; 'I' for Inactive)
REMARK    1  A    between atoms: C_1  and  C_2
REMARK    2  A    between atoms: C_5  and  N_24
REMARK    3  A    between atoms: C_7  and  N_8
REMARK    4  A    between atoms: N_15  and  C_16
REMARK    5  A    between atoms: N_15  and  C_17
REMARK    6  A    between atoms: N_20  and  C_23
REMARK    7  A    between atoms: C_25  and  C_27
REMARK                            x       y       z     vdW  Elec       q    Type
REMARK                         _______ _______ _______ _____ _____    ______ ____
ROOT
ATOM      1  C   UNL     1       0.002   1.412  -0.602  0.00  0.00    +0.045 C 
ATOM      2  C   UNL     1      -0.035  -0.085  -0.435  0.00  0.00    -0.029 A 
ATOM      3  C   UNL     1       0.045  -0.905  -1.544  0.00  0.00    +0.007 A 
ATOM      4  C   UNL     1       0.011  -2.278  -1.396  0.00  0.00    +0.024 A 
ATOM      5  C   UNL     1      -0.103  -2.839  -0.130  0.00  0.00    +0.035 A 
ATOM      6  C   UNL     1      -0.183  -2.019   0.986  0.00  0.00    +0.046 A 
ATOM      7  C   UNL     1      -0.143  -0.640   0.834  0.00  0.00    +0.037 A 
ENDROOT
BRANCH   7   8
ATOM      8  N   UNL     1      -0.217   0.191   1.956  0.00  0.00    -0.299 N 
ATOM      9  C   UNL     1      -1.391   0.874   2.237  0.00  0.00    +0.128 A 
ATOM     10  C   UNL     1      -2.537   0.658   1.469  0.00  0.00    +0.061 A 
ATOM     11  C   UNL     1      -3.683   1.361   1.784  0.00  0.00    +0.089 A 
ATOM     12  N   UNL     1      -3.663   2.212   2.799  0.00  0.00    -0.334 N 
ATOM     13  C   UNL     1      -2.561   2.398   3.511  0.00  0.00    +0.197 A 
ATOM     14  N   UNL     1      -1.443   1.739   3.244  0.00  0.00    -0.201 NA
ATOM     15  N   UNL     1      -2.580   3.297   4.563  0.00  0.00    -0.301 N 
ATOM     16  C   UNL     1      -3.809   4.030   4.878  0.00  0.00    +0.132 C 
ATOM     17  H   UNL     1       0.552   0.289   2.539  0.00  0.00    +0.154 HD
ATOM     18  H   UNL     1      -4.466   2.708   3.024  0.00  0.00    +0.168 HD
BRANCH  15  19
ATOM     19  C   UNL     1      -1.371   3.515   5.362  0.00  0.00    +0.072 C 
ATOM     20  C   UNL     1      -1.655   3.165   6.825  0.00  0.00    +0.004 C 
ATOM     21  C   UNL     1      -0.414   3.470   7.667  0.00  0.00    -0.077 C 
ATOM     22  N   UNL     1      -0.084   4.897   7.559  0.00  0.00    +0.378 N 
ATOM     23  C   UNL     1       0.258   5.225   6.170  0.00  0.00    -0.077 C 
ATOM     24  C   UNL     1      -0.957   4.987   5.271  0.00  0.00    +0.004 C 
ATOM     25  C   UNL     1       1.060   5.201   8.428  0.00  0.00    -0.096 C 
ATOM     26  H   UNL     1      -0.879   5.447   7.847  0.00  0.00    -0.082 HD
ENDBRANCH  15  19
ENDBRANCH   7   8
BRANCH   5  27
ATOM     27  N   UNL     1      -0.139  -4.229   0.020  0.00  0.00    -0.281 N 
ATOM     28  C   UNL     1       0.430  -4.806   1.097  0.00  0.00    +0.248 C 
ATOM     29  O   UNL     1       1.058  -4.130   1.887  0.00  0.00    -0.270 OA
ATOM     30  H   UNL     1      -0.573  -4.778  -0.652  0.00  0.00    +0.155 HD
BRANCH  28  31
ATOM     31  C   UNL     1       0.290  -6.264   1.317  0.00  0.00    +0.042 A 
ATOM     32  C   UNL     1      -0.424  -7.062   0.414  0.00  0.00    +0.033 A 
ATOM     33  C   UNL     1      -0.532  -8.416   0.653  0.00  0.00    +0.113 A 
ATOM     34  N   UNL     1       0.026  -8.965   1.715  0.00  0.00    -0.240 NA
ATOM     35  C   UNL     1       0.710  -8.251   2.595  0.00  0.00    +0.122 A 
ATOM     36  C   UNL     1       0.872  -6.880   2.425  0.00  0.00    +0.056 A 
ATOM     37  N   UNL     1       1.278  -8.880   3.697  0.00  0.00    -0.311 N 
ATOM     38  C   UNL     1       1.321 -10.347   3.794  0.00  0.00    +0.134 C 
ATOM     39  C   UNL     1       2.757 -10.768   4.128  0.00  0.00    +0.178 C 
ATOM     40  O   UNL     1       3.205 -10.043   5.275  0.00  0.00    -0.377 OA
ATOM     41  C   UNL     1       3.264  -8.627   5.086  0.00  0.00    +0.178 C 
ATOM     42  C   UNL     1       1.859  -8.097   4.799  0.00  0.00    +0.134 C 
ENDBRANCH  28  31
ENDBRANCH   5  27
TORSDOF 4
