REMARK  Name = CHEMBL364576
REMARK  11 active torsions:
REMARK  status: ('A' for Active; 'I' for Inactive)
REMARK    1  A    between atoms: C_1  and  C_2
REMARK    2  A    between atoms: C_5  and  N_23
REMARK    3  A    between atoms: C_7  and  N_8
REMARK    4  A    between atoms: C_12  and  O_21
REMARK    5  A    between atoms: C_13  and  O_19
REMARK    6  A    between atoms: O_19  and  C_20
REMARK    7  A    between atoms: O_21  and  C_22
REMARK    8  A    between atoms: C_24  and  C_26
REMARK    9  A    between atoms: C_30  and  N_32
REMARK   10  A    between atoms: N_32  and  C_33
REMARK   11  A    between atoms: N_32  and  C_34
REMARK                            x       y       z     vdW  Elec       q    Type
REMARK                         _______ _______ _______ _____ _____    ______ ____
ROOT
ATOM      1  C   UNL     1      -0.101   1.584  -0.191  0.00  0.00    +0.045 C 
ATOM      2  C   UNL     1       0.249   0.140  -0.439  0.00  0.00    -0.029 A 
ATOM      3  C   UNL     1       0.131  -0.391  -1.710  0.00  0.00    +0.007 A 
ATOM      4  C   UNL     1       0.452  -1.714  -1.941  0.00  0.00    +0.024 A 
ATOM      5  C   UNL     1       0.894  -2.517  -0.896  0.00  0.00    +0.035 A 
ATOM      6  C   UNL     1       1.013  -1.988   0.381  0.00  0.00    +0.046 A 
ATOM      7  C   UNL     1       0.695  -0.656   0.609  0.00  0.00    +0.037 A 
ENDROOT
BRANCH   7   8
ATOM      8  N   UNL     1       0.819  -0.117   1.893  0.00  0.00    -0.299 N 
ATOM      9  C   UNL     1       0.717  -0.938   2.998  0.00  0.00    +0.134 A 
ATOM     10  C   UNL     1       0.968  -0.439   4.299  0.00  0.00    +0.044 A 
ATOM     11  C   UNL     1       1.329   0.895   4.524  0.00  0.00    +0.062 A 
ATOM     12  C   UNL     1       1.561   1.327   5.798  0.00  0.00    +0.162 A 
ATOM     13  C   UNL     1       1.442   0.449   6.885  0.00  0.00    +0.164 A 
ATOM     14  C   UNL     1       1.089  -0.867   6.691  0.00  0.00    +0.078 A 
ATOM     15  C   UNL     1       0.846  -1.332   5.392  0.00  0.00    +0.080 A 
ATOM     16  N   UNL     1       0.498  -2.605   5.149  0.00  0.00    -0.235 NA
ATOM     17  C   UNL     1       0.277  -3.012   3.922  0.00  0.00    +0.223 A 
ATOM     18  N   UNL     1       0.374  -2.213   2.871  0.00  0.00    -0.220 NA
ATOM     19  H   UNL     1       0.977   0.833   2.007  0.00  0.00    +0.154 HD
BRANCH  13  20
ATOM     20  O   UNL     1       1.678   0.903   8.144  0.00  0.00    -0.491 OA
ATOM     21  C   UNL     1       1.540  -0.040   9.210  0.00  0.00    +0.277 C 
ENDBRANCH  13  20
BRANCH  12  22
ATOM     22  O   UNL     1       1.911   2.623   6.016  0.00  0.00    -0.491 OA
ATOM     23  C   UNL     1       2.017   3.468   4.868  0.00  0.00    +0.277 C 
ENDBRANCH  12  22
ENDBRANCH   7   8
BRANCH   5  24
ATOM     24  N   UNL     1       1.218  -3.857  -1.132  0.00  0.00    -0.281 N 
ATOM     25  C   UNL     1       1.849  -4.208  -2.270  0.00  0.00    +0.248 C 
ATOM     26  O   UNL     1       2.054  -3.376  -3.132  0.00  0.00    -0.270 OA
ATOM     27  H   UNL     1       0.988  -4.534  -0.476  0.00  0.00    +0.155 HD
BRANCH  25  28
ATOM     28  C   UNL     1       2.291  -5.604  -2.469  0.00  0.00    +0.039 A 
ATOM     29  C   UNL     1       2.050  -6.563  -1.483  0.00  0.00    +0.013 A 
ATOM     30  C   UNL     1       2.464  -7.866  -1.671  0.00  0.00    +0.003 A 
ATOM     31  C   UNL     1       3.117  -8.227  -2.835  0.00  0.00    +0.023 A 
ATOM     32  C   UNL     1       3.361  -7.281  -3.823  0.00  0.00    +0.030 A 
ATOM     33  C   UNL     1       2.944  -5.970  -3.646  0.00  0.00    +0.036 A 
BRANCH  32  34
ATOM     34  N   UNL     1       4.021  -7.651  -4.997  0.00  0.00    -0.336 N 
ATOM     35  C   UNL     1       4.366  -9.055  -5.232  0.00  0.00    +0.129 C 
ATOM     36  C   UNL     1       4.370  -6.635  -5.993  0.00  0.00    +0.129 C 
ENDBRANCH  32  34
ENDBRANCH  25  28
ENDBRANCH   5  24
TORSDOF 6
