REMARK  Name = CHEMBL304523
REMARK  4 active torsions:
REMARK  status: ('A' for Active; 'I' for Inactive)
REMARK    1  A    between atoms: C_6  and  C_7
REMARK    2  A    between atoms: C_8  and  C_23
REMARK    3  A    between atoms: C_10  and  C_13
REMARK    4  A    between atoms: C_15  and  N_21
REMARK                            x       y       z     vdW  Elec       q    Type
REMARK                         _______ _______ _______ _____ _____    ______ ____
ROOT
ATOM      1  C   UNL     1      -1.294  -0.718   0.076  0.00  0.00    +0.055 A 
ATOM      2  C   UNL     1      -1.519  -1.920   0.732  0.00  0.00    +0.008 A 
ATOM      3  C   UNL     1      -2.816  -2.347   0.380  0.00  0.00    +0.037 A 
ATOM      4  C   UNL     1      -3.341  -1.417  -0.464  0.00  0.00    +0.053 A 
ATOM      5  N   UNL     1      -2.416  -0.418  -0.647  0.00  0.00    -0.354 N 
ATOM      6  H   UNL     1      -2.538   0.369  -1.200  0.00  0.00    +0.166 HD
ENDROOT
BRANCH   4   7
ATOM      7  C   UNL     1      -4.684  -1.470  -1.077  0.00  0.00    +0.075 A 
ATOM      8  C   UNL     1      -5.503  -0.334  -1.111  0.00  0.00    +0.175 A 
ATOM      9  C   UNL     1      -6.758  -0.425  -1.696  0.00  0.00    +0.155 A 
ATOM     10  N   UNL     1      -7.184  -1.567  -2.217  0.00  0.00    -0.212 NA
ATOM     11  C   UNL     1      -6.439  -2.664  -2.205  0.00  0.00    +0.155 A 
ATOM     12  C   UNL     1      -5.169  -2.655  -1.643  0.00  0.00    +0.175 A 
ATOM     13  F   UNL     1      -4.414  -3.775  -1.640  0.00  0.00    -0.201 F 
ATOM     14  N   UNL     1      -6.934  -3.838  -2.767  0.00  0.00    -0.341 N 
ATOM     15  F   UNL     1      -5.078   0.834  -0.581  0.00  0.00    -0.201 F 
ATOM     16  H   UNL     1      -7.819  -3.850  -3.163  0.00  0.00    +0.144 HD
ATOM     17  H   UNL     1      -6.394  -4.644  -2.761  0.00  0.00    +0.144 HD
BRANCH   9  18
ATOM     18  N   UNL     1      -7.582   0.698  -1.736  0.00  0.00    -0.341 N 
ATOM     19  H   UNL     1      -7.278   1.536  -1.355  0.00  0.00    +0.144 HD
ATOM     20  H   UNL     1      -8.461   0.640  -2.143  0.00  0.00    +0.144 HD
ENDBRANCH   9  18
ENDBRANCH   4   7
BRANCH   1  26
ATOM     21  C   UNL     1       1.186  -0.506  -0.005  0.00  0.00    +0.013 A 
ATOM     22  C   UNL     1       2.330   0.260   0.065  0.00  0.00    +0.039 A 
ATOM     23  C   UNL     1       2.241   1.625   0.290  0.00  0.00    +0.123 A 
ATOM     24  C   UNL     1       1.003   2.228   0.446  0.00  0.00    +0.039 A 
ATOM     25  C   UNL     1      -0.148   1.472   0.378  0.00  0.00    +0.013 A 
ATOM     26  C   UNL     1      -0.065   0.097   0.151  0.00  0.00    -0.001 A 
ATOM     27  F   UNL     1       3.366   2.370   0.359  0.00  0.00    -0.205 F 
ENDBRANCH   1  26
BRANCH   2  28
ATOM     28  C   UNL     1      -0.575  -2.622   1.632  0.00  0.00    -0.013 A 
ATOM     29  C   UNL     1      -0.038  -1.980   2.753  0.00  0.00    +0.028 A 
ATOM     30  C   UNL     1       0.837  -2.671   3.564  0.00  0.00    +0.111 A 
ATOM     31  N   UNL     1       1.170  -3.919   3.293  0.00  0.00    -0.263 NA
ATOM     32  C   UNL     1       0.687  -4.561   2.246  0.00  0.00    +0.111 A 
ATOM     33  C   UNL     1      -0.199  -3.947   1.387  0.00  0.00    +0.028 A 
ENDBRANCH   2  28
TORSDOF 4
