REMARK  Name = CHEMBL569551
REMARK  9 active torsions:
REMARK  status: ('A' for Active; 'I' for Inactive)
REMARK    1  A    between atoms: C_1  and  C_2
REMARK    2  A    between atoms: C_2  and  C_3
REMARK    3  A    between atoms: C_3  and  C_4
REMARK    4  A    between atoms: C_3  and  N_5
REMARK    5  A    between atoms: C_8  and  C_12
REMARK    6  A    between atoms: C_13  and  C_20
REMARK    7  A    between atoms: C_16  and  C_17
REMARK    8  A    between atoms: C_17  and  C_18
REMARK    9  A    between atoms: C_17  and  C_19
REMARK                            x       y       z     vdW  Elec       q    Type
REMARK                         _______ _______ _______ _____ _____    ______ ____
ROOT
ATOM      1  C   UNL     1       2.341  -0.267  -6.107  0.00  0.00    +0.052 A 
ATOM      2  C   UNL     1       1.828  -1.546  -6.613  0.00  0.00    +0.121 A 
ATOM      3  N   UNL     1       1.365  -1.323  -7.819  0.00  0.00    -0.077 NA
ATOM      4  O   UNL     1       1.552   0.045  -8.123  0.00  0.00    -0.358 OA
ATOM      5  C   UNL     1       2.132   0.656  -7.082  0.00  0.00    +0.148 A 
ENDROOT
BRANCH   1   9
ATOM      6  N   UNL     1       2.125  -0.091  -1.209  0.00  0.00    -0.326 N 
ATOM      7  C   UNL     1       2.846   0.056  -2.389  0.00  0.00    +0.119 A 
ATOM      8  C   UNL     1       2.224  -0.179  -3.608  0.00  0.00    +0.052 A 
ATOM      9  C   UNL     1       2.962  -0.027  -4.783  0.00  0.00    -0.008 A 
ATOM     10  C   UNL     1       4.304   0.358  -4.678  0.00  0.00    +0.028 A 
ATOM     11  C   UNL     1       4.846   0.572  -3.429  0.00  0.00    +0.113 A 
ATOM     12  N   UNL     1       4.118   0.424  -2.338  0.00  0.00    -0.240 NA
ATOM     13  H   UNL     1       2.553   0.075  -0.355  0.00  0.00    +0.148 HD
BRANCH   6  14
ATOM     14  C   UNL     1       0.718  -0.497  -1.257  0.00  0.00    +0.068 C 
ATOM     15  C   UNL     1       0.630  -2.023  -1.329  0.00  0.00    +0.028 C 
BRANCH  14  17
ATOM     16  C   UNL     1      -0.019   1.526   0.010  0.00  0.00    +0.005 C 
ATOM     17  C   UNL     1       0.002  -0.004   0.002  0.00  0.00    +0.018 C 
ENDBRANCH  14  17
ENDBRANCH   6  14
ENDBRANCH   1   9
BRANCH   2  18
ATOM     18  C   UNL     1       1.832  -2.845  -5.896  0.00  0.00    +0.004 A 
ATOM     19  C   UNL     1       2.886  -3.168  -5.043  0.00  0.00    +0.013 A 
ATOM     20  C   UNL     1       2.886  -4.377  -4.378  0.00  0.00    +0.039 A 
ATOM     21  C   UNL     1       1.841  -5.269  -4.558  0.00  0.00    +0.123 A 
ATOM     22  C   UNL     1       0.792  -4.952  -5.406  0.00  0.00    +0.039 A 
ATOM     23  C   UNL     1       0.781  -3.743  -6.070  0.00  0.00    +0.013 A 
ATOM     24  F   UNL     1       1.846  -6.452  -3.905  0.00  0.00    -0.205 F 
ENDBRANCH   2  18
BRANCH   5  25
ATOM     25  C   UNL     1       2.495   2.117  -7.005  0.00  0.00    +0.052 C 
ATOM     26  C   UNL     1       3.480   2.457  -8.126  0.00  0.00    +0.015 C 
ATOM     27  C   UNL     1       1.231   2.965  -7.163  0.00  0.00    +0.015 C 
ENDBRANCH   5  25
TORSDOF 5
