REMARK  Name = CHEMBL333823
REMARK  2 active torsions:
REMARK  status: ('A' for Active; 'I' for Inactive)
REMARK    1  A    between atoms: C_3  and  C_8
REMARK    2  A    between atoms: C_9  and  C_19
REMARK                            x       y       z     vdW  Elec       q    Type
REMARK                         _______ _______ _______ _____ _____    ______ ____
ROOT
ATOM      1  C   UNL     1       3.622   2.228  -0.112  0.00  0.00    +0.056 A 
ATOM      2  C   UNL     1       4.774   1.835  -0.761  0.00  0.00    +0.017 A 
ATOM      3  C   UNL     1       5.820   2.786  -0.359  0.00  0.00    +0.027 A 
ATOM      4  C   UNL     1       7.176   2.921  -0.669  0.00  0.00    +0.015 A 
ATOM      5  C   UNL     1       7.873   3.954  -0.098  0.00  0.00    +0.044 A 
ATOM      6  C   UNL     1       7.215   4.829   0.766  0.00  0.00    +0.118 A 
ATOM      7  N   UNL     1       5.931   4.684   1.047  0.00  0.00    -0.215 NA
ATOM      8  C   UNL     1       5.212   3.700   0.518  0.00  0.00    +0.141 A 
ATOM      9  N   UNL     1       3.889   3.343   0.645  0.00  0.00    -0.339 N 
ATOM     10  H   UNL     1       3.239   3.811   1.192  0.00  0.00    +0.167 HD
ATOM     11  N   UNL     1       7.923   5.875   1.344  0.00  0.00    -0.343 N 
ATOM     12  H   UNL     1       8.866   5.991   1.145  0.00  0.00    +0.144 HD
ATOM     13  H   UNL     1       7.476   6.490   1.946  0.00  0.00    +0.144 HD
ENDROOT
BRANCH   1  16
ATOM     14  C   UNL     1       0.341   0.661   0.826  0.00  0.00    +0.002 A 
ATOM     15  C   UNL     1       1.567   1.284   0.932  0.00  0.00    +0.010 A 
ATOM     16  C   UNL     1       2.309   1.561  -0.219  0.00  0.00    +0.000 A 
ATOM     17  C   UNL     1       1.803   1.205  -1.471  0.00  0.00    +0.030 A 
ATOM     18  C   UNL     1       0.575   0.582  -1.563  0.00  0.00    +0.042 A 
ATOM     19  C   UNL     1      -0.155   0.310  -0.417  0.00  0.00    +0.020 A 
ATOM     20 CL   UNL     1      -0.057   0.137  -3.117  0.00  0.00    -0.084 Cl
ENDBRANCH   1  16
BRANCH   2  21
ATOM     21  C   UNL     1       4.926   0.685  -1.678  0.00  0.00    -0.012 A 
ATOM     22  C   UNL     1       4.784  -0.629  -1.214  0.00  0.00    +0.028 A 
ATOM     23  C   UNL     1       4.935  -1.671  -2.104  0.00  0.00    +0.111 A 
ATOM     24  N   UNL     1       5.209  -1.444  -3.375  0.00  0.00    -0.263 NA
ATOM     25  C   UNL     1       5.351  -0.222  -3.853  0.00  0.00    +0.111 A 
ATOM     26  C   UNL     1       5.211   0.879  -3.035  0.00  0.00    +0.028 A 
ENDBRANCH   2  21
TORSDOF 2
