REMARK  Name = CHEMBL514201
REMARK  10 active torsions:
REMARK  status: ('A' for Active; 'I' for Inactive)
REMARK    1  A    between atoms: C_1  and  C_2
REMARK    2  A    between atoms: N_5  and  C_31
REMARK    3  A    between atoms: C_6  and  C_30
REMARK    4  A    between atoms: C_10  and  C_12
REMARK    5  A    between atoms: N_19  and  C_29
REMARK    6  A    between atoms: C_21  and  C_22
REMARK    7  A    between atoms: C_22  and  C_24
REMARK    8  A    between atoms: N_26  and  C_27
REMARK    9  A    between atoms: N_26  and  C_28
REMARK   10  A    between atoms: C_31  and  C_32
REMARK                            x       y       z     vdW  Elec       q    Type
REMARK                         _______ _______ _______ _____ _____    ______ ____
ROOT
ATOM      1  C   UNL     1       3.051   1.982  -1.039  0.00  0.00    +0.026 C 
ATOM      2  C   UNL     1       2.030   0.850  -0.899  0.00  0.00    +0.057 C 
ATOM      3  C   UNL     1       0.631   1.375  -1.237  0.00  0.00    -0.055 C 
ATOM      4  N   UNL     1       0.232   2.378  -0.242  0.00  0.00    +0.386 N 
ATOM      5  C   UNL     1       0.110   1.750   1.080  0.00  0.00    -0.054 C 
ATOM      6  C   UNL     1       1.484   1.245   1.532  0.00  0.00    +0.093 C 
ATOM      7  N   UNL     1       2.026   0.357   0.486  0.00  0.00    -0.298 N 
ATOM      8  C   UNL     1       2.499  -0.869   0.787  0.00  0.00    +0.248 C 
ATOM      9  O   UNL     1       2.820  -1.632  -0.103  0.00  0.00    -0.270 OA
ATOM     10  C   UNL     1      -0.865   0.575   0.998  0.00  0.00    -0.012 C 
ATOM     11  H   UNL     1       0.928   3.107  -0.204  0.00  0.00    -0.081 HD
ENDROOT
BRANCH   8  12
ATOM     12  C   UNL     1       2.627  -1.285   2.197  0.00  0.00    +0.056 A 
ATOM     13  C   UNL     1       3.065  -0.374   3.157  0.00  0.00    +0.025 A 
ATOM     14  C   UNL     1       3.182  -0.775   4.480  0.00  0.00    +0.012 A 
ATOM     15  C   UNL     1       2.861  -2.092   4.854  0.00  0.00    +0.051 A 
ATOM     16  C   UNL     1       2.424  -2.994   3.886  0.00  0.00    +0.047 A 
ATOM     17  C   UNL     1       2.303  -2.595   2.575  0.00  0.00    +0.055 A 
ATOM     18 CL   UNL     1       1.751  -3.725   1.378  0.00  0.00    -0.083 Cl
ATOM     19  N   UNL     1       3.068  -2.204   6.212  0.00  0.00    -0.349 N 
ATOM     20  C   UNL     1       3.502  -1.038   6.727  0.00  0.00    +0.098 A 
ATOM     21  C   UNL     1       3.602  -0.095   5.722  0.00  0.00    +0.052 A 
ATOM     22  C   UNL     1       2.846  -3.425   6.989  0.00  0.00    +0.149 C 
BRANCH  21  23
ATOM     23  C   UNL     1       4.035   1.294   5.860  0.00  0.00    +0.249 C 
ATOM     24  O   UNL     1       4.076   2.018   4.884  0.00  0.00    -0.282 OA
BRANCH  23  25
ATOM     25  C   UNL     1       4.428   1.823   7.198  0.00  0.00    +0.287 C 
ATOM     26  O   UNL     1       5.011   1.108   7.987  0.00  0.00    -0.266 OA
ATOM     27  N   UNL     1       4.134   3.096   7.532  0.00  0.00    -0.301 N 
ATOM     28  C   UNL     1       4.525   3.618   8.844  0.00  0.00    +0.132 C 
ATOM     29  C   UNL     1       3.424   3.957   6.583  0.00  0.00    +0.132 C 
ENDBRANCH  23  25
ENDBRANCH  21  23
ENDBRANCH   8  12
BRANCH   4  30
ATOM     30  C   UNL     1      -1.061   2.959  -0.627  0.00  0.00    -0.042 C 
BRANCH  30  31
ATOM     31  C   UNL     1      -0.906   3.719  -1.920  0.00  0.00    -0.064 A 
ATOM     32  C   UNL     1      -0.565   5.058  -1.897  0.00  0.00    +0.004 A 
ATOM     33  C   UNL     1      -0.422   5.755  -3.082  0.00  0.00    +0.038 A 
ATOM     34  C   UNL     1      -0.620   5.111  -4.292  0.00  0.00    +0.123 A 
ATOM     35  C   UNL     1      -0.961   3.769  -4.313  0.00  0.00    +0.038 A 
ATOM     36  C   UNL     1      -1.098   3.073  -3.127  0.00  0.00    +0.004 A 
ATOM     37  F   UNL     1      -0.480   5.792  -5.450  0.00  0.00    -0.205 F 
ENDBRANCH  30  31
ENDBRANCH   4  30
TORSDOF 5
