REMARK  Name = CHEMBL497977
REMARK  9 active torsions:
REMARK  status: ('A' for Active; 'I' for Inactive)
REMARK    1  A    between atoms: C_1  and  C_2
REMARK    2  A    between atoms: C_2  and  C_3
REMARK    3  A    between atoms: C_3  and  C_4
REMARK    4  A    between atoms: C_4  and  N_5
REMARK    5  A    between atoms: C_11  and  C_18
REMARK    6  A    between atoms: C_20  and  C_25
REMARK    7  A    between atoms: C_23  and  C_24
REMARK    8  A    between atoms: N_27  and  C_28
REMARK    9  A    between atoms: C_32  and  N_34
REMARK                            x       y       z     vdW  Elec       q    Type
REMARK                         _______ _______ _______ _____ _____    ______ ____
ROOT
ATOM      1  C   UNL     1      -8.767  -4.831   0.996  0.00  0.00    -0.014 A 
ATOM      2  C   UNL     1      -9.716  -4.184   0.211  0.00  0.00    +0.021 A 
ATOM      3  C   UNL     1     -11.022  -4.670   0.166  0.00  0.00    +0.038 A 
ATOM      4  C   UNL     1     -11.368  -5.801   0.908  0.00  0.00    +0.013 A 
ATOM      5  C   UNL     1     -10.421  -6.438   1.684  0.00  0.00    +0.005 A 
ATOM      6  C   UNL     1      -9.124  -5.963   1.728  0.00  0.00    -0.043 A 
ATOM      7  C   UNL     1      -8.094  -6.667   2.573  0.00  0.00    +0.044 C 
ENDROOT
BRANCH   1  14
ATOM      8  N   UNL     1      -2.787  -2.613   0.017  0.00  0.00    -0.261 N 
ATOM      9  C   UNL     1      -3.397  -2.862   1.196  0.00  0.00    +0.264 A 
ATOM     10  O   UNL     1      -2.819  -2.672   2.249  0.00  0.00    -0.267 OA
ATOM     11  C   UNL     1      -4.779  -3.370   1.174  0.00  0.00    +0.063 A 
ATOM     12  C   UNL     1      -5.474  -3.650   2.350  0.00  0.00    +0.016 A 
ATOM     13  C   UNL     1      -6.756  -4.119   2.286  0.00  0.00    +0.009 A 
ATOM     14  C   UNL     1      -7.375  -4.321   1.050  0.00  0.00    -0.016 A 
ATOM     15  C   UNL     1      -6.693  -4.045  -0.133  0.00  0.00    +0.035 A 
ATOM     16  C   UNL     1      -5.394  -3.569  -0.076  0.00  0.00    +0.056 A 
ATOM     17  N   UNL     1      -4.676  -3.280  -1.228  0.00  0.00    -0.307 N 
ATOM     18  H   UNL     1      -5.087  -3.412  -2.096  0.00  0.00    +0.170 HD
ATOM     19  C   UNL     1      -3.418  -2.813  -1.151  0.00  0.00    +0.330 A 
ATOM     20  O   UNL     1      -2.824  -2.567  -2.183  0.00  0.00    -0.246 OA
BRANCH   8  21
ATOM     21  C   UNL     1      -1.412  -2.107   0.013  0.00  0.00    +0.130 C 
BRANCH  21  22
ATOM     22  C   UNL     1      -1.431  -0.578   0.047  0.00  0.00    +0.022 C 
BRANCH  22  24
ATOM     23  C   UNL     1      -0.013   1.480   0.077  0.00  0.00    +0.004 C 
ATOM     24  C   UNL     1       0.005  -0.050   0.043  0.00  0.00    -0.002 C 
ENDBRANCH  22  24
ENDBRANCH  21  22
ENDBRANCH   8  21
ENDBRANCH   1  14
BRANCH   3  25
ATOM     25  C   UNL     1     -12.037  -3.988  -0.665  0.00  0.00    +0.248 C 
ATOM     26  O   UNL     1     -11.734  -3.003  -1.309  0.00  0.00    -0.270 OA
ATOM     27  N   UNL     1     -13.299  -4.460  -0.707  0.00  0.00    -0.281 N 
ATOM     28  H   UNL     1     -13.526  -5.282  -0.246  0.00  0.00    +0.155 HD
BRANCH  27  29
ATOM     29  C   UNL     1     -14.282  -3.763  -1.417  0.00  0.00    +0.035 A 
ATOM     30  C   UNL     1     -13.953  -3.102  -2.595  0.00  0.00    +0.023 A 
ATOM     31  C   UNL     1     -14.924  -2.414  -3.297  0.00  0.00    +0.004 A 
ATOM     32  C   UNL     1     -16.224  -2.379  -2.831  0.00  0.00    +0.023 A 
ATOM     33  C   UNL     1     -16.560  -3.037  -1.654  0.00  0.00    +0.032 A 
ATOM     34  C   UNL     1     -15.588  -3.734  -0.950  0.00  0.00    +0.046 A 
BRANCH  33  35
ATOM     35  N   UNL     1     -17.874  -3.001  -1.184  0.00  0.00    -0.325 N 
ATOM     36  C   UNL     1     -18.228  -3.583   0.121  0.00  0.00    +0.133 C 
ATOM     37  C   UNL     1     -19.020  -2.539   0.917  0.00  0.00    +0.178 C 
ATOM     38  O   UNL     1     -20.107  -2.064   0.118  0.00  0.00    -0.377 OA
ATOM     39  C   UNL     1     -19.704  -1.395  -1.079  0.00  0.00    +0.178 C 
ATOM     40  C   UNL     1     -18.945  -2.375  -1.975  0.00  0.00    +0.133 C 
ENDBRANCH  33  35
ENDBRANCH  27  29
ENDBRANCH   3  25
TORSDOF 7
