REMARK  Name = CHEMBL90169
REMARK  7 active torsions:
REMARK  status: ('A' for Active; 'I' for Inactive)
REMARK    1  A    between atoms: C_4  and  C_7
REMARK    2  A    between atoms: C_8  and  C_30
REMARK    3  A    between atoms: C_10  and  C_13
REMARK    4  A    between atoms: C_16  and  C_19
REMARK    5  A    between atoms: N_21  and  C_22
REMARK    6  A    between atoms: C_22  and  C_23
REMARK    7  A    between atoms: C_23  and  N_24
REMARK                            x       y       z     vdW  Elec       q    Type
REMARK                         _______ _______ _______ _____ _____    ______ ____
ROOT
ATOM      1  C   UNL     1       7.132  -1.293   1.043  0.00  0.00    -0.002 A 
ATOM      2  C   UNL     1       7.517  -0.268   1.913  0.00  0.00    +0.011 A 
ATOM      3  C   UNL     1       8.759  -0.284   2.480  0.00  0.00    +0.014 A 
ATOM      4  C   UNL     1       9.647  -1.325   2.190  0.00  0.00    +0.037 A 
ATOM      5  C   UNL     1       9.262  -2.350   1.320  0.00  0.00    +0.014 A 
ATOM      6  C   UNL     1       8.017  -2.337   0.758  0.00  0.00    +0.011 A 
ENDROOT
BRANCH   1  10
ATOM      7  C   UNL     1       3.722  -0.636  -0.103  0.00  0.00    +0.055 A 
ATOM      8  C   UNL     1       3.986  -1.824  -0.772  0.00  0.00    +0.008 A 
ATOM      9  C   UNL     1       5.294  -2.214  -0.425  0.00  0.00    +0.036 A 
ATOM     10  C   UNL     1       5.790  -1.276   0.431  0.00  0.00    +0.048 A 
ATOM     11  N   UNL     1       4.834  -0.309   0.624  0.00  0.00    -0.354 N 
ATOM     12  H   UNL     1       4.930   0.476   1.185  0.00  0.00    +0.166 HD
BRANCH   7  16
ATOM     13  C   UNL     1       0.114   1.593  -0.291  0.00  0.00    +0.000 A 
ATOM     14  C   UNL     1       0.069   0.226  -0.082  0.00  0.00    +0.001 A 
ATOM     15  C   UNL     1       1.237  -0.505  -0.019  0.00  0.00    +0.010 A 
ATOM     16  C   UNL     1       2.468   0.139  -0.169  0.00  0.00    -0.001 A 
ATOM     17  C   UNL     1       2.506   1.519  -0.380  0.00  0.00    +0.010 A 
ATOM     18  C   UNL     1       1.330   2.237  -0.440  0.00  0.00    +0.001 A 
ENDBRANCH   7  16
BRANCH   8  19
ATOM     19  C   UNL     1       3.064  -2.546  -1.680  0.00  0.00    -0.013 A 
ATOM     20  C   UNL     1       2.508  -1.908  -2.794  0.00  0.00    +0.028 A 
ATOM     21  C   UNL     1       1.655  -2.617  -3.614  0.00  0.00    +0.111 A 
ATOM     22  N   UNL     1       1.362  -3.878  -3.358  0.00  0.00    -0.263 NA
ATOM     23  C   UNL     1       1.865  -4.517  -2.318  0.00  0.00    +0.111 A 
ATOM     24  C   UNL     1       2.731  -3.885  -1.450  0.00  0.00    +0.028 A 
ENDBRANCH   8  19
ENDBRANCH   1  10
BRANCH   4  25
ATOM     25  C   UNL     1      10.989  -1.342   2.803  0.00  0.00    +0.244 C 
ATOM     26  O   UNL     1      11.324  -0.451   3.559  0.00  0.00    -0.270 OA
ATOM     27  N   UNL     1      11.844  -2.346   2.523  0.00  0.00    -0.313 N 
ATOM     28  H   UNL     1      11.577  -3.057   1.920  0.00  0.00    +0.149 HD
BRANCH  27  29
ATOM     29  C   UNL     1      13.177  -2.363   3.131  0.00  0.00    +0.086 C 
BRANCH  29  30
ATOM     30  C   UNL     1      13.940  -3.599   2.653  0.00  0.00    -0.060 C 
BRANCH  30  31
ATOM     31  N   UNL     1      15.277  -3.616   3.262  0.00  0.00    +0.381 N 
ATOM     32  C   UNL     1      16.047  -2.463   2.781  0.00  0.00    -0.079 C 
ATOM     33  C   UNL     1      17.411  -2.431   3.474  0.00  0.00    -0.019 C 
ATOM     34  C   UNL     1      18.170  -3.723   3.157  0.00  0.00    -0.004 C 
ATOM     35  C   UNL     1      17.324  -4.921   3.596  0.00  0.00    -0.019 C 
ATOM     36  C   UNL     1      15.963  -4.862   2.898  0.00  0.00    -0.079 C 
ATOM     37  H   UNL     1      15.188  -3.564   4.266  0.00  0.00    -0.082 HD
ENDBRANCH  30  31
ENDBRANCH  29  30
ENDBRANCH  27  29
ENDBRANCH   4  25
TORSDOF 7
