REMARK  Name = CHEMBL172286
REMARK  8 active torsions:
REMARK  status: ('A' for Active; 'I' for Inactive)
REMARK    1  A    between atoms: C_1  and  C_2
REMARK    2  A    between atoms: C_2  and  N_3
REMARK    3  A    between atoms: C_7  and  C_15
REMARK    4  A    between atoms: N_10  and  C_13
REMARK    5  A    between atoms: C_13  and  C_14
REMARK    6  A    between atoms: C_16  and  C_27
REMARK    7  A    between atoms: C_18  and  C_21
REMARK    8  A    between atoms: C_31  and  C_33
REMARK                            x       y       z     vdW  Elec       q    Type
REMARK                         _______ _______ _______ _____ _____    ______ ____
ROOT
ATOM      1  C   UNL     1      -0.843  -1.794  -6.449  0.00  0.00    +0.097 A 
ATOM      2  C   UNL     1      -2.007  -2.406  -6.882  0.00  0.00    +0.074 A 
ATOM      3  N   UNL     1      -1.885  -2.554  -8.245  0.00  0.00    -0.337 N 
ATOM      4  C   UNL     1      -0.672  -2.038  -8.599  0.00  0.00    +0.141 A 
ATOM      5  N   UNL     1      -0.067  -1.585  -7.525  0.00  0.00    -0.227 NA
ATOM      6  H   UNL     1      -2.538  -2.951  -8.842  0.00  0.00    +0.167 HD
ENDROOT
BRANCH   1  11
ATOM      7  N   UNL     1       0.688  -0.476  -1.203  0.00  0.00    -0.292 N 
ATOM      8  C   UNL     1       0.086  -0.744  -2.431  0.00  0.00    +0.070 A 
ATOM      9  C   UNL     1      -1.223  -0.666  -2.884  0.00  0.00    +0.028 A 
ATOM     10  C   UNL     1      -1.525  -1.005  -4.185  0.00  0.00    +0.012 A 
ATOM     11  C   UNL     1      -0.515  -1.429  -5.051  0.00  0.00    +0.005 A 
ATOM     12  C   UNL     1       0.801  -1.510  -4.601  0.00  0.00    +0.038 A 
ATOM     13  C   UNL     1       1.101  -1.168  -3.293  0.00  0.00    +0.070 A 
ATOM     14  N   UNL     1       2.287  -1.144  -2.561  0.00  0.00    -0.292 N 
ATOM     15  C   UNL     1       2.007  -0.720  -1.315  0.00  0.00    +0.330 A 
ATOM     16  O   UNL     1       2.823  -0.582  -0.422  0.00  0.00    -0.246 OA
BRANCH   7  18
ATOM     17  C   UNL     1      -0.019   1.526   0.010  0.00  0.00    +0.027 C 
ATOM     18  C   UNL     1       0.002  -0.004   0.002  0.00  0.00    +0.123 C 
ENDBRANCH   7  18
BRANCH  14  19
ATOM     19  C   UNL     1       3.613  -1.512  -3.065  0.00  0.00    +0.123 C 
ATOM     20  C   UNL     1       4.298  -0.274  -3.648  0.00  0.00    +0.027 C 
ENDBRANCH  14  19
ENDBRANCH   1  11
BRANCH   2  21
ATOM     21  C   UNL     1      -3.152  -2.819  -6.047  0.00  0.00    +0.001 A 
ATOM     22  C   UNL     1      -2.934  -3.483  -4.837  0.00  0.00    +0.010 A 
ATOM     23  C   UNL     1      -4.009  -3.866  -4.062  0.00  0.00    +0.001 A 
ATOM     24  C   UNL     1      -5.300  -3.593  -4.479  0.00  0.00    +0.003 A 
ATOM     25  C   UNL     1      -5.522  -2.936  -5.676  0.00  0.00    -0.050 A 
ATOM     26  C   UNL     1      -4.457  -2.543  -6.460  0.00  0.00    +0.013 A 
ATOM     27  C   UNL     1      -6.932  -2.643  -6.122  0.00  0.00    +0.044 C 
ENDBRANCH   2  21
BRANCH   4  28
ATOM     28  C   UNL     1      -0.129  -1.990  -9.973  0.00  0.00    +0.035 A 
ATOM     29  C   UNL     1       1.135  -1.440 -10.221  0.00  0.00    +0.014 A 
ATOM     30  C   UNL     1       1.597  -1.419 -11.524  0.00  0.00    +0.020 A 
ATOM     31  C   UNL     1       0.803  -1.938 -12.533  0.00  0.00    +0.111 A 
ATOM     32  N   UNL     1      -0.384  -2.449 -12.270  0.00  0.00    -0.263 NA
ATOM     33  C   UNL     1      -0.865  -2.497 -11.045  0.00  0.00    +0.122 A 
ENDBRANCH   4  28
TORSDOF 5
