REMARK  Name = CHEMBL371756
REMARK  7 active torsions:
REMARK  status: ('A' for Active; 'I' for Inactive)
REMARK    1  A    between atoms: C_1  and  O_2
REMARK    2  A    between atoms: O_2  and  C_3
REMARK    3  A    between atoms: C_6  and  C_28
REMARK    4  A    between atoms: C_8  and  C_9
REMARK    5  A    between atoms: C_13  and  N_19
REMARK    6  A    between atoms: N_19  and  C_20
REMARK    7  A    between atoms: N_30  and  C_31
REMARK                            x       y       z     vdW  Elec       q    Type
REMARK                         _______ _______ _______ _____ _____    ______ ____
ROOT
ATOM      1  C   UNL     1      -0.476  -3.568   0.733  0.00  0.00    +0.105 A 
ATOM      2  C   UNL     1      -0.100  -4.591  -0.247  0.00  0.00    +0.046 A 
ATOM      3  C   UNL     1      -0.767  -5.216  -1.307  0.00  0.00    +0.017 A 
ATOM      4  C   UNL     1      -0.090  -6.155  -2.037  0.00  0.00    +0.044 A 
ATOM      5  C   UNL     1       1.232  -6.460  -1.708  0.00  0.00    +0.125 A 
ATOM      6  N   UNL     1       1.847  -5.861  -0.704  0.00  0.00    -0.213 NA
ATOM      7  C   UNL     1       1.233  -4.942   0.034  0.00  0.00    +0.158 A 
ATOM      8  N   UNL     1       1.624  -4.183   1.105  0.00  0.00    -0.260 N 
ATOM      9  N   UNL     1       0.567  -3.358   1.500  0.00  0.00    -0.171 NA
ATOM     10  H   UNL     1       2.499  -4.211   1.522  0.00  0.00    +0.191 HD
ENDROOT
BRANCH   1  16
ATOM     11  C   UNL     1      -1.855  -1.500   0.980  0.00  0.00    +0.129 A 
ATOM     12  C   UNL     1      -3.086  -0.867   1.069  0.00  0.00    +0.047 A 
ATOM     13  C   UNL     1      -4.250  -1.603   1.020  0.00  0.00    +0.016 A 
ATOM     14  C   UNL     1      -4.197  -2.993   0.879  0.00  0.00    +0.038 A 
ATOM     15  C   UNL     1      -2.963  -3.637   0.789  0.00  0.00    +0.026 A 
ATOM     16  C   UNL     1      -1.790  -2.892   0.834  0.00  0.00    +0.045 A 
BRANCH  14  17
ATOM     17  C   UNL     1      -5.446  -3.778   0.827  0.00  0.00    +0.244 C 
ATOM     18  O   UNL     1      -5.399  -4.987   0.705  0.00  0.00    -0.270 OA
ATOM     19  N   UNL     1      -6.638  -3.155   0.915  0.00  0.00    -0.308 N 
ATOM     20  H   UNL     1      -6.675  -2.191   1.012  0.00  0.00    +0.149 HD
BRANCH  19  21
ATOM     21  C   UNL     1      -7.877  -3.935   0.863  0.00  0.00    +0.073 C 
ATOM     22  C   UNL     1      -8.325  -4.118  -0.602  0.00  0.00    +0.022 C 
ATOM     23  C   UNL     1      -9.870  -4.025  -0.540  0.00  0.00    +0.002 C 
ATOM     24  C   UNL     1     -10.104  -2.922   0.522  0.00  0.00    +0.002 C 
ATOM     25  C   UNL     1      -9.008  -3.175   1.577  0.00  0.00    +0.022 C 
ENDBRANCH  19  21
ENDBRANCH  14  17
BRANCH  11  27
ATOM     26  C   UNL     1      -0.851   0.644   1.179  0.00  0.00    +0.277 C 
ATOM     27  O   UNL     1      -0.712  -0.770   1.029  0.00  0.00    -0.494 OA
ENDBRANCH  11  27
ENDBRANCH   1  16
BRANCH   5  28
ATOM     28  N   UNL     1       1.915  -7.414  -2.452  0.00  0.00    -0.297 N 
ATOM     29  H   UNL     1       1.508  -7.792  -3.247  0.00  0.00    +0.154 HD
BRANCH  28  30
ATOM     30  C   UNL     1       3.191  -7.832  -2.053  0.00  0.00    +0.068 A 
ATOM     31  C   UNL     1       3.596  -7.665  -0.736  0.00  0.00    +0.029 A 
ATOM     32  C   UNL     1       4.855  -8.078  -0.344  0.00  0.00    +0.040 A 
ATOM     33  C   UNL     1       5.713  -8.658  -1.263  0.00  0.00    +0.126 A 
ATOM     34  C   UNL     1       5.312  -8.825  -2.578  0.00  0.00    +0.078 A 
ATOM     35  C   UNL     1       4.051  -8.419  -2.974  0.00  0.00    +0.147 A 
ATOM     36  F   UNL     1       3.658  -8.588  -4.255  0.00  0.00    -0.203 F 
ATOM     37  F   UNL     1       6.944  -9.059  -0.877  0.00  0.00    -0.205 F 
ENDBRANCH  28  30
ENDBRANCH   5  28
TORSDOF 6
