REMARK  Name = CHEMBL605978
REMARK  9 active torsions:
REMARK  status: ('A' for Active; 'I' for Inactive)
REMARK    1  A    between atoms: C_1  and  N_2
REMARK    2  A    between atoms: N_2  and  C_3
REMARK    3  A    between atoms: C_4  and  C_6
REMARK    4  A    between atoms: C_6  and  C_8
REMARK    5  A    between atoms: C_15  and  C_20
REMARK    6  A    between atoms: C_16  and  O_18
REMARK    7  A    between atoms: O_18  and  C_19
REMARK    8  A    between atoms: C_25  and  C_28
REMARK    9  A    between atoms: C_28  and  C_29
REMARK                            x       y       z     vdW  Elec       q    Type
REMARK                         _______ _______ _______ _____ _____    ______ ____
ROOT
ATOM      1  C   UNL     1      -2.766  -2.959  -2.263  0.00  0.00    +0.052 A 
ATOM      2  C   UNL     1      -3.960  -2.422  -1.821  0.00  0.00    +0.095 A 
ATOM      3  N   UNL     1      -4.281  -2.955  -0.628  0.00  0.00    -0.360 N 
ATOM      4  H   UNL     1      -5.078  -2.731  -0.121  0.00  0.00    +0.165 HD
ATOM      5  C   UNL     1      -3.326  -3.862  -0.223  0.00  0.00    +0.051 A 
ATOM      6  C   UNL     1      -2.337  -3.916  -1.222  0.00  0.00    +0.012 A 
ATOM      7  C   UNL     1      -1.244  -4.758  -1.085  0.00  0.00    +0.027 A 
ATOM      8  C   UNL     1      -1.129  -5.559   0.050  0.00  0.00    +0.079 A 
ATOM      9  C   UNL     1      -2.119  -5.507   1.046  0.00  0.00    +0.134 A 
ATOM     10  C   UNL     1      -3.202  -4.660   0.910  0.00  0.00    +0.072 A 
ENDROOT
BRANCH   8  11
ATOM     11  C   UNL     1       0.028  -6.459   0.205  0.00  0.00    +0.250 C 
ATOM     12  O   UNL     1      -0.145  -7.631   0.479  0.00  0.00    -0.270 OA
ATOM     13  N   UNL     1       1.279  -5.982   0.045  0.00  0.00    -0.297 N 
ATOM     14  C   UNL     1       2.435  -6.888   0.072  0.00  0.00    +0.108 C 
ATOM     15  C   UNL     1       3.441  -6.373   1.106  0.00  0.00    +0.023 C 
ATOM     16  C   UNL     1       3.791  -4.917   0.790  0.00  0.00    -0.004 C 
ATOM     17  C   UNL     1       2.528  -4.057   0.874  0.00  0.00    +0.023 C 
ATOM     18  C   UNL     1       1.511  -4.547  -0.168  0.00  0.00    +0.108 C 
BRANCH  16  19
ATOM     19  C   UNL     1       4.821  -4.409   1.800  0.00  0.00    +0.038 C 
BRANCH  19  20
ATOM     20  C   UNL     1       5.258  -3.019   1.417  0.00  0.00    -0.047 A 
ATOM     21  C   UNL     1       6.335  -2.842   0.569  0.00  0.00    +0.006 A 
ATOM     22  C   UNL     1       6.736  -1.567   0.217  0.00  0.00    +0.038 A 
ATOM     23  C   UNL     1       6.058  -0.467   0.713  0.00  0.00    +0.123 A 
ATOM     24  C   UNL     1       4.979  -0.645   1.562  0.00  0.00    +0.038 A 
ATOM     25  C   UNL     1       4.577  -1.921   1.909  0.00  0.00    +0.006 A 
ATOM     26  F   UNL     1       6.449   0.780   0.370  0.00  0.00    -0.205 F 
ENDBRANCH  19  20
ENDBRANCH  16  19
ENDBRANCH   8  11
BRANCH   1  27
ATOM     27  C   UNL     1      -2.070  -2.647  -3.510  0.00  0.00    +0.249 C 
ATOM     28  O   UNL     1      -1.022  -3.203  -3.777  0.00  0.00    -0.282 OA
BRANCH  27  32
ATOM     29  C   UNL     1      -2.574  -0.400  -6.548  0.00  0.00    +0.132 C 
ATOM     30  N   UNL     1      -2.081  -1.460  -5.665  0.00  0.00    -0.301 N 
ATOM     31  C   UNL     1      -0.973  -2.316  -6.096  0.00  0.00    +0.132 C 
ATOM     32  C   UNL     1      -2.647  -1.648  -4.456  0.00  0.00    +0.287 C 
ATOM     33  O   UNL     1      -3.625  -1.004  -4.137  0.00  0.00    -0.266 OA
ENDBRANCH  27  32
ENDBRANCH   1  27
BRANCH   9  34
ATOM     34  O   UNL     1      -2.007  -6.287   2.152  0.00  0.00    -0.494 OA
ATOM     35  C   UNL     1      -3.048  -6.186   3.126  0.00  0.00    +0.277 C 
ENDBRANCH   9  34
TORSDOF 6
