REMARK  Name = CHEMBL101035
REMARK  12 active torsions:
REMARK  status: ('A' for Active; 'I' for Inactive)
REMARK    1  A    between atoms: C_1  and  C_2
REMARK    2  A    between atoms: C_5  and  N_8
REMARK    3  A    between atoms: C_9  and  N_17
REMARK    4  A    between atoms: C_11  and  C_13
REMARK    5  A    between atoms: C_13  and  C_14
REMARK    6  A    between atoms: C_13  and  C_15
REMARK    7  A    between atoms: C_13  and  C_16
REMARK    8  A    between atoms: N_20  and  C_21
REMARK    9  A    between atoms: C_24  and  O_27
REMARK   10  A    between atoms: O_27  and  C_28
REMARK   11  A    between atoms: C_28  and  C_29
REMARK   12  A    between atoms: C_29  and  N_30
REMARK                            x       y       z     vdW  Elec       q    Type
REMARK                         _______ _______ _______ _____ _____    ______ ____
ROOT
ATOM      1  N   UNL     1       1.732  -4.710   1.724  0.00  0.00    -0.254 N 
ATOM      2  C   UNL     1       2.308  -5.587   2.570  0.00  0.00    +0.309 C 
ATOM      3  O   UNL     1       2.266  -6.779   2.332  0.00  0.00    -0.252 OA
ATOM      4  N   UNL     1       2.931  -5.143   3.680  0.00  0.00    -0.269 N 
ATOM      5  H   UNL     1       1.766  -3.760   1.914  0.00  0.00    +0.158 HD
ATOM      6  H   UNL     1       3.026  -4.191   3.834  0.00  0.00    +0.156 HD
ENDROOT
BRANCH   4   7
ATOM      7  C   UNL     1       3.441  -6.059   4.611  0.00  0.00    +0.035 A 
ATOM      8  C   UNL     1       3.986  -7.259   4.177  0.00  0.00    +0.027 A 
ATOM      9  C   UNL     1       4.488  -8.161   5.095  0.00  0.00    +0.047 A 
ATOM     10  C   UNL     1       4.448  -7.867   6.450  0.00  0.00    +0.121 A 
ATOM     11  C   UNL     1       3.903  -6.667   6.884  0.00  0.00    +0.047 A 
ATOM     12  C   UNL     1       3.406  -5.762   5.967  0.00  0.00    +0.027 A 
BRANCH  10  13
ATOM     13  O   UNL     1       4.942  -8.754   7.353  0.00  0.00    -0.491 OA
BRANCH  13  14
ATOM     14  C   UNL     1       4.868  -8.386   8.732  0.00  0.00    +0.244 C 
BRANCH  14  15
ATOM     15  C   UNL     1       5.469  -9.502   9.591  0.00  0.00    +0.125 C 
BRANCH  15  16
ATOM     16  N   UNL     1       6.896  -9.647   9.276  0.00  0.00    -0.295 NA
ATOM     17  C   UNL     1       7.451 -10.861   9.892  0.00  0.00    +0.112 C 
ATOM     18  C   UNL     1       8.921 -11.005   9.491  0.00  0.00    +0.175 C 
ATOM     19  O   UNL     1       9.633  -9.827   9.880  0.00  0.00    -0.377 OA
ATOM     20  C   UNL     1       9.120  -8.625   9.297  0.00  0.00    +0.175 C 
ATOM     21  C   UNL     1       7.652  -8.458   9.697  0.00  0.00    +0.112 C 
ENDBRANCH  15  16
ENDBRANCH  14  15
ENDBRANCH  13  14
ENDBRANCH  10  13
ENDBRANCH   4   7
BRANCH   1  23
ATOM     22  N   UNL     1       0.468  -4.402  -0.361  0.00  0.00    -0.218 N 
ATOM     23  C   UNL     1       1.088  -5.170   0.575  0.00  0.00    +0.130 A 
ATOM     24  C   UNL     1       0.965  -6.468   0.186  0.00  0.00    +0.069 A 
ATOM     25  C   UNL     1       0.253  -6.489  -1.017  0.00  0.00    +0.071 A 
ATOM     26  N   UNL     1      -0.050  -5.258  -1.341  0.00  0.00    -0.169 NA
BRANCH  22  31
ATOM     27  C   UNL     1       0.032   1.256  -0.296  0.00  0.00    +0.044 C 
ATOM     28  C   UNL     1       0.147  -0.246  -0.313  0.00  0.00    -0.050 A 
ATOM     29  C   UNL     1       0.285  -0.914  -1.516  0.00  0.00    +0.005 A 
ATOM     30  C   UNL     1       0.392  -2.291  -1.536  0.00  0.00    +0.028 A 
ATOM     31  C   UNL     1       0.360  -3.005  -0.345  0.00  0.00    +0.067 A 
ATOM     32  C   UNL     1       0.222  -2.332   0.861  0.00  0.00    +0.028 A 
ATOM     33  C   UNL     1       0.121  -0.954   0.874  0.00  0.00    +0.005 A 
ENDBRANCH  22  31
BRANCH  25  34
ATOM     34  C   UNL     1      -0.111  -7.723  -1.803  0.00  0.00    +0.006 C 
ATOM     35  C   UNL     1      -1.260  -8.453  -1.104  0.00  0.00    +0.017 C 
ATOM     36  C   UNL     1      -0.547  -7.318  -3.213  0.00  0.00    +0.017 C 
ATOM     37  C   UNL     1       1.104  -8.649  -1.890  0.00  0.00    +0.017 C 
ENDBRANCH  25  34
ENDBRANCH   1  23
TORSDOF 8
