REMARK  Name = CHEMBL329080
REMARK  6 active torsions:
REMARK  status: ('A' for Active; 'I' for Inactive)
REMARK    1  A    between atoms: C_4  and  O_7
REMARK    2  A    between atoms: O_7  and  C_8
REMARK    3  A    between atoms: C_12  and  C_14
REMARK    4  A    between atoms: C_15  and  C_26
REMARK    5  A    between atoms: N_18  and  C_19
REMARK    6  A    between atoms: C_22  and  O_25
REMARK                            x       y       z     vdW  Elec       q    Type
REMARK                         _______ _______ _______ _____ _____    ______ ____
ROOT
ATOM      1  C   UNL     1       5.984  -4.715   0.339  0.00  0.00    +0.093 A 
ATOM      2  C   UNL     1       7.241  -4.254  -0.012  0.00  0.00    +0.073 A 
ATOM      3  N   UNL     1       8.119  -5.234   0.266  0.00  0.00    -0.345 N 
ATOM      4  C   UNL     1       7.486  -6.261   0.762  0.00  0.00    +0.175 A 
ATOM      5  N   UNL     1       6.167  -5.988   0.832  0.00  0.00    -0.327 N 
ATOM      6  H   UNL     1       9.077  -5.184   0.120  0.00  0.00    +0.167 HD
ENDROOT
BRANCH   2   7
ATOM      7  C   UNL     1       7.560  -2.927  -0.588  0.00  0.00    +0.001 A 
ATOM      8  C   UNL     1       6.777  -2.404  -1.617  0.00  0.00    +0.013 A 
ATOM      9  C   UNL     1       7.078  -1.168  -2.150  0.00  0.00    +0.039 A 
ATOM     10  C   UNL     1       8.156  -0.446  -1.665  0.00  0.00    +0.123 A 
ATOM     11  C   UNL     1       8.937  -0.960  -0.642  0.00  0.00    +0.039 A 
ATOM     12  C   UNL     1       8.640  -2.193  -0.099  0.00  0.00    +0.013 A 
ATOM     13  F   UNL     1       8.447   0.765  -2.190  0.00  0.00    -0.205 F 
ENDBRANCH   2   7
BRANCH   1  18
ATOM     14  C   UNL     1       3.531  -2.005   0.174  0.00  0.00    +0.324 A 
ATOM     15  N   UNL     1       2.383  -2.638  -0.010  0.00  0.00    -0.203 NA
ATOM     16  C   UNL     1       2.336  -3.959  -0.090  0.00  0.00    +0.118 A 
ATOM     17  C   UNL     1       3.507  -4.685   0.021  0.00  0.00    +0.050 A 
ATOM     18  C   UNL     1       4.707  -3.989   0.215  0.00  0.00    +0.096 A 
ATOM     19  N   UNL     1       4.676  -2.656   0.280  0.00  0.00    -0.193 NA
BRANCH  14  20
ATOM     20  O   UNL     1       3.533  -0.652   0.250  0.00  0.00    -0.424 OA
BRANCH  20  24
ATOM     21  C   UNL     1      -0.105   1.294   0.245  0.00  0.00    +0.000 A 
ATOM     22  C   UNL     1       0.246   0.489   1.313  0.00  0.00    +0.004 A 
ATOM     23  C   UNL     1       1.464  -0.164   1.317  0.00  0.00    +0.046 A 
ATOM     24  C   UNL     1       2.334  -0.011   0.248  0.00  0.00    +0.132 A 
ATOM     25  C   UNL     1       1.980   0.797  -0.823  0.00  0.00    +0.046 A 
ATOM     26  C   UNL     1       0.761   1.448  -0.822  0.00  0.00    +0.004 A 
ENDBRANCH  20  24
ENDBRANCH  14  20
ENDBRANCH   1  18
BRANCH   5  27
ATOM     27  C   UNL     1       5.122  -6.882   1.337  0.00  0.00    +0.089 C 
ATOM     28  C   UNL     1       5.486  -7.347   2.749  0.00  0.00    +0.027 C 
ATOM     29  C   UNL     1       4.395  -8.280   3.276  0.00  0.00    +0.033 C 
ATOM     30  C   UNL     1       4.274  -9.496   2.354  0.00  0.00    +0.115 C 
ATOM     31  C   UNL     1       3.910  -9.031   0.943  0.00  0.00    +0.033 C 
ATOM     32  C   UNL     1       5.001  -8.098   0.416  0.00  0.00    +0.027 C 
BRANCH  30  33
ATOM     33  O   UNL     1       3.255 -10.368   2.847  0.00  0.00    -0.392 OA
ATOM     34  H   UNL     1       3.123 -11.161   2.311  0.00  0.00    +0.210 HD
ENDBRANCH  30  33
ENDBRANCH   5  27
TORSDOF 6
