REMARK  Name = CHEMBL600583
REMARK  9 active torsions:
REMARK  status: ('A' for Active; 'I' for Inactive)
REMARK    1  A    between atoms: C_1  and  C_2
REMARK    2  A    between atoms: N_5  and  C_31
REMARK    3  A    between atoms: C_6  and  C_30
REMARK    4  A    between atoms: C_10  and  C_12
REMARK    5  A    between atoms: N_19  and  C_29
REMARK    6  A    between atoms: C_21  and  C_22
REMARK    7  A    between atoms: C_22  and  C_24
REMARK    8  A    between atoms: N_26  and  C_27
REMARK    9  A    between atoms: N_26  and  C_28
REMARK                            x       y       z     vdW  Elec       q    Type
REMARK                         _______ _______ _______ _____ _____    ______ ____
ROOT
ATOM      1  C   UNL     1       0.730   1.374  -0.450  0.00  0.00    +0.026 C 
ATOM      2  C   UNL     1       0.700  -0.130  -0.167  0.00  0.00    +0.057 C 
ATOM      3  C   UNL     1      -0.745  -0.637  -0.231  0.00  0.00    -0.055 C 
ATOM      4  N   UNL     1      -1.526  -0.026   0.852  0.00  0.00    +0.388 N 
ATOM      5  C   UNL     1      -1.009  -0.470   2.152  0.00  0.00    -0.053 C 
ATOM      6  C   UNL     1       0.422   0.046   2.335  0.00  0.00    +0.093 C 
ATOM      7  N   UNL     1       1.230  -0.391   1.180  0.00  0.00    -0.298 N 
ATOM      8  C   UNL     1       2.414  -1.012   1.350  0.00  0.00    +0.248 C 
ATOM      9  O   UNL     1       3.098  -1.291   0.385  0.00  0.00    -0.270 OA
ATOM     10  C   UNL     1      -1.012  -1.999   2.208  0.00  0.00    -0.012 C 
ATOM     11  H   UNL     1      -1.457   0.979   0.789  0.00  0.00    -0.080 HD
ENDROOT
BRANCH   8  12
ATOM     12  C   UNL     1       2.879  -1.353   2.709  0.00  0.00    +0.056 A 
ATOM     13  C   UNL     1       2.970  -0.362   3.685  0.00  0.00    +0.025 A 
ATOM     14  C   UNL     1       3.408  -0.694   4.959  0.00  0.00    +0.012 A 
ATOM     15  C   UNL     1       3.760  -2.021   5.266  0.00  0.00    +0.051 A 
ATOM     16  C   UNL     1       3.665  -3.002   4.283  0.00  0.00    +0.047 A 
ATOM     17  C   UNL     1       3.225  -2.675   3.020  0.00  0.00    +0.055 A 
ATOM     18 CL   UNL     1       3.104  -3.908   1.804  0.00  0.00    -0.083 Cl
ATOM     19  N   UNL     1       4.152  -2.054   6.587  0.00  0.00    -0.349 N 
ATOM     20  C   UNL     1       4.073  -0.830   7.141  0.00  0.00    +0.098 A 
ATOM     21  C   UNL     1       3.620   0.076   6.201  0.00  0.00    +0.052 A 
ATOM     22  C   UNL     1       4.596  -3.259   7.293  0.00  0.00    +0.149 C 
BRANCH  21  23
ATOM     23  C   UNL     1       3.396   1.508   6.396  0.00  0.00    +0.249 C 
ATOM     24  O   UNL     1       2.993   2.191   5.476  0.00  0.00    -0.282 OA
BRANCH  23  25
ATOM     25  C   UNL     1       3.662   2.129   7.726  0.00  0.00    +0.287 C 
ATOM     26  O   UNL     1       3.997   1.436   8.664  0.00  0.00    -0.266 OA
ATOM     27  N   UNL     1       3.530   3.461   7.885  0.00  0.00    -0.301 N 
ATOM     28  C   UNL     1       3.956   4.095   9.136  0.00  0.00    +0.132 C 
ATOM     29  C   UNL     1       2.961   4.275   6.809  0.00  0.00    +0.132 C 
ENDBRANCH  23  25
ENDBRANCH  21  23
ENDBRANCH   8  12
BRANCH   4  30
ATOM     30  C   UNL     1      -2.933  -0.426   0.724  0.00  0.00    -0.037 C 
ATOM     31  C   UNL     1      -3.709  -0.075   2.011  0.00  0.00    -0.006 C 
ATOM     32  C   UNL     1      -5.101   0.308   1.466  0.00  0.00    +0.034 C 
ATOM     33  C   UNL     1      -4.853   0.791   0.053  0.00  0.00    -0.046 A 
ATOM     34  C   UNL     1      -3.608   0.369  -0.373  0.00  0.00    -0.058 A 
ATOM     35  C   UNL     1      -3.167   0.698  -1.644  0.00  0.00    +0.002 A 
ATOM     36  C   UNL     1      -3.968   1.445  -2.486  0.00  0.00    +0.000 A 
ATOM     37  C   UNL     1      -5.213   1.867  -2.060  0.00  0.00    +0.000 A 
ATOM     38  C   UNL     1      -5.654   1.540  -0.792  0.00  0.00    +0.004 A 
ENDBRANCH   4  30
TORSDOF 4
