REMARK  Name = CHEMBL481883
REMARK  6 active torsions:
REMARK  status: ('A' for Active; 'I' for Inactive)
REMARK    1  A    between atoms: C_1  and  S_2
REMARK    2  A    between atoms: S_2  and  C_3
REMARK    3  A    between atoms: C_6  and  C_16
REMARK    4  A    between atoms: C_7  and  C_9
REMARK    5  A    between atoms: N_22  and  C_23
REMARK    6  A    between atoms: C_23  and  C_24
REMARK                            x       y       z     vdW  Elec       q    Type
REMARK                         _______ _______ _______ _____ _____    ______ ____
ROOT
ATOM      1  C   UNL     1       0.103   6.500   0.356  0.00  0.00    +0.007 A 
ATOM      2  C   UNL     1       0.564   7.711  -0.178  0.00  0.00    +0.027 A 
ATOM      3  C   UNL     1       1.025   8.688   0.676  0.00  0.00    +0.085 A 
ATOM      4  N   UNL     1       1.039   8.499   1.983  0.00  0.00    -0.350 N 
ATOM      5  C   UNL     1       0.614   7.370   2.532  0.00  0.00    +0.097 A 
ATOM      6  C   UNL     1       0.127   6.337   1.742  0.00  0.00    +0.051 A 
ATOM      7  N   UNL     1       0.650   7.222   3.914  0.00  0.00    -0.325 N 
ATOM      8  H   UNL     1       0.985   7.942   4.470  0.00  0.00    +0.148 HD
ATOM      9  H   UNL     1       1.370   9.207   2.558  0.00  0.00    +0.166 HD
ENDROOT
BRANCH   1  13
ATOM     10  C   UNL     1      -0.829   3.441  -1.307  0.00  0.00    +0.167 A 
ATOM     11  N   UNL     1      -0.259   4.098  -0.325  0.00  0.00    -0.221 NA
ATOM     12  H   UNL     1      -1.834   4.114  -3.010  0.00  0.00    +0.168 HD
ATOM     13  C   UNL     1      -0.400   5.423  -0.527  0.00  0.00    +0.098 A 
ATOM     14  C   UNL     1      -1.099   5.596  -1.706  0.00  0.00    +0.075 A 
ATOM     15  N   UNL     1      -1.359   4.330  -2.193  0.00  0.00    -0.332 N 
BRANCH  14  16
ATOM     16  C   UNL     1      -1.485   6.879  -2.325  0.00  0.00    +0.001 A 
ATOM     17  C   UNL     1      -2.027   7.901  -1.542  0.00  0.00    +0.013 A 
ATOM     18  C   UNL     1      -2.385   9.097  -2.126  0.00  0.00    +0.039 A 
ATOM     19  C   UNL     1      -2.210   9.287  -3.488  0.00  0.00    +0.123 A 
ATOM     20  C   UNL     1      -1.673   8.276  -4.270  0.00  0.00    +0.039 A 
ATOM     21  C   UNL     1      -1.306   7.078  -3.696  0.00  0.00    +0.013 A 
ATOM     22  F   UNL     1      -2.563  10.461  -4.055  0.00  0.00    -0.205 F 
ENDBRANCH  14  16
BRANCH  10  24
ATOM     23  C   UNL     1      -0.013   1.086   0.008  0.00  0.00    +0.093 C 
ATOM     24  S   UNL     1      -0.890   1.687  -1.462  0.00  0.00    -0.091 S 
ENDBRANCH  10  24
ENDBRANCH   1  13
BRANCH   7  25
ATOM     25  C   UNL     1       0.182   5.977   4.529  0.00  0.00    +0.158 C 
BRANCH  25  26
ATOM     26  C   UNL     1       0.326   6.072   6.026  0.00  0.00    +0.058 A 
ATOM     27  C   UNL     1      -0.754   6.467   6.793  0.00  0.00    +0.025 A 
ATOM     28  C   UNL     1      -0.611   6.551   8.169  0.00  0.00    +0.003 A 
ATOM     29  C   UNL     1       0.619   6.233   8.726  0.00  0.00    +0.020 A 
ATOM     30  C   UNL     1       1.653   5.846   7.895  0.00  0.00    +0.111 A 
ATOM     31  N   UNL     1       1.480   5.772   6.590  0.00  0.00    -0.258 NA
ENDBRANCH  25  26
ENDBRANCH   7  25
TORSDOF 5
