REMARK  Name = CHEMBL327959
REMARK  4 active torsions:
REMARK  status: ('A' for Active; 'I' for Inactive)
REMARK    1  A    between atoms: C_4  and  N_8
REMARK    2  A    between atoms: C_11  and  O_27
REMARK    3  A    between atoms: C_13  and  C_19
REMARK    4  A    between atoms: O_27  and  C_28
REMARK                            x       y       z     vdW  Elec       q    Type
REMARK                         _______ _______ _______ _____ _____    ______ ____
ROOT
ATOM      1  N   UNL     1       3.447  -1.042  -0.059  0.00  0.00    -0.221 N 
ATOM      2  C   UNL     1       4.110  -1.155  -1.283  0.00  0.00    +0.052 A 
ATOM      3  C   UNL     1       3.477  -0.801  -2.467  0.00  0.00    +0.070 A 
ATOM      4  C   UNL     1       4.146  -0.919  -3.675  0.00  0.00    +0.123 A 
ATOM      5  C   UNL     1       5.449  -1.389  -3.711  0.00  0.00    +0.054 A 
ATOM      6  C   UNL     1       6.091  -1.746  -2.526  0.00  0.00    -0.007 A 
ATOM      7  C   UNL     1       5.417  -1.627  -1.319  0.00  0.00    -0.001 A 
ATOM      8  C   UNL     1       6.074  -2.002  -0.012  0.00  0.00    +0.143 C 
ATOM      9  N   UNL     1       5.270  -1.838   1.211  0.00  0.00    -0.295 N 
ATOM     10  C   UNL     1       4.014  -1.364   1.110  0.00  0.00    +0.311 C 
ATOM     11  O   UNL     1       3.363  -1.228   2.127  0.00  0.00    -0.252 OA
ATOM     12  H   UNL     1       5.641  -2.064   2.078  0.00  0.00    +0.151 HD
ENDROOT
BRANCH   1  16
ATOM     13  C   UNL     1      -0.471   0.384  -0.046  0.00  0.00    +0.003 A 
ATOM     14  C   UNL     1       0.585   1.269   0.064  0.00  0.00    +0.022 A 
ATOM     15  C   UNL     1       1.885   0.800   0.060  0.00  0.00    +0.064 A 
ATOM     16  C   UNL     1       2.130  -0.562  -0.054  0.00  0.00    +0.079 A 
ATOM     17  C   UNL     1       1.066  -1.449  -0.164  0.00  0.00    +0.064 A 
ATOM     18  C   UNL     1      -0.232  -0.973  -0.160  0.00  0.00    +0.022 A 
ATOM     19 CL   UNL     1       1.366  -3.153  -0.308  0.00  0.00    -0.082 Cl
ATOM     20 CL   UNL     1       3.211   1.913   0.197  0.00  0.00    -0.082 Cl
ENDBRANCH   1  16
BRANCH   6  21
ATOM     21  C   UNL     1       7.487  -2.251  -2.554  0.00  0.00    +0.001 A 
ATOM     22  C   UNL     1       8.524  -1.415  -2.963  0.00  0.00    +0.013 A 
ATOM     23  C   UNL     1       9.819  -1.888  -2.988  0.00  0.00    +0.039 A 
ATOM     24  C   UNL     1      10.091  -3.193  -2.608  0.00  0.00    +0.125 A 
ATOM     25  C   UNL     1       9.064  -4.028  -2.201  0.00  0.00    +0.059 A 
ATOM     26  C   UNL     1       7.764  -3.561  -2.167  0.00  0.00    +0.051 A 
ATOM     27 CL   UNL     1       6.478  -4.606  -1.649  0.00  0.00    -0.083 Cl
ATOM     28  F   UNL     1      11.361  -3.651  -2.635  0.00  0.00    -0.205 F 
ENDBRANCH   6  21
BRANCH   4  29
ATOM     29  O   UNL     1       3.521  -0.571  -4.831  0.00  0.00    -0.489 OA
BRANCH  29  30
ATOM     30  C   UNL     1       4.221  -0.828  -6.050  0.00  0.00    +0.170 C 
ATOM     31  C   UNL     1       5.165   0.339  -6.355  0.00  0.00    +0.025 C 
ATOM     32  C   UNL     1       5.852   0.095  -7.700  0.00  0.00    -0.079 C 
ATOM     33  N   UNL     1       4.840  -0.008  -8.759  0.00  0.00    +0.379 N 
ATOM     34  C   UNL     1       3.976  -1.168  -8.511  0.00  0.00    -0.079 C 
ATOM     35  C   UNL     1       3.217  -0.972  -7.197  0.00  0.00    +0.025 C 
ATOM     36  H   UNL     1       4.280   0.831  -8.769  0.00  0.00    -0.086 HD
ATOM     37  H   UNL     1       5.298  -0.115  -9.651  0.00  0.00    -0.086 HD
ENDBRANCH  29  30
ENDBRANCH   4  29
TORSDOF 4
