REMARK  Name = CHEMBL523880
REMARK  8 active torsions:
REMARK  status: ('A' for Active; 'I' for Inactive)
REMARK    1  A    between atoms: C_1  and  C_2
REMARK    2  A    between atoms: C_2  and  C_3
REMARK    3  A    between atoms: C_2  and  C_26
REMARK    4  A    between atoms: C_3  and  N_4
REMARK    5  A    between atoms: C_7  and  C_11
REMARK    6  A    between atoms: C_12  and  C_19
REMARK    7  A    between atoms: C_14  and  S_17
REMARK    8  A    between atoms: S_17  and  C_18
REMARK                            x       y       z     vdW  Elec       q    Type
REMARK                         _______ _______ _______ _____ _____    ______ ____
ROOT
ATOM      1  N   UNL     1      -2.105  -0.148  -1.230  0.00  0.00    -0.330 N 
ATOM      2  C   UNL     1      -3.427  -0.520  -1.450  0.00  0.00    +0.097 A 
ATOM      3  C   UNL     1      -4.104  -1.250  -0.484  0.00  0.00    +0.051 A 
ATOM      4  C   UNL     1      -5.434  -1.615  -0.721  0.00  0.00    +0.005 A 
ATOM      5  C   UNL     1      -6.024  -1.223  -1.933  0.00  0.00    +0.027 A 
ATOM      6  C   UNL     1      -5.280  -0.499  -2.837  0.00  0.00    +0.085 A 
ATOM      7  N   UNL     1      -4.028  -0.167  -2.578  0.00  0.00    -0.350 N 
ATOM      8  H   UNL     1      -1.628   0.366  -1.901  0.00  0.00    +0.147 HD
ATOM      9  H   UNL     1      -3.532   0.347  -3.234  0.00  0.00    +0.166 HD
ENDROOT
BRANCH   4  10
ATOM     10  C   UNL     1      -6.195  -2.392   0.275  0.00  0.00    +0.075 A 
ATOM     11  C   UNL     1      -7.489  -2.155   0.697  0.00  0.00    +0.098 A 
ATOM     12  N   UNL     1      -7.799  -3.094   1.611  0.00  0.00    -0.221 NA
ATOM     13  C   UNL     1      -6.777  -3.899   1.780  0.00  0.00    +0.167 A 
ATOM     14  N   UNL     1      -5.757  -3.507   0.968  0.00  0.00    -0.332 N 
ATOM     15  H   UNL     1      -4.887  -3.928   0.891  0.00  0.00    +0.168 HD
BRANCH  11  16
ATOM     16  C   UNL     1      -8.375  -1.064   0.230  0.00  0.00    +0.003 A 
ATOM     17  C   UNL     1      -7.839   0.182  -0.095  0.00  0.00    +0.013 A 
ATOM     18  C   UNL     1      -8.669   1.195  -0.530  0.00  0.00    +0.039 A 
ATOM     19  C   UNL     1     -10.032   0.976  -0.644  0.00  0.00    +0.123 A 
ATOM     20  C   UNL     1     -10.569  -0.260  -0.322  0.00  0.00    +0.039 A 
ATOM     21  C   UNL     1      -9.748  -1.281   0.108  0.00  0.00    +0.013 A 
ATOM     22  F   UNL     1     -10.840   1.971  -1.071  0.00  0.00    -0.205 F 
ENDBRANCH  11  16
BRANCH  13  23
ATOM     23  S   UNL     1      -6.732  -5.275   2.881  0.00  0.00    -0.091 S 
ATOM     24  C   UNL     1      -8.373  -5.270   3.656  0.00  0.00    +0.093 C 
ENDBRANCH  13  23
ENDBRANCH   4  10
BRANCH   1  25
ATOM     25  C   UNL     1      -1.433  -0.534   0.013  0.00  0.00    +0.110 C 
BRANCH  25  27
ATOM     26  C   UNL     1      -0.019   1.526   0.010  0.00  0.00    +0.014 C 
ATOM     27  C   UNL     1       0.002  -0.004   0.002  0.00  0.00    +0.033 C 
BRANCH  27  28
ATOM     28  C   UNL     1       0.731  -0.503   1.223  0.00  0.00    -0.043 A 
ATOM     29  C   UNL     1       0.263  -0.187   2.485  0.00  0.00    +0.004 A 
ATOM     30  C   UNL     1       0.931  -0.645   3.605  0.00  0.00    +0.000 A 
ATOM     31  C   UNL     1       2.068  -1.419   3.463  0.00  0.00    +0.000 A 
ATOM     32  C   UNL     1       2.535  -1.736   2.201  0.00  0.00    +0.000 A 
ATOM     33  C   UNL     1       1.864  -1.282   1.081  0.00  0.00    +0.004 A 
ENDBRANCH  27  28
ENDBRANCH  25  27
ENDBRANCH   1  25
TORSDOF 6
