REMARK  Name = CHEMBL184271
REMARK  10 active torsions:
REMARK  status: ('A' for Active; 'I' for Inactive)
REMARK    1  A    between atoms: C_1  and  C_2
REMARK    2  A    between atoms: C_5  and  N_30
REMARK    3  A    between atoms: C_7  and  N_8
REMARK    4  A    between atoms: C_12  and  O_21
REMARK    5  A    between atoms: C_13  and  O_19
REMARK    6  A    between atoms: O_19  and  C_20
REMARK    7  A    between atoms: O_21  and  C_22
REMARK    8  A    between atoms: C_22  and  C_23
REMARK    9  A    between atoms: C_23  and  N_24
REMARK   10  A    between atoms: C_31  and  C_33
REMARK                            x       y       z     vdW  Elec       q    Type
REMARK                         _______ _______ _______ _____ _____    ______ ____
ROOT
ATOM      1  N   UNL     1      -0.364   0.276   0.920  0.00  0.00    -0.299 N 
ATOM      2  C   UNL     1       0.153  -0.800   1.613  0.00  0.00    +0.134 A 
ATOM      3  C   UNL     1       0.582  -0.663   2.954  0.00  0.00    +0.044 A 
ATOM      4  C   UNL     1       0.503   0.558   3.636  0.00  0.00    +0.062 A 
ATOM      5  C   UNL     1       0.931   0.638   4.931  0.00  0.00    +0.163 A 
ATOM      6  C   UNL     1       1.448  -0.488   5.586  0.00  0.00    +0.164 A 
ATOM      7  C   UNL     1       1.536  -1.700   4.938  0.00  0.00    +0.078 A 
ATOM      8  C   UNL     1       1.104  -1.805   3.610  0.00  0.00    +0.080 A 
ATOM      9  N   UNL     1       1.168  -2.963   2.934  0.00  0.00    -0.235 NA
ATOM     10  C   UNL     1       0.755  -3.032   1.691  0.00  0.00    +0.223 A 
ATOM     11  N   UNL     1       0.256  -1.993   1.040  0.00  0.00    -0.220 NA
ATOM     12  H   UNL     1      -0.518   1.118   1.377  0.00  0.00    +0.154 HD
ENDROOT
BRANCH   1  19
ATOM     13  C   UNL     1      -2.427   1.916  -0.147  0.00  0.00    +0.045 C 
ATOM     14  C   UNL     1      -1.668   0.935  -1.002  0.00  0.00    -0.029 A 
ATOM     15  C   UNL     1      -1.963   0.818  -2.347  0.00  0.00    +0.007 A 
ATOM     16  C   UNL     1      -1.269  -0.081  -3.134  0.00  0.00    +0.024 A 
ATOM     17  C   UNL     1      -0.271  -0.870  -2.575  0.00  0.00    +0.035 A 
ATOM     18  C   UNL     1       0.028  -0.755  -1.226  0.00  0.00    +0.046 A 
ATOM     19  C   UNL     1      -0.667   0.153  -0.439  0.00  0.00    +0.037 A 
BRANCH  17  20
ATOM     20  N   UNL     1       0.430  -1.780  -3.373  0.00  0.00    -0.281 N 
ATOM     21  C   UNL     1       0.712  -1.475  -4.655  0.00  0.00    +0.248 C 
ATOM     22  O   UNL     1       0.436  -0.375  -5.092  0.00  0.00    -0.270 OA
ATOM     23  H   UNL     1       0.714  -2.631  -3.003  0.00  0.00    +0.155 HD
BRANCH  21  24
ATOM     24  C   UNL     1       1.357  -2.480  -5.531  0.00  0.00    +0.042 A 
ATOM     25  C   UNL     1       1.678  -3.755  -5.048  0.00  0.00    +0.033 A 
ATOM     26  C   UNL     1       2.279  -4.663  -5.894  0.00  0.00    +0.113 A 
ATOM     27  N   UNL     1       2.553  -4.348  -7.145  0.00  0.00    -0.240 NA
ATOM     28  C   UNL     1       2.269  -3.156  -7.645  0.00  0.00    +0.122 A 
ATOM     29  C   UNL     1       1.658  -2.183  -6.861  0.00  0.00    +0.056 A 
ATOM     30  N   UNL     1       2.580  -2.874  -8.971  0.00  0.00    -0.311 N 
ATOM     31  C   UNL     1       3.019  -3.938  -9.888  0.00  0.00    +0.134 C 
ATOM     32  C   UNL     1       2.171  -3.858 -11.162  0.00  0.00    +0.178 C 
ATOM     33  O   UNL     1       2.212  -2.523 -11.672  0.00  0.00    -0.377 OA
ATOM     34  C   UNL     1       1.658  -1.543 -10.791  0.00  0.00    +0.178 C 
ATOM     35  C   UNL     1       2.475  -1.505  -9.499  0.00  0.00    +0.134 C 
ENDBRANCH  21  24
ENDBRANCH  17  20
ENDBRANCH   1  19
BRANCH   6  36
ATOM     36  O   UNL     1       1.868  -0.383   6.874  0.00  0.00    -0.491 OA
ATOM     37  C   UNL     1       2.385  -1.566   7.486  0.00  0.00    +0.277 C 
ENDBRANCH   6  36
BRANCH   5  38
ATOM     38  O   UNL     1       0.854   1.824   5.591  0.00  0.00    -0.490 OA
BRANCH  38  39
ATOM     39  C   UNL     1       0.318   2.936   4.870  0.00  0.00    +0.211 C 
BRANCH  39  40
ATOM     40  C   UNL     1       0.311   4.173   5.770  0.00  0.00    -0.037 C 
BRANCH  40  41
ATOM     41  N   UNL     1       1.694   4.558   6.083  0.00  0.00    +0.385 N 
ATOM     42  C   UNL     1       1.688   5.646   7.071  0.00  0.00    -0.050 C 
ATOM     43  C   UNL     1       3.129   6.046   7.395  0.00  0.00    +0.141 C 
ATOM     44  O   UNL     1       3.793   6.435   6.189  0.00  0.00    -0.383 OA
ATOM     45  C   UNL     1       3.805   5.416   5.186  0.00  0.00    +0.141 C 
ATOM     46  C   UNL     1       2.364   5.014   4.858  0.00  0.00    -0.050 C 
ATOM     47  H   UNL     1       2.188   3.764   6.461  0.00  0.00    -0.081 HD
ENDBRANCH  40  41
ENDBRANCH  39  40
ENDBRANCH  38  39
ENDBRANCH   5  38
TORSDOF 8
