REMARK  Name = CHEMBL242697
REMARK  3 active torsions:
REMARK  status: ('A' for Active; 'I' for Inactive)
REMARK    1  A    between atoms: C_1  and  N_2
REMARK    2  A    between atoms: C_4  and  C_11
REMARK    3  A    between atoms: N_20  and  C_21
REMARK                            x       y       z     vdW  Elec       q    Type
REMARK                         _______ _______ _______ _____ _____    ______ ____
ROOT
ATOM      1  C   UNL     1      -0.066  -3.194  -1.609  0.00  0.00    +0.249 C 
ATOM      2  O   UNL     1       0.008  -4.314  -1.141  0.00  0.00    -0.270 OA
ATOM      3  N   UNL     1      -0.145  -3.025  -2.944  0.00  0.00    -0.293 N 
ATOM      4  C   UNL     1      -0.254  -4.183  -3.844  0.00  0.00    +0.114 C 
ATOM      5  C   UNL     1      -1.611  -4.140  -4.558  0.00  0.00    +0.075 C 
ATOM      6  C   UNL     1      -1.859  -2.736  -5.048  0.00  0.00    +0.051 A 
ATOM      7  C   UNL     1      -1.204  -1.636  -4.593  0.00  0.00    +0.011 A 
ATOM      8  C   UNL     1      -1.702  -0.525  -5.270  0.00  0.00    +0.140 A 
ATOM      9  N   UNL     1      -2.624  -0.938  -6.106  0.00  0.00    -0.174 NA
ATOM     10  N   UNL     1      -2.738  -2.331  -5.984  0.00  0.00    -0.235 N 
ATOM     11  C   UNL     1      -0.132  -1.675  -3.537  0.00  0.00    +0.146 C 
ENDROOT
BRANCH   1  15
ATOM     12  C   UNL     1       0.927   1.332   0.260  0.00  0.00    +0.149 C 
ATOM     13  N   UNL     1       0.363  -0.013   0.126  0.00  0.00    -0.349 N 
ATOM     14  C   UNL     1       0.613  -0.857  -0.904  0.00  0.00    +0.099 A 
ATOM     15  C   UNL     1      -0.068  -2.025  -0.720  0.00  0.00    +0.062 A 
ATOM     16  C   UNL     1      -0.806  -1.882   0.548  0.00  0.00    +0.012 A 
ATOM     17  C   UNL     1      -0.492  -0.602   1.034  0.00  0.00    +0.050 A 
ATOM     18  C   UNL     1      -1.044  -0.175   2.238  0.00  0.00    +0.026 A 
ATOM     19  C   UNL     1      -1.887  -1.008   2.941  0.00  0.00    +0.002 A 
ATOM     20  C   UNL     1      -2.194  -2.272   2.461  0.00  0.00    +0.001 A 
ATOM     21  C   UNL     1      -1.663  -2.711   1.267  0.00  0.00    +0.011 A 
ENDBRANCH   1  15
BRANCH  10  22
ATOM     22  C   UNL     1      -3.611  -3.155  -6.708  0.00  0.00    +0.084 A 
ATOM     23  C   UNL     1      -4.388  -4.096  -6.046  0.00  0.00    +0.029 A 
ATOM     24  C   UNL     1      -5.248  -4.907  -6.761  0.00  0.00    +0.002 A 
ATOM     25  C   UNL     1      -5.336  -4.781  -8.136  0.00  0.00    +0.002 A 
ATOM     26  C   UNL     1      -4.565  -3.845  -8.799  0.00  0.00    +0.022 A 
ATOM     27  C   UNL     1      -3.706  -3.027  -8.088  0.00  0.00    +0.066 A 
ATOM     28 CL   UNL     1      -2.744  -1.846  -8.919  0.00  0.00    -0.081 Cl
ENDBRANCH  10  22
TORSDOF 2
