REMARK  Name = CHEMBL113851
REMARK  8 active torsions:
REMARK  status: ('A' for Active; 'I' for Inactive)
REMARK    1  A    between atoms: C_1  and  O_2
REMARK    2  A    between atoms: O_2  and  C_3
REMARK    3  A    between atoms: C_7  and  C_9
REMARK    4  A    between atoms: C_9  and  O_10
REMARK    5  A    between atoms: O_10  and  C_11
REMARK    6  A    between atoms: C_13  and  N_33
REMARK    7  A    between atoms: C_17  and  C_26
REMARK    8  A    between atoms: C_18  and  C_20
REMARK                            x       y       z     vdW  Elec       q    Type
REMARK                         _______ _______ _______ _____ _____    ______ ____
ROOT
ATOM      1  C   UNL     1      -2.623  -5.989  -1.511  0.00  0.00    +0.135 A 
ATOM      2  C   UNL     1      -2.656  -6.852  -0.427  0.00  0.00    +0.089 A 
ATOM      3  C   UNL     1      -2.713  -8.225  -0.652  0.00  0.00    +0.122 A 
ATOM      4  N   UNL     1      -2.736  -8.722  -1.877  0.00  0.00    -0.215 NA
ATOM      5  C   UNL     1      -2.706  -7.940  -2.952  0.00  0.00    +0.145 A 
ATOM      6  N   UNL     1      -2.720  -8.213  -4.300  0.00  0.00    -0.338 N 
ATOM      7  C   UNL     1      -2.673  -7.046  -5.024  0.00  0.00    +0.057 A 
ATOM      8  C   UNL     1      -2.628  -5.976  -4.154  0.00  0.00    +0.020 A 
ATOM      9  C   UNL     1      -2.655  -6.545  -2.799  0.00  0.00    +0.069 A 
ATOM     10  H   UNL     1      -2.756  -9.103  -4.684  0.00  0.00    +0.167 HD
ENDROOT
BRANCH   7  11
ATOM     11  C   UNL     1      -2.671  -6.952  -6.497  0.00  0.00    -0.001 A 
ATOM     12  C   UNL     1      -1.777  -6.095  -7.144  0.00  0.00    +0.013 A 
ATOM     13  C   UNL     1      -1.780  -6.011  -8.520  0.00  0.00    +0.039 A 
ATOM     14  C   UNL     1      -2.667  -6.775  -9.262  0.00  0.00    +0.123 A 
ATOM     15  C   UNL     1      -3.556  -7.627  -8.626  0.00  0.00    +0.039 A 
ATOM     16  C   UNL     1      -3.559  -7.724  -7.250  0.00  0.00    +0.013 A 
ATOM     17  F   UNL     1      -2.665  -6.689 -10.610  0.00  0.00    -0.205 F 
ENDBRANCH   7  11
BRANCH   8  18
ATOM     18  C   UNL     1      -2.570  -4.543  -4.512  0.00  0.00    -0.012 A 
ATOM     19  C   UNL     1      -1.445  -3.769  -4.202  0.00  0.00    +0.028 A 
ATOM     20  C   UNL     1      -1.433  -2.436  -4.555  0.00  0.00    +0.111 A 
ATOM     21  N   UNL     1      -2.462  -1.891  -5.176  0.00  0.00    -0.263 NA
ATOM     22  C   UNL     1      -3.541  -2.584  -5.487  0.00  0.00    +0.111 A 
ATOM     23  C   UNL     1      -3.635  -3.924  -5.177  0.00  0.00    +0.028 A 
ENDBRANCH   8  18
BRANCH   3  24
ATOM     24  N   UNL     1      -2.746  -9.091   0.434  0.00  0.00    -0.343 N 
ATOM     25  H   UNL     1      -2.729  -8.738   1.337  0.00  0.00    +0.144 HD
ATOM     26  H   UNL     1      -2.785 -10.050   0.289  0.00  0.00    +0.144 HD
ENDBRANCH   3  24
BRANCH   1  27
ATOM     27  O   UNL     1      -2.568  -4.645  -1.332  0.00  0.00    -0.487 OA
BRANCH  27  28
ATOM     28  C   UNL     1      -2.540  -4.171   0.015  0.00  0.00    +0.264 C 
BRANCH  28  33
ATOM     29  C   UNL     1      -1.200  -0.637   0.010  0.00  0.00    +0.120 A 
ATOM     30  C   UNL     1      -2.375   0.101   0.019  0.00  0.00    +0.045 A 
ATOM     31  C   UNL     1      -3.596  -0.545   0.027  0.00  0.00    +0.004 A 
ATOM     32  C   UNL     1      -3.648  -1.927   0.026  0.00  0.00    +0.007 A 
ATOM     33  C   UNL     1      -2.479  -2.665   0.017  0.00  0.00    -0.007 A 
ATOM     34  C   UNL     1      -1.255  -2.023   0.003  0.00  0.00    +0.052 A 
BRANCH  29  36
ATOM     35  C   UNL     1      -0.017   1.425   0.010  0.00  0.00    +0.277 C 
ATOM     36  O   UNL     1       0.002  -0.004   0.002  0.00  0.00    -0.495 OA
ENDBRANCH  29  36
ENDBRANCH  28  33
ENDBRANCH  27  28
ENDBRANCH   1  27
TORSDOF 7
