REMARK  Name = CHEMBL262095
REMARK  12 active torsions:
REMARK  status: ('A' for Active; 'I' for Inactive)
REMARK    1  A    between atoms: C_1  and  C_2
REMARK    2  A    between atoms: C_5  and  N_28
REMARK    3  A    between atoms: C_7  and  N_8
REMARK    4  A    between atoms: C_11  and  C_27
REMARK    5  A    between atoms: C_12  and  C_18
REMARK    6  A    between atoms: N_20  and  C_21
REMARK    7  A    between atoms: C_21  and  C_23
REMARK    8  A    between atoms: C_21  and  C_24
REMARK    9  A    between atoms: C_24  and  O_25
REMARK   10  A    between atoms: O_25  and  C_26
REMARK   11  A    between atoms: C_29  and  C_31
REMARK   12  A    between atoms: C_34  and  C_37
REMARK                            x       y       z     vdW  Elec       q    Type
REMARK                         _______ _______ _______ _____ _____    ______ ____
ROOT
ATOM      1  N   UNL     1       0.254  -0.420   1.666  0.00  0.00    -0.297 N 
ATOM      2  C   UNL     1       0.414  -0.980   2.918  0.00  0.00    +0.151 A 
ATOM      3  C   UNL     1       0.474  -0.156   4.069  0.00  0.00    +0.109 A 
ATOM      4  C   UNL     1       0.404   1.205   4.261  0.00  0.00    -0.008 A 
ATOM      5  C   UNL     1       0.526   1.428   5.648  0.00  0.00    +0.060 A 
ATOM      6  C   UNL     1       0.667   0.188   6.252  0.00  0.00    +0.126 A 
ATOM      7  N   UNL     1       0.635  -0.759   5.303  0.00  0.00    -0.234 N 
ATOM      8  N   UNL     1       0.732  -2.158   5.352  0.00  0.00    -0.155 NA
ATOM      9  C   UNL     1       0.670  -2.856   4.253  0.00  0.00    +0.245 A 
ATOM     10  N   UNL     1       0.508  -2.291   3.057  0.00  0.00    -0.217 NA
ATOM     11  C   UNL     1       0.230   2.256   3.195  0.00  0.00    +0.047 C 
ATOM     12  H   UNL     1       0.248   0.544   1.563  0.00  0.00    +0.154 HD
ENDROOT
BRANCH   1  19
ATOM     13  C   UNL     1       0.767   0.695  -0.898  0.00  0.00    +0.045 C 
ATOM     14  C   UNL     1       0.341  -0.740  -0.725  0.00  0.00    -0.029 A 
ATOM     15  C   UNL     1       0.195  -1.555  -1.832  0.00  0.00    +0.007 A 
ATOM     16  C   UNL     1      -0.196  -2.871  -1.677  0.00  0.00    +0.024 A 
ATOM     17  C   UNL     1      -0.443  -3.380  -0.408  0.00  0.00    +0.035 A 
ATOM     18  C   UNL     1      -0.297  -2.564   0.705  0.00  0.00    +0.046 A 
ATOM     19  C   UNL     1       0.101  -1.244   0.547  0.00  0.00    +0.037 A 
BRANCH  17  20
ATOM     20  N   UNL     1      -0.839  -4.712  -0.252  0.00  0.00    -0.281 N 
ATOM     21  C   UNL     1      -0.416  -5.646  -1.127  0.00  0.00    +0.248 C 
ATOM     22  O   UNL     1       0.384  -5.351  -1.993  0.00  0.00    -0.270 OA
ATOM     23  H   UNL     1      -1.417  -4.963   0.484  0.00  0.00    +0.155 HD
BRANCH  21  24
ATOM     24  C   UNL     1      -0.926  -7.031  -1.032  0.00  0.00    +0.037 A 
ATOM     25  C   UNL     1      -1.849  -7.369  -0.041  0.00  0.00    +0.014 A 
ATOM     26  C   UNL     1      -2.324  -8.659   0.048  0.00  0.00    +0.019 A 
ATOM     27  C   UNL     1      -1.882  -9.629  -0.855  0.00  0.00    +0.052 A 
ATOM     28  C   UNL     1      -0.959  -9.291  -1.847  0.00  0.00    +0.019 A 
ATOM     29  C   UNL     1      -0.488  -8.000  -1.938  0.00  0.00    +0.014 A 
BRANCH  27  30
ATOM     30  C   UNL     1      -2.375 -10.970  -0.763  0.00  0.00    +0.099 C 
ATOM     31  N   UNL     1      -2.766 -12.034  -0.690  0.00  0.00    -0.191 NA
ENDBRANCH  27  30
ENDBRANCH  21  24
ENDBRANCH  17  20
ENDBRANCH   1  19
BRANCH   5  32
ATOM     32  C   UNL     1       0.509   2.735   6.330  0.00  0.00    +0.246 C 
ATOM     33  O   UNL     1       0.378   3.756   5.683  0.00  0.00    -0.270 OA
ATOM     34  N   UNL     1       0.637   2.799   7.670  0.00  0.00    -0.307 N 
ATOM     35  H   UNL     1       0.741   1.984   8.186  0.00  0.00    +0.149 HD
BRANCH  34  36
ATOM     36  C   UNL     1       0.619   4.098   8.347  0.00  0.00    +0.096 C 
ATOM     37  C   UNL     1      -0.829   4.515   8.613  0.00  0.00    +0.030 C 
BRANCH  36  38
ATOM     38  C   UNL     1       1.371   3.991   9.675  0.00  0.00    +0.181 C 
BRANCH  38  39
ATOM     39  O   UNL     1       0.673   3.101  10.548  0.00  0.00    -0.381 OA
ATOM     40  C   UNL     1       1.295   2.930  11.823  0.00  0.00    +0.194 C 
ENDBRANCH  38  39
ENDBRANCH  36  38
ENDBRANCH  34  36
ENDBRANCH   5  32
TORSDOF 8
