REMARK  Name = CHEMBL216650
REMARK  2 active torsions:
REMARK  status: ('A' for Active; 'I' for Inactive)
REMARK    1  A    between atoms: C_4  and  N_8
REMARK    2  A    between atoms: C_14  and  C_20
REMARK                            x       y       z     vdW  Elec       q    Type
REMARK                         _______ _______ _______ _____ _____    ______ ____
ROOT
ATOM      1  N   UNL     1       3.624  -0.651  -0.037  0.00  0.00    -0.274 N 
ATOM      2  C   UNL     1       4.214  -0.974  -1.239  0.00  0.00    +0.061 A 
ATOM      3  C   UNL     1       3.625  -0.639  -2.456  0.00  0.00    +0.048 A 
ATOM      4  C   UNL     1       4.264  -0.989  -3.628  0.00  0.00    +0.136 A 
ATOM      5  N   UNL     1       5.418  -1.633  -3.622  0.00  0.00    -0.139 N 
ATOM      6  O   UNL     1       6.023  -1.964  -4.859  0.00  0.00    -0.164 OA
ATOM      7  C   UNL     1       6.029  -1.979  -2.497  0.00  0.00    +0.104 A 
ATOM      8  C   UNL     1       5.444  -1.660  -1.255  0.00  0.00    +0.027 A 
ATOM      9  C   UNL     1       6.062  -2.010  -0.031  0.00  0.00    +0.017 A 
ATOM     10  C   UNL     1       5.452  -1.676   1.134  0.00  0.00    +0.071 A 
ATOM     11  C   UNL     1       4.223  -0.984   1.123  0.00  0.00    +0.256 A 
ATOM     12  O   UNL     1       3.691  -0.687   2.179  0.00  0.00    -0.267 OA
ENDROOT
BRANCH   1  16
ATOM     13  C   UNL     1      -0.017   1.379   0.010  0.00  0.00    +0.003 A 
ATOM     14  C   UNL     1       1.169   2.090   0.002  0.00  0.00    +0.022 A 
ATOM     15  C   UNL     1       2.378   1.420  -0.013  0.00  0.00    +0.066 A 
ATOM     16  C   UNL     1       2.401   0.031  -0.021  0.00  0.00    +0.087 A 
ATOM     17  C   UNL     1       1.207  -0.680  -0.013  0.00  0.00    +0.066 A 
ATOM     18  C   UNL     1       0.002  -0.004   0.002  0.00  0.00    +0.022 A 
ATOM     19 CL   UNL     1       1.230  -2.416  -0.023  0.00  0.00    -0.081 Cl
ATOM     20 CL   UNL     1       3.867   2.314  -0.024  0.00  0.00    -0.081 Cl
ENDBRANCH   1  16
BRANCH   7  21
ATOM     21  C   UNL     1       7.320  -2.700  -2.545  0.00  0.00    +0.038 A 
ATOM     22  C   UNL     1       8.520  -1.987  -2.557  0.00  0.00    +0.016 A 
ATOM     23  C   UNL     1       9.721  -2.663  -2.602  0.00  0.00    +0.039 A 
ATOM     24  C   UNL     1       9.739  -4.049  -2.635  0.00  0.00    +0.126 A 
ATOM     25  C   UNL     1       8.553  -4.763  -2.624  0.00  0.00    +0.077 A 
ATOM     26  C   UNL     1       7.343  -4.097  -2.573  0.00  0.00    +0.135 A 
ATOM     27  F   UNL     1       6.186  -4.794  -2.557  0.00  0.00    -0.205 F 
ATOM     28  F   UNL     1      10.920  -4.705  -2.680  0.00  0.00    -0.205 F 
ENDBRANCH   7  21
TORSDOF 2
