REMARK  Name = CHEMBL1098552
REMARK  4 active torsions:
REMARK  status: ('A' for Active; 'I' for Inactive)
REMARK    1  A    between atoms: C_1  and  C_2
REMARK    2  A    between atoms: C_4  and  C_7
REMARK    3  A    between atoms: C_10  and  C_14
REMARK    4  A    between atoms: C_19  and  C_25
REMARK                            x       y       z     vdW  Elec       q    Type
REMARK                         _______ _______ _______ _____ _____    ______ ____
ROOT
ATOM      1  C   UNL     1       0.084  -6.654  -4.151  0.00  0.00    +0.058 A 
ATOM      2  C   UNL     1       1.292  -7.125  -4.693  0.00  0.00    +0.058 A 
ATOM      3  C   UNL     1       2.500  -6.499  -4.350  0.00  0.00    +0.027 A 
ATOM      4  C   UNL     1       3.675  -6.957  -4.876  0.00  0.00    +0.004 A 
ATOM      5  C   UNL     1       3.662  -8.045  -5.751  0.00  0.00    +0.027 A 
ATOM      6  C   UNL     1       2.471  -8.652  -6.080  0.00  0.00    +0.056 A 
ATOM      7  N   UNL     1       1.288  -8.193  -5.552  0.00  0.00    -0.315 N 
ATOM      8  C   UNL     1       0.120  -8.811  -5.891  0.00  0.00    +0.095 A 
ATOM      9  C   UNL     1      -1.063  -8.399  -5.401  0.00  0.00    +0.069 A 
ATOM     10  C   UNL     1      -1.119  -7.303  -4.505  0.00  0.00    +0.190 A 
ATOM     11  O   UNL     1      -2.190  -6.923  -4.050  0.00  0.00    -0.287 OA
ENDROOT
BRANCH   1  15
ATOM     12  C   UNL     1       0.051  -3.345  -1.480  0.00  0.00    +0.045 A 
ATOM     13  C   UNL     1      -0.074  -3.133  -2.856  0.00  0.00    +0.052 A 
ATOM     14  C   UNL     1      -0.064  -4.204  -3.722  0.00  0.00    +0.135 A 
ATOM     15  C   UNL     1       0.073  -5.505  -3.224  0.00  0.00    +0.058 A 
ATOM     16  C   UNL     1       0.198  -5.716  -1.846  0.00  0.00    +0.135 A 
ATOM     17  C   UNL     1       0.193  -4.643  -0.982  0.00  0.00    +0.052 A 
ATOM     18  F   UNL     1       0.330  -6.971  -1.364  0.00  0.00    -0.205 F 
ATOM     19  F   UNL     1      -0.186  -3.999  -5.052  0.00  0.00    -0.205 F 
BRANCH  12  23
ATOM     20  C   UNL     1      -0.168   1.339   0.215  0.00  0.00    +0.091 C 
ATOM     21  C   UNL     1      -0.054  -0.164   0.201  0.00  0.00    +0.169 A 
ATOM     22  N   UNL     1      -0.085  -0.931  -0.890  0.00  0.00    -0.192 NA
ATOM     23  C   UNL     1       0.041  -2.197  -0.553  0.00  0.00    +0.259 A 
ATOM     24  O   UNL     1       0.157  -2.260   0.786  0.00  0.00    -0.333 OA
ATOM     25  N   UNL     1       0.097  -0.920   1.251  0.00  0.00    -0.061 NA
ENDBRANCH  12  23
ENDBRANCH   1  15
BRANCH   6  26
ATOM     26  C   UNL     1       2.465  -9.801  -7.005  0.00  0.00    +0.034 A 
ATOM     27  C   UNL     1       1.853  -9.691  -8.257  0.00  0.00    +0.015 A 
ATOM     28  C   UNL     1       1.851 -10.768  -9.117  0.00  0.00    +0.039 A 
ATOM     29  C   UNL     1       2.453 -11.960  -8.743  0.00  0.00    +0.126 A 
ATOM     30  C   UNL     1       3.060 -12.078  -7.504  0.00  0.00    +0.077 A 
ATOM     31  C   UNL     1       3.076 -11.004  -6.635  0.00  0.00    +0.135 A 
ATOM     32  F   UNL     1       3.674 -11.117  -5.429  0.00  0.00    -0.205 F 
ATOM     33  F   UNL     1       2.445 -13.012  -9.592  0.00  0.00    -0.205 F 
ENDBRANCH   6  26
TORSDOF 3
