REMARK  Name = CHEMBL129240
REMARK  7 active torsions:
REMARK  status: ('A' for Active; 'I' for Inactive)
REMARK    1  A    between atoms: C_4  and  S_7
REMARK    2  A    between atoms: S_7  and  C_8
REMARK    3  A    between atoms: C_8  and  C_9
REMARK    4  A    between atoms: C_9  and  C_10
REMARK    5  A    between atoms: C_10  and  N_11
REMARK    6  A    between atoms: C_14  and  C_22
REMARK    7  A    between atoms: C_15  and  C_16
REMARK                            x       y       z     vdW  Elec       q    Type
REMARK                         _______ _______ _______ _____ _____    ______ ____
ROOT
ATOM      1  N   UNL     1       5.421  -5.977   0.053  0.00  0.00    -0.330 N 
ATOM      2  C   UNL     1       6.183  -6.376  -0.987  0.00  0.00    +0.200 A 
ATOM      3  N   UNL     1       7.357  -6.742  -0.552  0.00  0.00    -0.235 NA
ATOM      4  C   UNL     1       7.408  -6.598   0.785  0.00  0.00    +0.097 A 
ATOM      5  C   UNL     1       6.182  -6.104   1.193  0.00  0.00    +0.077 A 
ENDROOT
BRANCH   4   6
ATOM      6  C   UNL     1       8.565  -6.905   1.657  0.00  0.00    +0.003 A 
ATOM      7  C   UNL     1       8.818  -6.124   2.785  0.00  0.00    +0.013 A 
ATOM      8  C   UNL     1       9.897  -6.415   3.594  0.00  0.00    +0.039 A 
ATOM      9  C   UNL     1      10.728  -7.481   3.289  0.00  0.00    +0.123 A 
ATOM     10  C   UNL     1      10.480  -8.259   2.170  0.00  0.00    +0.039 A 
ATOM     11  C   UNL     1       9.401  -7.981   1.357  0.00  0.00    +0.013 A 
ATOM     12  F   UNL     1      11.783  -7.761   4.084  0.00  0.00    -0.205 F 
ENDBRANCH   4   6
BRANCH   5  13
ATOM     13  C   UNL     1       5.771  -5.782   2.574  0.00  0.00    +0.003 A 
ATOM     14  C   UNL     1       5.266  -4.515   2.898  0.00  0.00    +0.030 A 
ATOM     15  C   UNL     1       4.895  -4.258   4.200  0.00  0.00    +0.111 A 
ATOM     16  N   UNL     1       5.010  -5.184   5.134  0.00  0.00    -0.263 NA
ATOM     17  C   UNL     1       5.480  -6.389   4.872  0.00  0.00    +0.111 A 
ATOM     18  C   UNL     1       5.870  -6.735   3.596  0.00  0.00    +0.030 A 
ENDBRANCH   5  13
BRANCH   1  19
ATOM     19  C   UNL     1       4.040  -5.492  -0.019  0.00  0.00    +0.124 C 
BRANCH  19  20
ATOM     20  C   UNL     1       3.079  -6.643   0.286  0.00  0.00    +0.033 C 
BRANCH  20  21
ATOM     21  C   UNL     1       1.636  -6.144   0.180  0.00  0.00    +0.076 C 
BRANCH  21  22
ATOM     22  S   UNL     1       0.497  -7.508   0.541  0.00  0.00    -0.125 S 
BRANCH  22  26
ATOM     23  C   UNL     1      -3.610  -5.644   0.127  0.00  0.00    +0.000 A 
ATOM     24  C   UNL     1      -3.490  -6.980   0.463  0.00  0.00    +0.001 A 
ATOM     25  C   UNL     1      -2.239  -7.552   0.590  0.00  0.00    +0.015 A 
ATOM     26  C   UNL     1      -1.101  -6.783   0.380  0.00  0.00    +0.008 A 
ATOM     27  C   UNL     1      -1.226  -5.441   0.042  0.00  0.00    +0.015 A 
ATOM     28  C   UNL     1      -2.480  -4.876  -0.083  0.00  0.00    +0.001 A 
ENDBRANCH  22  26
ENDBRANCH  21  22
ENDBRANCH  20  21
ENDBRANCH  19  20
ENDBRANCH   1  19
TORSDOF 7
