REMARK  Name = CHEMBL585902
REMARK  8 active torsions:
REMARK  status: ('A' for Active; 'I' for Inactive)
REMARK    1  A    between atoms: C_1  and  N_2
REMARK    2  A    between atoms: C_5  and  C_27
REMARK    3  A    between atoms: C_6  and  C_21
REMARK    4  A    between atoms: N_9  and  C_10
REMARK    5  A    between atoms: C_10  and  C_11
REMARK    6  A    between atoms: C_11  and  C_13
REMARK    7  A    between atoms: C_11  and  N_20
REMARK    8  A    between atoms: C_13  and  C_14
REMARK                            x       y       z     vdW  Elec       q    Type
REMARK                         _______ _______ _______ _____ _____    ______ ____
ROOT
ATOM      1  C   UNL     1      -0.172   1.450  -0.137  0.00  0.00    +0.155 C 
ATOM      2  N   UNL     1      -0.068  -0.010  -0.068  0.00  0.00    -0.284 N 
ATOM      3  C   UNL     1       0.227  -0.716  -1.180  0.00  0.00    +0.263 A 
ATOM      4  O   UNL     1       0.410  -0.151  -2.245  0.00  0.00    -0.267 OA
ATOM      5  C   UNL     1       0.321  -2.126  -1.084  0.00  0.00    +0.073 A 
ATOM      6  C   UNL     1       0.102  -2.724   0.161  0.00  0.00    +0.088 A 
ATOM      7  N   UNL     1      -0.187  -1.958   1.220  0.00  0.00    -0.215 NA
ATOM      8  C   UNL     1      -0.265  -0.648   1.117  0.00  0.00    +0.199 A 
ATOM      9  N   UNL     1      -0.558   0.091   2.232  0.00  0.00    -0.316 N 
ATOM     10  H   UNL     1      -0.623   1.057   2.170  0.00  0.00    +0.149 HD
ENDROOT
BRANCH   5  11
ATOM     11  C   UNL     1       0.641  -2.947  -2.272  0.00  0.00    -0.010 A 
ATOM     12  C   UNL     1       1.859  -3.647  -2.329  0.00  0.00    +0.009 A 
ATOM     13  C   UNL     1       2.177  -4.406  -3.408  0.00  0.00    +0.009 A 
ATOM     14  C   UNL     1       1.282  -4.501  -4.489  0.00  0.00    -0.018 A 
ATOM     15  C   UNL     1       1.587  -5.281  -5.617  0.00  0.00    +0.008 A 
ATOM     16  C   UNL     1       0.701  -5.353  -6.648  0.00  0.00    +0.001 A 
ATOM     17  C   UNL     1      -0.509  -4.664  -6.604  0.00  0.00    +0.001 A 
ATOM     18  C   UNL     1      -0.840  -3.898  -5.529  0.00  0.00    +0.008 A 
ATOM     19  C   UNL     1       0.050  -3.800  -4.444  0.00  0.00    -0.017 A 
ATOM     20  C   UNL     1      -0.263  -3.024  -3.318  0.00  0.00    +0.017 A 
ENDBRANCH   5  11
BRANCH   6  21
ATOM     21  C   UNL     1       0.189  -4.196   0.307  0.00  0.00    +0.004 A 
ATOM     22  C   UNL     1       0.932  -4.772   1.342  0.00  0.00    +0.030 A 
ATOM     23  C   UNL     1       0.986  -6.148   1.441  0.00  0.00    +0.111 A 
ATOM     24  N   UNL     1       0.349  -6.915   0.577  0.00  0.00    -0.263 NA
ATOM     25  C   UNL     1      -0.362  -6.412  -0.413  0.00  0.00    +0.111 A 
ATOM     26  C   UNL     1      -0.474  -5.047  -0.583  0.00  0.00    +0.030 A 
ENDBRANCH   6  21
BRANCH   9  27
ATOM     27  C   UNL     1      -0.774  -0.577   3.518  0.00  0.00    +0.088 C 
BRANCH  27  28
ATOM     28  C   UNL     1      -1.083   0.469   4.591  0.00  0.00    -0.053 C 
BRANCH  28  29
ATOM     29  N   UNL     1      -2.222   1.291   4.159  0.00  0.00    +0.381 N 
ATOM     30  H   UNL     1      -2.425   1.981   4.867  0.00  0.00    -0.090 HD
ATOM     31  H   UNL     1      -1.992   1.755   3.293  0.00  0.00    -0.090 HD
ATOM     32  H   UNL     1      -3.029   0.702   4.022  0.00  0.00    -0.090 HD
ENDBRANCH  28  29
BRANCH  28  33
ATOM     33  C   UNL     1      -1.430  -0.234   5.904  0.00  0.00    +0.020 C 
BRANCH  33  34
ATOM     34  C   UNL     1      -1.615   0.794   6.991  0.00  0.00    -0.049 A 
ATOM     35  C   UNL     1      -0.533   1.195   7.753  0.00  0.00    +0.003 A 
ATOM     36  C   UNL     1      -0.702   2.138   8.750  0.00  0.00    +0.000 A 
ATOM     37  C   UNL     1      -1.952   2.680   8.984  0.00  0.00    +0.000 A 
ATOM     38  C   UNL     1      -3.033   2.280   8.221  0.00  0.00    +0.000 A 
ATOM     39  C   UNL     1      -2.863   1.340   7.221  0.00  0.00    +0.003 A 
ENDBRANCH  33  34
ENDBRANCH  28  33
ENDBRANCH  27  28
ENDBRANCH   9  27
TORSDOF 7
