REMARK  Name = CHEMBL523978
REMARK  11 active torsions:
REMARK  status: ('A' for Active; 'I' for Inactive)
REMARK    1  A    between atoms: C_1  and  C_2
REMARK    2  A    between atoms: C_2  and  C_3
REMARK    3  A    between atoms: C_2  and  C_4
REMARK    4  A    between atoms: C_2  and  C_5
REMARK    5  A    between atoms: C_8  and  O_38
REMARK    6  A    between atoms: C_9  and  N_11
REMARK    7  A    between atoms: N_14  and  C_15
REMARK    8  A    between atoms: C_18  and  C_25
REMARK    9  A    between atoms: C_28  and  C_31
REMARK   10  A    between atoms: C_31  and  N_32
REMARK   11  A    between atoms: O_38  and  C_39
REMARK                            x       y       z     vdW  Elec       q    Type
REMARK                         _______ _______ _______ _____ _____    ______ ____
ROOT
ATOM      1  C   UNL     1       6.495   1.827  -1.293  0.00  0.00    +0.043 A 
ATOM      2  C   UNL     1       5.859   2.275  -0.154  0.00  0.00    +0.024 A 
ATOM      3  C   UNL     1       6.522   3.077   0.764  0.00  0.00    +0.011 A 
ATOM      4  C   UNL     1       7.840   3.448   0.560  0.00  0.00    -0.009 A 
ATOM      5  C   UNL     1       8.519   3.004  -0.600  0.00  0.00    -0.008 A 
ATOM      6  C   UNL     1       7.840   2.181  -1.530  0.00  0.00    +0.004 A 
ATOM      7  C   UNL     1       8.517   1.736  -2.678  0.00  0.00    +0.010 A 
ATOM      8  C   UNL     1       9.815   2.096  -2.877  0.00  0.00    +0.001 A 
ATOM      9  C   UNL     1      10.484   2.901  -1.957  0.00  0.00    +0.001 A 
ATOM     10  C   UNL     1       9.854   3.360  -0.840  0.00  0.00    +0.009 A 
ENDROOT
BRANCH   1  14
ATOM     11  N   UNL     1       4.314  -0.716  -2.636  0.00  0.00    -0.266 N 
ATOM     12  C   UNL     1       4.904   0.127  -1.766  0.00  0.00    +0.308 C 
ATOM     13  O   UNL     1       4.618   0.081  -0.585  0.00  0.00    -0.252 OA
ATOM     14  N   UNL     1       5.812   1.021  -2.205  0.00  0.00    -0.269 N 
ATOM     15  H   UNL     1       4.601  -0.736  -3.562  0.00  0.00    +0.156 HD
ATOM     16  H   UNL     1       5.990   1.105  -3.155  0.00  0.00    +0.156 HD
BRANCH  11  21
ATOM     17  C   UNL     1       1.517  -2.065  -0.663  0.00  0.00    -0.040 A 
ATOM     18  C   UNL     1       1.254  -3.240  -1.343  0.00  0.00    +0.008 A 
ATOM     19  C   UNL     1       2.004  -3.582  -2.453  0.00  0.00    +0.048 A 
ATOM     20  C   UNL     1       3.021  -2.748  -2.887  0.00  0.00    +0.141 A 
ATOM     21  C   UNL     1       3.286  -1.564  -2.202  0.00  0.00    +0.077 A 
ATOM     22  C   UNL     1       2.526  -1.225  -1.092  0.00  0.00    +0.031 A 
BRANCH  17  24
ATOM     23  C   UNL     1      -0.013  -0.365   0.296  0.00  0.00    +0.015 C 
ATOM     24  C   UNL     1       0.696  -1.698   0.547  0.00  0.00    -0.013 C 
ATOM     25  C   UNL     1       1.613  -1.567   1.765  0.00  0.00    +0.015 C 
ATOM     26  C   UNL     1      -0.345  -2.788   0.807  0.00  0.00    +0.015 C 
ENDBRANCH  17  24
BRANCH  20  27
ATOM     27  O   UNL     1       3.760  -3.084  -3.978  0.00  0.00    -0.493 OA
ATOM     28  C   UNL     1       3.432  -4.312  -4.630  0.00  0.00    +0.277 C 
ENDBRANCH  20  27
ENDBRANCH  11  21
ENDBRANCH   1  14
BRANCH   4  29
ATOM     29  C   UNL     1       8.535   4.305   1.548  0.00  0.00    +0.001 A 
ATOM     30  C   UNL     1       7.942   5.487   2.005  0.00  0.00    +0.012 A 
ATOM     31  C   UNL     1       8.633   6.252   2.928  0.00  0.00    +0.025 A 
ATOM     32  C   UNL     1       9.875   5.829   3.365  0.00  0.00    +0.055 A 
ATOM     33  N   UNL     1      10.409   4.710   2.915  0.00  0.00    -0.258 NA
ATOM     34  C   UNL     1       9.788   3.945   2.041  0.00  0.00    +0.119 A 
BRANCH  32  35
ATOM     35  C   UNL     1      10.631   6.660   4.370  0.00  0.00    +0.140 C 
BRANCH  35  36
ATOM     36  N   UNL     1      10.367   6.151   5.722  0.00  0.00    -0.292 NA
ATOM     37  C   UNL     1       8.961   6.355   6.097  0.00  0.00    +0.113 C 
ATOM     38  C   UNL     1       8.717   5.759   7.486  0.00  0.00    +0.175 C 
ATOM     39  O   UNL     1       9.618   6.357   8.421  0.00  0.00    -0.377 OA
ATOM     40  C   UNL     1      10.997   6.178   8.087  0.00  0.00    +0.175 C 
ATOM     41  C   UNL     1      11.264   6.778   6.705  0.00  0.00    +0.113 C 
ENDBRANCH  35  36
ENDBRANCH  32  35
ENDBRANCH   4  29
TORSDOF 7
