REMARK  Name = CHEMBL551189
REMARK  6 active torsions:
REMARK  status: ('A' for Active; 'I' for Inactive)
REMARK    1  A    between atoms: C_1  and  O_2
REMARK    2  A    between atoms: O_2  and  C_3
REMARK    3  A    between atoms: C_6  and  C_10
REMARK    4  A    between atoms: C_11  and  N_27
REMARK    5  A    between atoms: C_12  and  C_17
REMARK    6  A    between atoms: C_17  and  C_19
REMARK                            x       y       z     vdW  Elec       q    Type
REMARK                         _______ _______ _______ _____ _____    ______ ____
ROOT
ATOM      1  C   UNL     1      -5.005  -2.542   0.035  0.00  0.00    +0.119 A 
ATOM      2  C   UNL     1      -5.615  -2.861   1.256  0.00  0.00    +0.064 A 
ATOM      3  C   UNL     1      -6.815  -3.594   1.239  0.00  0.00    +0.047 A 
ATOM      4  C   UNL     1      -7.343  -3.971  -0.005  0.00  0.00    +0.035 A 
ATOM      5  C   UNL     1      -6.676  -3.614  -1.157  0.00  0.00    +0.135 A 
ATOM      6  N   UNL     1      -5.553  -2.921  -1.112  0.00  0.00    -0.137 N 
ATOM      7  O   UNL     1      -4.911  -2.576  -2.326  0.00  0.00    -0.164 OA
ENDROOT
BRANCH   1  11
ATOM      8  C   UNL     1      -1.373  -0.326   0.008  0.00  0.00    +0.126 A 
ATOM      9  C   UNL     1      -2.590   0.340  -0.028  0.00  0.00    +0.084 A 
ATOM     10  C   UNL     1      -3.771  -0.375  -0.019  0.00  0.00    +0.139 A 
ATOM     11  C   UNL     1      -3.740  -1.771   0.025  0.00  0.00    +0.074 A 
ATOM     12  C   UNL     1      -2.513  -2.437   0.060  0.00  0.00    +0.139 A 
ATOM     13  C   UNL     1      -1.336  -1.713   0.046  0.00  0.00    +0.084 A 
ATOM     14  F   UNL     1      -2.477  -3.786   0.104  0.00  0.00    -0.205 F 
ATOM     15  F   UNL     1      -4.956   0.274  -0.053  0.00  0.00    -0.205 F 
BRANCH   8  17
ATOM     16  C   UNL     1      -0.322   1.806  -0.041  0.00  0.00    +0.277 C 
ATOM     17  O   UNL     1      -0.213   0.382  -0.001  0.00  0.00    -0.495 OA
ENDBRANCH   8  17
ENDBRANCH   1  11
BRANCH   2  18
ATOM     18  N   UNL     1      -5.047  -2.462   2.456  0.00  0.00    -0.356 N 
ATOM     19  H   UNL     1      -4.183  -2.022   2.461  0.00  0.00    +0.142 HD
ATOM     20  H   UNL     1      -5.513  -2.624   3.291  0.00  0.00    +0.142 HD
ENDBRANCH   2  18
BRANCH   3  21
ATOM     21  C   UNL     1      -7.499  -3.957   2.494  0.00  0.00    +0.198 C 
ATOM     22  O   UNL     1      -7.436  -5.097   2.913  0.00  0.00    -0.286 OA
BRANCH  21  23
ATOM     23  C   UNL     1      -8.259  -2.937   3.241  0.00  0.00    +0.058 A 
ATOM     24  C   UNL     1      -8.427  -1.656   2.708  0.00  0.00    +0.017 A 
ATOM     25  C   UNL     1      -9.137  -0.708   3.410  0.00  0.00    +0.039 A 
ATOM     26  C   UNL     1      -9.687  -1.020   4.646  0.00  0.00    +0.126 A 
ATOM     27  C   UNL     1      -9.525  -2.287   5.182  0.00  0.00    +0.077 A 
ATOM     28  C   UNL     1      -8.820  -3.250   4.485  0.00  0.00    +0.137 A 
ATOM     29  F   UNL     1      -8.668  -4.488   5.005  0.00  0.00    -0.205 F 
ATOM     30  F   UNL     1     -10.383  -0.085   5.328  0.00  0.00    -0.205 F 
ENDBRANCH  21  23
ENDBRANCH   3  21
TORSDOF 5
