REMARK  Name = CHEMBL118281
REMARK  8 active torsions:
REMARK  status: ('A' for Active; 'I' for Inactive)
REMARK    1  A    between atoms: C_1  and  C_2
REMARK    2  A    between atoms: C_2  and  C_4
REMARK    3  A    between atoms: C_2  and  N_10
REMARK    4  A    between atoms: C_15  and  N_17
REMARK    5  A    between atoms: C_19  and  C_29
REMARK    6  A    between atoms: C_21  and  C_22
REMARK    7  A    between atoms: C_29  and  O_36
REMARK    8  A    between atoms: N_32  and  C_35
REMARK                            x       y       z     vdW  Elec       q    Type
REMARK                         _______ _______ _______ _____ _____    ______ ____
ROOT
ATOM      1  N   UNL     1       0.769  -1.673   5.735  0.00  0.00    -0.283 N 
ATOM      2  C   UNL     1       0.278  -1.795   7.011  0.00  0.00    +0.121 A 
ATOM      3  C   UNL     1       1.275  -2.287   7.772  0.00  0.00    +0.091 A 
ATOM      4  N   UNL     1       2.352  -2.466   6.998  0.00  0.00    -0.229 NA
ATOM      5  C   UNL     1       2.067  -2.107   5.766  0.00  0.00    +0.147 A 
ENDROOT
BRANCH   1  11
ATOM      6  N   UNL     1      -0.734  -2.293   1.327  0.00  0.00    -0.307 N 
ATOM      7  C   UNL     1      -0.664  -1.498   2.458  0.00  0.00    +0.217 A 
ATOM      8  N   UNL     1      -1.256  -0.312   2.452  0.00  0.00    -0.223 NA
ATOM      9  C   UNL     1      -1.210   0.476   3.515  0.00  0.00    +0.118 A 
ATOM     10  C   UNL     1      -0.535   0.050   4.644  0.00  0.00    +0.066 A 
ATOM     11  C   UNL     1       0.077  -1.202   4.620  0.00  0.00    +0.144 A 
ATOM     12  N   UNL     1      -0.013  -1.943   3.521  0.00  0.00    -0.197 NA
ATOM     13  H   UNL     1      -0.309  -3.164   1.320  0.00  0.00    +0.149 HD
BRANCH   6  15
ATOM     14  C   UNL     1      -0.517  -0.950  -0.706  0.00  0.00    +0.033 C 
ATOM     15  C   UNL     1      -1.451  -1.817   0.141  0.00  0.00    +0.100 C 
BRANCH  15  16
ATOM     16  C   UNL     1      -1.914  -2.998  -0.673  0.00  0.00    -0.027 A 
ATOM     17  C   UNL     1      -1.092  -4.100  -0.823  0.00  0.00    +0.005 A 
ATOM     18  C   UNL     1      -1.517  -5.183  -1.569  0.00  0.00    +0.000 A 
ATOM     19  C   UNL     1      -2.764  -5.165  -2.165  0.00  0.00    +0.000 A 
ATOM     20  C   UNL     1      -3.587  -4.064  -2.014  0.00  0.00    +0.000 A 
ATOM     21  C   UNL     1      -3.163  -2.983  -1.264  0.00  0.00    +0.005 A 
ENDBRANCH  15  16
ENDBRANCH   6  15
ENDBRANCH   1  11
BRANCH   3  22
ATOM     22  C   UNL     1       1.191  -2.585   9.247  0.00  0.00    +0.106 C 
ATOM     23  C   UNL     1       0.864  -1.300  10.012  0.00  0.00    +0.022 C 
ATOM     24  C   UNL     1       0.859  -1.593  11.514  0.00  0.00    -0.076 C 
ATOM     25  N   UNL     1       2.180  -2.086  11.924  0.00  0.00    +0.378 N 
ATOM     26  C   UNL     1       2.470  -3.356  11.248  0.00  0.00    -0.076 C 
ATOM     27  C   UNL     1       2.536  -3.130   9.736  0.00  0.00    +0.022 C 
ATOM     28  C   UNL     1       2.194  -2.292  13.378  0.00  0.00    -0.096 C 
ATOM     29  H   UNL     1       2.883  -1.406  11.676  0.00  0.00    -0.082 HD
BRANCH  22  30
ATOM     30  O   UNL     1       0.169  -3.556   9.481  0.00  0.00    -0.383 OA
ATOM     31  H   UNL     1      -0.712  -3.275   9.197  0.00  0.00    +0.211 HD
ENDBRANCH  22  30
ENDBRANCH   3  22
BRANCH   5  32
ATOM     32  C   UNL     1       2.990  -2.159   4.613  0.00  0.00    +0.018 A 
ATOM     33  C   UNL     1       2.736  -1.391   3.476  0.00  0.00    +0.014 A 
ATOM     34  C   UNL     1       3.600  -1.444   2.403  0.00  0.00    +0.039 A 
ATOM     35  C   UNL     1       4.720  -2.259   2.452  0.00  0.00    +0.123 A 
ATOM     36  C   UNL     1       4.977  -3.024   3.578  0.00  0.00    +0.039 A 
ATOM     37  C   UNL     1       4.122  -2.974   4.659  0.00  0.00    +0.014 A 
ATOM     38  F   UNL     1       5.563  -2.307   1.397  0.00  0.00    -0.205 F 
ENDBRANCH   5  32
TORSDOF 6
