REMARK  Name = CHEMBL1208830
REMARK  15 active torsions:
REMARK  status: ('A' for Active; 'I' for Inactive)
REMARK    1  A    between atoms: C_1  and  C_2
REMARK    2  A    between atoms: C_2  and  C_3
REMARK    3  A    between atoms: C_2  and  C_4
REMARK    4  A    between atoms: C_2  and  C_5
REMARK    5  A    between atoms: C_7  and  C_37
REMARK    6  A    between atoms: C_8  and  O_35
REMARK    7  A    between atoms: C_9  and  N_11
REMARK    8  A    between atoms: C_12  and  C_14
REMARK    9  A    between atoms: C_14  and  C_16
REMARK   10  A    between atoms: C_19  and  O_26
REMARK   11  A    between atoms: O_26  and  C_27
REMARK   12  A    between atoms: C_27  and  C_28
REMARK   13  A    between atoms: C_28  and  N_29
REMARK   14  A    between atoms: O_35  and  C_36
REMARK   15  A    between atoms: N_39  and  C_40
REMARK                            x       y       z     vdW  Elec       q    Type
REMARK                         _______ _______ _______ _____ _____    ______ ____
ROOT
ATOM      1  N   UNL     1       1.853   0.822  -3.844  0.00  0.00    -0.276 N 
ATOM      2  C   UNL     1       1.696   2.153  -3.701  0.00  0.00    +0.289 C 
ATOM      3  O   UNL     1       1.276   2.607  -2.656  0.00  0.00    -0.266 OA
ATOM      4  H   UNL     1       2.256   0.465  -4.651  0.00  0.00    +0.155 HD
ENDROOT
BRANCH   1   9
ATOM      5  C   UNL     1       1.126  -0.509  -0.490  0.00  0.00    -0.039 A 
ATOM      6  C   UNL     1       0.613  -1.752  -0.792  0.00  0.00    +0.021 A 
ATOM      7  C   UNL     1       0.505  -2.159  -2.125  0.00  0.00    +0.080 A 
ATOM      8  C   UNL     1       0.919  -1.298  -3.149  0.00  0.00    +0.153 A 
ATOM      9  C   UNL     1       1.436  -0.044  -2.828  0.00  0.00    +0.077 A 
ATOM     10  C   UNL     1       1.532   0.346  -1.500  0.00  0.00    +0.031 A 
BRANCH   5  12
ATOM     11  C   UNL     1       1.829   1.335   1.012  0.00  0.00    +0.015 C 
ATOM     12  C   UNL     1       1.241  -0.076   0.949  0.00  0.00    -0.013 C 
ATOM     13  C   UNL     1       2.156  -1.044   1.702  0.00  0.00    +0.015 C 
ATOM     14  C   UNL     1      -0.146  -0.079   1.595  0.00  0.00    +0.015 C 
ENDBRANCH   5  12
BRANCH   7  15
ATOM     15  C   UNL     1      -0.044  -3.489  -2.452  0.00  0.00    +0.248 C 
ATOM     16  O   UNL     1      -0.137  -3.840  -3.612  0.00  0.00    -0.270 OA
ATOM     17  N   UNL     1      -0.442  -4.315  -1.464  0.00  0.00    -0.308 N 
ATOM     18  H   UNL     1      -0.367  -4.035  -0.538  0.00  0.00    +0.149 HD
BRANCH  17  19
ATOM     19  C   UNL     1      -0.986  -5.636  -1.789  0.00  0.00    +0.073 C 
ATOM     20  C   UNL     1      -2.234  -6.091  -1.030  0.00  0.00    +0.024 C 
ATOM     21  C   UNL     1      -0.876  -6.727  -0.722  0.00  0.00    +0.024 C 
ENDBRANCH  17  19
ENDBRANCH   7  15
BRANCH   8  22
ATOM     22  O   UNL     1       0.819  -1.683  -4.446  0.00  0.00    -0.492 OA
ATOM     23  C   UNL     1      -0.400  -1.370  -5.123  0.00  0.00    +0.277 C 
ENDBRANCH   8  22
ENDBRANCH   1   9
BRANCH   2  24
ATOM     24  C   UNL     1       2.037   3.068  -4.827  0.00  0.00    +0.248 C 
ATOM     25  O   UNL     1       2.368   2.611  -5.903  0.00  0.00    -0.282 OA
BRANCH  24  26
ATOM     26  C   UNL     1       1.975   4.519  -4.635  0.00  0.00    +0.035 A 
ATOM     27  C   UNL     1       1.475   5.058  -3.447  0.00  0.00    +0.016 A 
ATOM     28  C   UNL     1       1.416   6.426  -3.266  0.00  0.00    +0.047 A 
ATOM     29  C   UNL     1       1.845   7.306  -4.241  0.00  0.00    +0.128 A 
ATOM     30  C   UNL     1       2.361   6.824  -5.464  0.00  0.00    +0.024 A 
ATOM     31  C   UNL     1       2.442   5.429  -5.683  0.00  0.00    -0.003 A 
ATOM     32  C   UNL     1       2.957   4.948  -6.890  0.00  0.00    +0.009 A 
ATOM     33  C   UNL     1       3.382   5.829  -7.842  0.00  0.00    +0.001 A 
ATOM     34  C   UNL     1       3.310   7.202  -7.627  0.00  0.00    +0.001 A 
ATOM     35  C   UNL     1       2.800   7.703  -6.466  0.00  0.00    +0.012 A 
BRANCH  29  36
ATOM     36  O   UNL     1       1.769   8.640  -4.023  0.00  0.00    -0.493 OA
BRANCH  36  37
ATOM     37  C   UNL     1       1.237   9.063  -2.766  0.00  0.00    +0.210 C 
BRANCH  37  38
ATOM     38  C   UNL     1       1.230  10.591  -2.702  0.00  0.00    -0.037 C 
BRANCH  38  39
ATOM     39  N   UNL     1       0.305  11.119  -3.714  0.00  0.00    +0.385 N 
ATOM     40  C   UNL     1       0.405  12.585  -3.752  0.00  0.00    -0.050 C 
ATOM     41  C   UNL     1      -0.559  13.133  -4.807  0.00  0.00    +0.141 C 
ATOM     42  O   UNL     1      -1.889  12.704  -4.498  0.00  0.00    -0.383 OA
ATOM     43  C   UNL     1      -2.032  11.283  -4.426  0.00  0.00    +0.141 C 
ATOM     44  C   UNL     1      -1.070  10.732  -3.370  0.00  0.00    -0.050 C 
ATOM     45  H   UNL     1       0.545  10.742  -4.619  0.00  0.00    -0.081 HD
ENDBRANCH  38  39
ENDBRANCH  37  38
ENDBRANCH  36  37
ENDBRANCH  29  36
ENDBRANCH  24  26
ENDBRANCH   2  24
TORSDOF 11
