REMARK  Name = CHEMBL377165
REMARK  4 active torsions:
REMARK  status: ('A' for Active; 'I' for Inactive)
REMARK    1  A    between atoms: C_4  and  C_7
REMARK    2  A    between atoms: C_7  and  C_8
REMARK    3  A    between atoms: C_14  and  C_17
REMARK    4  A    between atoms: C_18  and  C_22
REMARK                            x       y       z     vdW  Elec       q    Type
REMARK                         _______ _______ _______ _____ _____    ______ ____
ROOT
ATOM      1  C   UNL     1       3.768  -0.815   1.242  0.00  0.00    +0.142 A 
ATOM      2  N   UNL     1       4.515   0.017   1.921  0.00  0.00    -0.133 NA
ATOM      3  N   UNL     1       4.828  -0.492   3.061  0.00  0.00    -0.129 NA
ATOM      4  C   UNL     1       4.289  -1.696   3.170  0.00  0.00    +0.161 A 
ATOM      5  N   UNL     1       3.594  -1.927   2.009  0.00  0.00    -0.285 N 
ATOM      6  C   UNL     1       2.919  -3.096   1.826  0.00  0.00    +0.106 A 
ATOM      7  C   UNL     1       2.923  -4.054   2.797  0.00  0.00    +0.036 A 
ATOM      8  C   UNL     1       3.631  -3.835   4.006  0.00  0.00    +0.017 A 
ATOM      9  C   UNL     1       4.310  -2.674   4.185  0.00  0.00    +0.049 A 
ENDROOT
BRANCH   7  10
ATOM     10  C   UNL     1       2.188  -5.317   2.591  0.00  0.00    +0.164 A 
ATOM     11  C   UNL     1       1.179  -5.825   3.382  0.00  0.00    +0.117 A 
ATOM     12  N   UNL     1       0.794  -6.995   2.830  0.00  0.00    -0.216 NA
ATOM     13  C   UNL     1       1.509  -7.214   1.765  0.00  0.00    +0.309 A 
ATOM     14  O   UNL     1       2.369  -6.202   1.586  0.00  0.00    -0.442 OA
BRANCH  11  15
ATOM     15  C   UNL     1       0.623  -5.204   4.607  0.00  0.00    +0.004 A 
ATOM     16  C   UNL     1       0.384  -3.830   4.648  0.00  0.00    +0.013 A 
ATOM     17  C   UNL     1      -0.135  -3.256   5.790  0.00  0.00    +0.039 A 
ATOM     18  C   UNL     1      -0.417  -4.042   6.896  0.00  0.00    +0.123 A 
ATOM     19  C   UNL     1      -0.181  -5.407   6.861  0.00  0.00    +0.039 A 
ATOM     20  C   UNL     1       0.332  -5.991   5.721  0.00  0.00    +0.013 A 
ATOM     21  F   UNL     1      -0.924  -3.475   8.013  0.00  0.00    -0.205 F 
ENDBRANCH  11  15
ENDBRANCH   7  10
BRANCH   1  22
ATOM     22  C   UNL     1       3.200  -0.584  -0.134  0.00  0.00    +0.111 C 
BRANCH  22  26
ATOM     23  C   UNL     1      -0.629   1.281   0.199  0.00  0.00    +0.000 A 
ATOM     24  C   UNL     1       0.512   2.056   0.112  0.00  0.00    +0.000 A 
ATOM     25  C   UNL     1       1.752   1.453   0.004  0.00  0.00    +0.004 A 
ATOM     26  C   UNL     1       1.849   0.074  -0.016  0.00  0.00    -0.040 A 
ATOM     27  C   UNL     1       0.709  -0.701   0.072  0.00  0.00    +0.004 A 
ATOM     28  C   UNL     1      -0.531  -0.098   0.178  0.00  0.00    +0.000 A 
ENDBRANCH  22  26
ENDBRANCH   1  22
TORSDOF 4
