REMARK  Name = CHEMBL302728
REMARK  3 active torsions:
REMARK  status: ('A' for Active; 'I' for Inactive)
REMARK    1  A    between atoms: C_4  and  C_7
REMARK    2  A    between atoms: C_8  and  C_19
REMARK    3  A    between atoms: C_11  and  C_13
REMARK                            x       y       z     vdW  Elec       q    Type
REMARK                         _______ _______ _______ _____ _____    ______ ____
ROOT
ATOM      1  C   UNL     1       3.698  -0.687  -0.037  0.00  0.00    +0.099 A 
ATOM      2  C   UNL     1       3.971  -1.892   0.591  0.00  0.00    +0.093 A 
ATOM      3  N   UNL     1       5.287  -2.186   0.311  0.00  0.00    -0.336 N 
ATOM      4  H   UNL     1       5.779  -2.967   0.609  0.00  0.00    +0.167 HD
ATOM      5  C   UNL     1       5.769  -1.173  -0.464  0.00  0.00    +0.139 A 
ATOM      6  N   UNL     1       4.814  -0.293  -0.668  0.00  0.00    -0.227 NA
ENDROOT
BRANCH   2   7
ATOM      7  C   UNL     1       3.039  -2.699   1.398  0.00  0.00    +0.094 A 
ATOM      8  C   UNL     1       3.234  -4.079   1.545  0.00  0.00    +0.050 A 
ATOM      9  C   UNL     1       2.333  -4.793   2.312  0.00  0.00    +0.116 A 
ATOM     10  N   UNL     1       1.320  -4.157   2.882  0.00  0.00    -0.223 NA
ATOM     11  C   UNL     1       1.158  -2.851   2.728  0.00  0.00    +0.213 A 
ATOM     12  N   UNL     1       1.998  -2.126   2.007  0.00  0.00    -0.213 NA
ATOM     13  N   UNL     1       0.086  -2.228   3.342  0.00  0.00    -0.327 N 
ATOM     14  H   UNL     1      -0.536  -2.746   3.876  0.00  0.00    +0.145 HD
ATOM     15  H   UNL     1      -0.045  -1.272   3.237  0.00  0.00    +0.145 HD
ENDBRANCH   2   7
BRANCH   1  19
ATOM     16  C   UNL     1      -0.017   1.379   0.010  0.00  0.00    +0.000 A 
ATOM     17  C   UNL     1       1.169   2.093   0.002  0.00  0.00    +0.001 A 
ATOM     18  C   UNL     1       2.377   1.427  -0.013  0.00  0.00    +0.010 A 
ATOM     19  C   UNL     1       2.403   0.033  -0.021  0.00  0.00    +0.003 A 
ATOM     20  C   UNL     1       1.205  -0.680  -0.013  0.00  0.00    +0.010 A 
ATOM     21  C   UNL     1       0.002  -0.004   0.002  0.00  0.00    +0.001 A 
ENDBRANCH   1  19
BRANCH   5  22
ATOM     22  C   UNL     1       7.145  -1.081  -0.996  0.00  0.00    +0.017 A 
ATOM     23  C   UNL     1       8.072  -2.088  -0.719  0.00  0.00    +0.011 A 
ATOM     24  C   UNL     1       9.355  -1.996  -1.218  0.00  0.00    +0.001 A 
ATOM     25  C   UNL     1       9.724  -0.909  -1.991  0.00  0.00    +0.000 A 
ATOM     26  C   UNL     1       8.810   0.092  -2.268  0.00  0.00    +0.001 A 
ATOM     27  C   UNL     1       7.522   0.009  -1.781  0.00  0.00    +0.011 A 
ENDBRANCH   5  22
TORSDOF 3
