REMARK  Name = CHEMBL195942
REMARK  6 active torsions:
REMARK  status: ('A' for Active; 'I' for Inactive)
REMARK    1  A    between atoms: C_1  and  C_2
REMARK    2  A    between atoms: C_6  and  C_8
REMARK    3  A    between atoms: C_9  and  C_23
REMARK    4  A    between atoms: C_11  and  C_13
REMARK    5  A    between atoms: C_16  and  S_19
REMARK    6  A    between atoms: S_19  and  C_22
REMARK                            x       y       z     vdW  Elec       q    Type
REMARK                         _______ _______ _______ _____ _____    ______ ____
ROOT
ATOM      1  C   UNL     1       0.082  -2.868   2.448  0.00  0.00    +0.087 A 
ATOM      2  C   UNL     1      -0.701  -4.012   2.608  0.00  0.00    +0.047 A 
ATOM      3  S   UNL     1      -0.333  -4.426   4.309  0.00  0.00    -0.067 S 
ATOM      4  C   UNL     1       0.792  -3.076   4.631  0.00  0.00    +0.109 A 
ATOM      5  N   UNL     1       0.802  -2.446   3.466  0.00  0.00    -0.238 NA
ENDROOT
BRANCH   1  11
ATOM      6  C   UNL     1       2.632  -0.499  -1.130  0.00  0.00    +0.044 C 
ATOM      7  C   UNL     1       1.328  -1.004  -0.567  0.00  0.00    -0.050 A 
ATOM      8  C   UNL     1       0.149  -0.791  -1.260  0.00  0.00    +0.003 A 
ATOM      9  C   UNL     1      -1.051  -1.251  -0.750  0.00  0.00    +0.001 A 
ATOM     10  C   UNL     1      -1.080  -1.925   0.454  0.00  0.00    +0.010 A 
ATOM     11  C   UNL     1       0.105  -2.144   1.156  0.00  0.00    +0.002 A 
ATOM     12  C   UNL     1       1.314  -1.682   0.634  0.00  0.00    +0.013 A 
ENDBRANCH   1  11
BRANCH   4  13
ATOM     13  C   UNL     1       1.524  -2.749   5.873  0.00  0.00    +0.007 A 
ATOM     14  C   UNL     1       2.360  -1.632   5.920  0.00  0.00    +0.012 A 
ATOM     15  C   UNL     1       3.041  -1.333   7.083  0.00  0.00    +0.027 A 
ATOM     16  C   UNL     1       2.896  -2.136   8.199  0.00  0.00    +0.088 A 
ATOM     17  C   UNL     1       2.068  -3.245   8.159  0.00  0.00    +0.027 A 
ATOM     18  C   UNL     1       1.379  -3.553   7.005  0.00  0.00    +0.012 A 
BRANCH  16  19
ATOM     19  S   UNL     1       3.768  -1.747   9.680  0.00  0.00    -0.006 S 
ATOM     20  O   UNL     1       3.911  -2.990  10.354  0.00  0.00    -0.170 OA
ATOM     21  O   UNL     1       4.912  -1.022   9.247  0.00  0.00    -0.170 OA
ATOM     22  C   UNL     1       2.652  -0.658  10.606  0.00  0.00    +0.200 C 
ENDBRANCH  16  19
ENDBRANCH   4  13
BRANCH   2  23
ATOM     23  C   UNL     1      -1.585  -4.691   1.643  0.00  0.00    -0.006 A 
ATOM     24  C   UNL     1      -1.146  -4.982   0.344  0.00  0.00    +0.029 A 
ATOM     25  C   UNL     1      -2.006  -5.618  -0.525  0.00  0.00    +0.111 A 
ATOM     26  N   UNL     1      -3.227  -5.951  -0.149  0.00  0.00    -0.263 NA
ATOM     27  C   UNL     1      -3.681  -5.696   1.064  0.00  0.00    +0.111 A 
ATOM     28  C   UNL     1      -2.887  -5.069   2.000  0.00  0.00    +0.029 A 
ENDBRANCH   2  23
TORSDOF 4
