REMARK  Name = CHEMBL520564
REMARK  5 active torsions:
REMARK  status: ('A' for Active; 'I' for Inactive)
REMARK    1  A    between atoms: C_1  and  C_2
REMARK    2  A    between atoms: C_2  and  O_3
REMARK    3  A    between atoms: O_3  and  C_4
REMARK    4  A    between atoms: C_11  and  C_19
REMARK    5  A    between atoms: C_12  and  C_13
REMARK                            x       y       z     vdW  Elec       q    Type
REMARK                         _______ _______ _______ _____ _____    ______ ____
ROOT
ATOM      1  C   UNL     1       0.776  -1.806  -1.336  0.00  0.00    +0.216 A 
ATOM      2  C   UNL     1       0.251  -2.641  -0.401  0.00  0.00    +0.067 A 
ATOM      3  C   UNL     1       0.352  -4.029  -0.556  0.00  0.00    +0.007 A 
ATOM      4  C   UNL     1       0.983  -4.539  -1.653  0.00  0.00    +0.029 A 
ATOM      5  C   UNL     1       1.520  -3.662  -2.608  0.00  0.00    +0.079 A 
ATOM      6  N   UNL     1       1.406  -2.307  -2.440  0.00  0.00    -0.199 N 
ATOM      7  N   UNL     1       2.017  -1.683  -3.534  0.00  0.00    -0.163 NA
ATOM      8  C   UNL     1       2.489  -2.603  -4.353  0.00  0.00    +0.102 A 
ATOM      9  C   UNL     1       2.209  -3.873  -3.811  0.00  0.00    +0.035 A 
ENDROOT
BRANCH   8  10
ATOM     10  C   UNL     1       3.206  -2.343  -5.625  0.00  0.00    +0.003 A 
ATOM     11  C   UNL     1       4.234  -3.191  -6.034  0.00  0.00    +0.013 A 
ATOM     12  C   UNL     1       4.897  -2.946  -7.219  0.00  0.00    +0.039 A 
ATOM     13  C   UNL     1       4.543  -1.860  -8.002  0.00  0.00    +0.123 A 
ATOM     14  C   UNL     1       3.522  -1.014  -7.599  0.00  0.00    +0.039 A 
ATOM     15  C   UNL     1       2.849  -1.254  -6.419  0.00  0.00    +0.013 A 
ATOM     16  F   UNL     1       5.195  -1.624  -9.161  0.00  0.00    -0.205 F 
ENDBRANCH   8  10
BRANCH   9  17
ATOM     17  C   UNL     1       2.561  -5.179  -4.404  0.00  0.00    -0.011 A 
ATOM     18  C   UNL     1       3.453  -6.046  -3.760  0.00  0.00    +0.028 A 
ATOM     19  C   UNL     1       3.753  -7.255  -4.349  0.00  0.00    +0.111 A 
ATOM     20  N   UNL     1       3.213  -7.599  -5.504  0.00  0.00    -0.263 NA
ATOM     21  C   UNL     1       2.368  -6.812  -6.144  0.00  0.00    +0.111 A 
ATOM     22  C   UNL     1       2.008  -5.588  -5.625  0.00  0.00    +0.028 A 
ENDBRANCH   9  17
BRANCH   1  23
ATOM     23  O   UNL     1       0.671  -0.465  -1.174  0.00  0.00    -0.477 OA
BRANCH  23  25
ATOM     24  C   UNL     1      -0.019   1.526   0.010  0.00  0.00    +0.048 C 
ATOM     25  C   UNL     1       0.002  -0.004   0.002  0.00  0.00    +0.227 C 
ENDBRANCH  23  25
ENDBRANCH   1  23
TORSDOF 4
