REMARK  Name = CHEMBL492296
REMARK  7 active torsions:
REMARK  status: ('A' for Active; 'I' for Inactive)
REMARK    1  A    between atoms: C_6  and  C_7
REMARK    2  A    between atoms: C_8  and  C_17
REMARK    3  A    between atoms: C_11  and  S_13
REMARK    4  A    between atoms: S_13  and  C_14
REMARK    5  A    between atoms: C_14  and  C_15
REMARK    6  A    between atoms: C_15  and  O_16
REMARK    7  A    between atoms: N_23  and  C_24
REMARK                            x       y       z     vdW  Elec       q    Type
REMARK                         _______ _______ _______ _____ _____    ______ ____
ROOT
ATOM      1  C   UNL     1      -1.269  -0.764   0.011  0.00  0.00    +0.098 A 
ATOM      2  C   UNL     1      -1.504  -1.967  -0.629  0.00  0.00    +0.075 A 
ATOM      3  N   UNL     1      -2.817  -2.305  -0.350  0.00  0.00    -0.332 N 
ATOM      4  H   UNL     1      -3.285  -3.097  -0.656  0.00  0.00    +0.168 HD
ATOM      5  C   UNL     1      -3.328  -1.317   0.434  0.00  0.00    +0.167 A 
ATOM      6  N   UNL     1      -2.401  -0.412   0.648  0.00  0.00    -0.221 NA
ENDROOT
BRANCH   2   7
ATOM      7  C   UNL     1      -0.548  -2.735  -1.446  0.00  0.00    +0.005 A 
ATOM      8  C   UNL     1       0.264  -2.097  -2.398  0.00  0.00    +0.030 A 
ATOM      9  C   UNL     1       1.144  -2.850  -3.140  0.00  0.00    +0.113 A 
ATOM     10  N   UNL     1       1.235  -4.157  -2.970  0.00  0.00    -0.240 NA
ATOM     11  C   UNL     1       0.491  -4.803  -2.084  0.00  0.00    +0.119 A 
ATOM     12  C   UNL     1      -0.419  -4.120  -1.290  0.00  0.00    +0.053 A 
ATOM     13  N   UNL     1       0.626  -6.180  -1.945  0.00  0.00    -0.326 N 
ATOM     14  H   UNL     1       1.264  -6.662  -2.495  0.00  0.00    +0.148 HD
BRANCH  13  15
ATOM     15  C   UNL     1      -0.193  -6.902  -0.968  0.00  0.00    +0.076 C 
ATOM     16  C   UNL     1       0.486  -6.855   0.404  0.00  0.00    +0.050 C 
ATOM     17  C   UNL     1      -0.336  -7.678   1.400  0.00  0.00    +0.161 C 
ATOM     18  O   UNL     1      -0.460  -9.018   0.920  0.00  0.00    -0.380 OA
ATOM     19  C   UNL     1      -1.130  -9.128  -0.338  0.00  0.00    +0.161 C 
ATOM     20  C   UNL     1      -0.340  -8.363  -1.403  0.00  0.00    +0.050 C 
ENDBRANCH  13  15
ENDBRANCH   2   7
BRANCH   1  26
ATOM     21  C   UNL     1      -0.017   1.391   0.010  0.00  0.00    +0.013 A 
ATOM     22  C   UNL     1       1.170   2.094   0.002  0.00  0.00    +0.039 A 
ATOM     23  C   UNL     1       2.379   1.418  -0.013  0.00  0.00    +0.123 A 
ATOM     24  C   UNL     1       2.403   0.032  -0.021  0.00  0.00    +0.039 A 
ATOM     25  C   UNL     1       1.222  -0.680  -0.014  0.00  0.00    +0.013 A 
ATOM     26  C   UNL     1       0.002  -0.004   0.002  0.00  0.00    +0.003 A 
ATOM     27  F   UNL     1       3.538   2.111  -0.020  0.00  0.00    -0.205 F 
ENDBRANCH   1  26
BRANCH   5  28
ATOM     28  S   UNL     1      -4.970  -1.265   1.070  0.00  0.00    -0.086 S 
BRANCH  28  29
ATOM     29  C   UNL     1      -5.024   0.278   2.022  0.00  0.00    +0.105 C 
BRANCH  29  30
ATOM     30  C   UNL     1      -6.414   0.450   2.638  0.00  0.00    +0.167 C 
BRANCH  30  31
ATOM     31  O   UNL     1      -6.457   1.665   3.387  0.00  0.00    -0.394 OA
ATOM     32  H   UNL     1      -7.311   1.839   3.807  0.00  0.00    +0.209 HD
ENDBRANCH  30  31
ENDBRANCH  29  30
ENDBRANCH  28  29
ENDBRANCH   5  28
TORSDOF 7
