REMARK  Name = CHEMBL199136
REMARK  4 active torsions:
REMARK  status: ('A' for Active; 'I' for Inactive)
REMARK    1  A    between atoms: C_5  and  N_7
REMARK    2  A    between atoms: N_7  and  C_8
REMARK    3  A    between atoms: C_17  and  C_18
REMARK    4  A    between atoms: C_22  and  C_24
REMARK                            x       y       z     vdW  Elec       q    Type
REMARK                         _______ _______ _______ _____ _____    ______ ____
ROOT
ATOM      1  C   UNL     1       0.091  -2.874   0.035  0.00  0.00    +0.033 A 
ATOM      2  C   UNL     1      -1.170  -2.274   0.019  0.00  0.00    +0.024 A 
ATOM      3  C   UNL     1      -2.300  -3.036   0.074  0.00  0.00    +0.014 A 
ATOM      4  C   UNL     1      -2.199  -4.428   0.147  0.00  0.00    +0.027 A 
ATOM      5  C   UNL     1      -0.932  -5.040   0.163  0.00  0.00    +0.068 A 
ATOM      6  C   UNL     1       0.212  -4.250   0.101  0.00  0.00    +0.051 A 
ATOM      7  N   UNL     1      -1.144  -6.394   0.238  0.00  0.00    -0.276 N 
ATOM      8  N   UNL     1      -2.519  -6.645   0.269  0.00  0.00    -0.173 NA
ATOM      9  H   UNL     1      -0.449  -7.070   0.265  0.00  0.00    +0.189 HD
ATOM     10  C   UNL     1      -3.182  -5.515   0.217  0.00  0.00    +0.100 A 
ENDROOT
BRANCH  10  11
ATOM     11  C   UNL     1      -4.656  -5.363   0.228  0.00  0.00    +0.003 A 
ATOM     12  C   UNL     1      -5.242  -4.269   0.866  0.00  0.00    +0.010 A 
ATOM     13  C   UNL     1      -6.615  -4.126   0.878  0.00  0.00    +0.001 A 
ATOM     14  C   UNL     1      -7.418  -5.063   0.259  0.00  0.00    +0.013 A 
ATOM     15  C   UNL     1      -6.845  -6.162  -0.384  0.00  0.00    +0.037 A 
ATOM     16  C   UNL     1      -5.459  -6.308  -0.404  0.00  0.00    +0.023 A 
BRANCH  15  17
ATOM     17  C   UNL     1      -7.706  -7.165  -1.046  0.00  0.00    +0.242 C 
ATOM     18  O   UNL     1      -7.205  -8.121  -1.605  0.00  0.00    -0.270 OA
ATOM     19  N   UNL     1      -9.046  -7.019  -1.030  0.00  0.00    -0.325 N 
ATOM     20  H   UNL     1      -9.445  -6.256  -0.584  0.00  0.00    +0.145 HD
ATOM     21  H   UNL     1      -9.610  -7.678  -1.465  0.00  0.00    +0.145 HD
ENDBRANCH  15  17
ENDBRANCH  10  11
BRANCH   1  22
ATOM     22  N   UNL     1       1.238  -2.078  -0.022  0.00  0.00    -0.313 N 
ATOM     23  H   UNL     1       1.982  -2.340  -0.587  0.00  0.00    +0.152 HD
BRANCH  22  28
ATOM     24  C   UNL     1       0.398   0.551   2.405  0.00  0.00    +0.002 A 
ATOM     25  C   UNL     1       1.461   1.418   2.230  0.00  0.00    +0.002 A 
ATOM     26  C   UNL     1       2.451   1.127   1.310  0.00  0.00    +0.022 A 
ATOM     27  C   UNL     1       2.380  -0.032   0.560  0.00  0.00    +0.062 A 
ATOM     28  C   UNL     1       1.313  -0.905   0.734  0.00  0.00    +0.050 A 
ATOM     29  C   UNL     1       0.321  -0.609   1.660  0.00  0.00    +0.025 A 
ATOM     30 CL   UNL     1       3.622  -0.396  -0.597  0.00  0.00    -0.082 Cl
ENDBRANCH  22  28
ENDBRANCH   1  22
TORSDOF 4
