REMARK  Name = CHEMBL91730
REMARK  4 active torsions:
REMARK  status: ('A' for Active; 'I' for Inactive)
REMARK    1  A    between atoms: C_6  and  C_7
REMARK    2  A    between atoms: C_8  and  C_20
REMARK    3  A    between atoms: N_10  and  C_13
REMARK    4  A    between atoms: C_11  and  O_12
REMARK                            x       y       z     vdW  Elec       q    Type
REMARK                         _______ _______ _______ _____ _____    ______ ____
ROOT
ATOM      1  C   UNL     1      -1.305  -0.711   0.049  0.00  0.00    +0.071 A 
ATOM      2  C   UNL     1      -1.691  -1.688   1.002  0.00  0.00    +0.105 A 
ATOM      3  N   UNL     1      -2.840  -2.201   0.618  0.00  0.00    -0.163 NA
ATOM      4  N   UNL     1      -3.232  -1.587  -0.577  0.00  0.00    -0.199 N 
ATOM      5  C   UNL     1      -2.288  -0.669  -0.917  0.00  0.00    +0.224 A 
ENDROOT
BRANCH   1  11
ATOM      6  C   UNL     1      -0.166   1.495   0.276  0.00  0.00    +0.011 A 
ATOM      7  C   UNL     1       0.981   2.261   0.311  0.00  0.00    +0.039 A 
ATOM      8  C   UNL     1       2.221   1.663   0.161  0.00  0.00    +0.123 A 
ATOM      9  C   UNL     1       2.316   0.293  -0.026  0.00  0.00    +0.039 A 
ATOM     10  C   UNL     1       1.175  -0.481  -0.063  0.00  0.00    +0.011 A 
ATOM     11  C   UNL     1      -0.075   0.117   0.088  0.00  0.00    -0.011 A 
ATOM     12  F   UNL     1       3.342   2.417   0.197  0.00  0.00    -0.205 F 
ENDBRANCH   1  11
BRANCH   4  13
ATOM     13  C   UNL     1      -4.402  -1.866  -1.297  0.00  0.00    +0.069 A 
ATOM     14  C   UNL     1      -5.063  -0.848  -1.971  0.00  0.00    +0.029 A 
ATOM     15  C   UNL     1      -6.215  -1.126  -2.680  0.00  0.00    +0.022 A 
ATOM     16  C   UNL     1      -6.710  -2.418  -2.719  0.00  0.00    +0.041 A 
ATOM     17  C   UNL     1      -6.053  -3.434  -2.047  0.00  0.00    +0.022 A 
ATOM     18  C   UNL     1      -4.898  -3.162  -1.341  0.00  0.00    +0.029 A 
ATOM     19 CL   UNL     1      -8.158  -2.764  -3.612  0.00  0.00    -0.084 Cl
ENDBRANCH   4  13
BRANCH   2  20
ATOM     20  C   UNL     1      -0.933  -2.065   2.218  0.00  0.00    +0.006 A 
ATOM     21  C   UNL     1      -0.317  -1.091   3.011  0.00  0.00    +0.030 A 
ATOM     22  C   UNL     1       0.378  -1.486   4.135  0.00  0.00    +0.111 A 
ATOM     23  N   UNL     1       0.467  -2.760   4.464  0.00  0.00    -0.263 NA
ATOM     24  C   UNL     1      -0.099  -3.710   3.743  0.00  0.00    +0.111 A 
ATOM     25  C   UNL     1      -0.818  -3.403   2.607  0.00  0.00    +0.030 A 
ENDBRANCH   2  20
BRANCH   5  26
ATOM     26  O   UNL     1      -2.309   0.137  -2.008  0.00  0.00    -0.492 OA
ATOM     27  H   UNL     1      -1.885  -0.247  -2.788  0.00  0.00    +0.294 HD
ENDBRANCH   5  26
TORSDOF 4
