REMARK  Name = CHEMBL321494
REMARK  5 active torsions:
REMARK  status: ('A' for Active; 'I' for Inactive)
REMARK    1  A    between atoms: C_1  and  S_2
REMARK    2  A    between atoms: S_2  and  C_3
REMARK    3  A    between atoms: C_6  and  C_16
REMARK    4  A    between atoms: C_7  and  C_9
REMARK    5  A    between atoms: N_22  and  C_23
REMARK                            x       y       z     vdW  Elec       q    Type
REMARK                         _______ _______ _______ _____ _____    ______ ____
ROOT
ATOM      1  C   UNL     1      -1.547   3.733  -1.258  0.00  0.00    +0.167 A 
ATOM      2  N   UNL     1      -0.861   4.274  -0.280  0.00  0.00    -0.221 NA
ATOM      3  H   UNL     1      -2.371   4.569  -2.987  0.00  0.00    +0.168 HD
ATOM      4  C   UNL     1      -0.716   5.595  -0.508  0.00  0.00    +0.098 A 
ATOM      5  C   UNL     1      -1.351   5.888  -1.699  0.00  0.00    +0.075 A 
ATOM      6  N   UNL     1      -1.869   4.696  -2.166  0.00  0.00    -0.332 N 
ENDROOT
BRANCH   4   7
ATOM      7  C   UNL     1      -0.004   6.558   0.362  0.00  0.00    +0.007 A 
ATOM      8  C   UNL     1       0.708   7.633  -0.187  0.00  0.00    +0.030 A 
ATOM      9  C   UNL     1       1.357   8.509   0.655  0.00  0.00    +0.113 A 
ATOM     10  N   UNL     1       1.317   8.348   1.966  0.00  0.00    -0.240 NA
ATOM     11  C   UNL     1       0.657   7.347   2.529  0.00  0.00    +0.123 A 
ATOM     12  C   UNL     1      -0.029   6.423   1.752  0.00  0.00    +0.054 A 
ATOM     13  N   UNL     1       0.647   7.223   3.915  0.00  0.00    -0.299 N 
ATOM     14  H   UNL     1       0.235   6.449   4.330  0.00  0.00    +0.154 HD
BRANCH  13  15
ATOM     15  C   UNL     1       1.229   8.214   4.709  0.00  0.00    +0.032 A 
ATOM     16  C   UNL     1       1.113   9.551   4.351  0.00  0.00    +0.023 A 
ATOM     17  C   UNL     1       1.689  10.529   5.138  0.00  0.00    +0.002 A 
ATOM     18  C   UNL     1       2.382  10.177   6.282  0.00  0.00    +0.000 A 
ATOM     19  C   UNL     1       2.499   8.847   6.642  0.00  0.00    +0.002 A 
ATOM     20  C   UNL     1       1.920   7.866   5.863  0.00  0.00    +0.023 A 
ENDBRANCH  13  15
ENDBRANCH   4   7
BRANCH   5  21
ATOM     21  C   UNL     1      -1.450   7.210  -2.347  0.00  0.00    +0.001 A 
ATOM     22  C   UNL     1      -1.770   8.339  -1.589  0.00  0.00    +0.013 A 
ATOM     23  C   UNL     1      -1.862   9.572  -2.200  0.00  0.00    +0.039 A 
ATOM     24  C   UNL     1      -1.638   9.692  -3.562  0.00  0.00    +0.123 A 
ATOM     25  C   UNL     1      -1.320   8.575  -4.319  0.00  0.00    +0.039 A 
ATOM     26  C   UNL     1      -1.219   7.338  -3.719  0.00  0.00    +0.013 A 
ATOM     27  F   UNL     1      -1.730  10.903  -4.156  0.00  0.00    -0.205 F 
ENDBRANCH   5  21
BRANCH   1  29
ATOM     28  C   UNL     1      -1.262   1.286   0.111  0.00  0.00    +0.093 C 
ATOM     29  S   UNL     1      -1.978   2.029  -1.381  0.00  0.00    -0.091 S 
ENDBRANCH   1  29
TORSDOF 4
