REMARK  Name = CHEMBL308203
REMARK  13 active torsions:
REMARK  status: ('A' for Active; 'I' for Inactive)
REMARK    1  A    between atoms: C_1  and  C_2
REMARK    2  A    between atoms: C_2  and  C_3
REMARK    3  A    between atoms: C_3  and  N_4
REMARK    4  A    between atoms: C_5  and  C_7
REMARK    5  A    between atoms: C_7  and  C_38
REMARK    6  A    between atoms: C_10  and  C_13
REMARK    7  A    between atoms: C_16  and  C_26
REMARK    8  A    between atoms: C_17  and  C_19
REMARK    9  A    between atoms: N_32  and  C_33
REMARK   10  A    between atoms: C_33  and  C_34
REMARK   11  A    between atoms: C_34  and  C_35
REMARK   12  A    between atoms: C_35  and  O_36
REMARK   13  A    between atoms: O_36  and  C_37
REMARK                            x       y       z     vdW  Elec       q    Type
REMARK                         _______ _______ _______ _____ _____    ______ ____
ROOT
ATOM      1  C   UNL     1      -3.295  -8.105  -1.352  0.00  0.00    +0.165 A 
ATOM      2  N   UNL     1      -4.242  -8.898  -0.810  0.00  0.00    -0.336 N 
ATOM      3  H   UNL     1      -5.035  -8.604  -0.334  0.00  0.00    +0.167 HD
ATOM      4  C   UNL     1      -3.876 -10.203  -1.057  0.00  0.00    +0.093 A 
ATOM      5  C   UNL     1      -2.685 -10.141  -1.760  0.00  0.00    +0.098 A 
ATOM      6  N   UNL     1      -2.379  -8.841  -1.917  0.00  0.00    -0.227 NA
ENDROOT
BRANCH   4   7
ATOM      7  C   UNL     1      -4.604 -11.419  -0.654  0.00  0.00    +0.094 A 
ATOM      8  C   UNL     1      -5.472 -11.397   0.447  0.00  0.00    +0.050 A 
ATOM      9  C   UNL     1      -6.133 -12.562   0.786  0.00  0.00    +0.116 A 
ATOM     10  N   UNL     1      -5.929 -13.657   0.068  0.00  0.00    -0.223 NA
ATOM     11  C   UNL     1      -5.103 -13.650  -0.969  0.00  0.00    +0.216 A 
ATOM     12  N   UNL     1      -4.453 -12.557  -1.334  0.00  0.00    -0.213 NA
ATOM     13  N   UNL     1      -4.919 -14.816  -1.691  0.00  0.00    -0.313 N 
ATOM     14  H   UNL     1      -4.317 -14.826  -2.452  0.00  0.00    +0.149 HD
BRANCH  13  15
ATOM     15  C   UNL     1      -5.633 -16.036  -1.308  0.00  0.00    +0.106 C 
BRANCH  15  16
ATOM     16  C   UNL     1      -5.255 -17.171  -2.262  0.00  0.00    +0.047 C 
BRANCH  16  17
ATOM     17  C   UNL     1      -6.001 -18.445  -1.861  0.00  0.00    +0.161 C 
BRANCH  17  18
ATOM     18  O   UNL     1      -5.648 -19.504  -2.752  0.00  0.00    -0.383 OA
ATOM     19  C   UNL     1      -6.294 -20.746  -2.464  0.00  0.00    +0.193 C 
ENDBRANCH  17  18
ENDBRANCH  16  17
ENDBRANCH  15  16
ENDBRANCH  13  15
ENDBRANCH   4   7
BRANCH   1  23
ATOM     20  C   UNL     1      -2.551  -4.195   0.004  0.00  0.00    +0.091 C 
ATOM     21  C   UNL     1      -1.848  -4.692  -1.264  0.00  0.00    +0.181 C 
ATOM     22  O   UNL     1      -1.952  -6.118  -1.325  0.00  0.00    -0.344 OA
ATOM     23  C   UNL     1      -3.299  -6.598  -1.315  0.00  0.00    +0.318 C 
ATOM     24  O   UNL     1      -3.956  -6.152  -0.127  0.00  0.00    -0.344 OA
ATOM     25  C   UNL     1      -3.988  -4.728   0.015  0.00  0.00    +0.181 C 
ATOM     26  C   UNL     1      -1.806  -4.704   1.239  0.00  0.00    +0.025 C 
BRANCH  20  28
ATOM     27  N   UNL     1      -1.413  -1.998   0.005  0.00  0.00    -0.315 N 
ATOM     28  C   UNL     1      -2.571  -2.688   0.012  0.00  0.00    +0.223 C 
ATOM     29  O   UNL     1      -3.630  -2.096   0.025  0.00  0.00    -0.275 OA
ATOM     30  H   UNL     1      -0.567  -2.472  -0.006  0.00  0.00    +0.149 HD
BRANCH  27  31
ATOM     31  C   UNL     1      -1.433  -0.534   0.013  0.00  0.00    +0.104 C 
BRANCH  31  33
ATOM     32  C   UNL     1      -0.019   1.526   0.010  0.00  0.00    +0.005 C 
ATOM     33  C   UNL     1       0.002  -0.004   0.002  0.00  0.00    +0.015 C 
ENDBRANCH  31  33
ENDBRANCH  27  31
ENDBRANCH  20  28
ENDBRANCH   1  23
BRANCH   5  34
ATOM     34  C   UNL     1      -1.896 -11.294  -2.253  0.00  0.00    +0.003 A 
ATOM     35  C   UNL     1      -1.844 -12.474  -1.511  0.00  0.00    +0.013 A 
ATOM     36  C   UNL     1      -1.107 -13.545  -1.974  0.00  0.00    +0.039 A 
ATOM     37  C   UNL     1      -0.420 -13.449  -3.174  0.00  0.00    +0.123 A 
ATOM     38  C   UNL     1      -0.469 -12.279  -3.914  0.00  0.00    +0.039 A 
ATOM     39  C   UNL     1      -1.207 -11.205  -3.462  0.00  0.00    +0.013 A 
ATOM     40  F   UNL     1       0.300 -14.501  -3.622  0.00  0.00    -0.205 F 
ENDBRANCH   5  34
TORSDOF 10
