REMARK  Name = CHEMBL262592
REMARK  9 active torsions:
REMARK  status: ('A' for Active; 'I' for Inactive)
REMARK    1  A    between atoms: C_1  and  C_2
REMARK    2  A    between atoms: C_2  and  N_3
REMARK    3  A    between atoms: C_4  and  C_6
REMARK    4  A    between atoms: C_10  and  C_11
REMARK    5  A    between atoms: N_16  and  C_17
REMARK    6  A    between atoms: C_19  and  N_24
REMARK    7  A    between atoms: C_22  and  C_23
REMARK    8  A    between atoms: C_25  and  C_27
REMARK    9  A    between atoms: C_29  and  N_34
REMARK                            x       y       z     vdW  Elec       q    Type
REMARK                         _______ _______ _______ _____ _____    ______ ____
ROOT
ATOM      1  C   UNL     1       2.608  -6.362  -5.421  0.00  0.00    +0.037 A 
ATOM      2  C   UNL     1       3.341  -5.978  -6.536  0.00  0.00    +0.046 A 
ATOM      3  C   UNL     1       3.959  -6.941  -7.321  0.00  0.00    +0.035 A 
ATOM      4  C   UNL     1       3.844  -8.285  -6.989  0.00  0.00    +0.024 A 
ATOM      5  C   UNL     1       3.113  -8.664  -5.879  0.00  0.00    +0.007 A 
ATOM      6  C   UNL     1       2.501  -7.708  -5.092  0.00  0.00    -0.029 A 
ATOM      7  C   UNL     1       1.712  -8.125  -3.878  0.00  0.00    +0.045 C 
ENDROOT
BRANCH   1  18
ATOM      8  C   UNL     1       0.324  -1.781  -2.750  0.00  0.00    +0.060 A 
ATOM      9  C   UNL     1       0.415  -1.079  -3.941  0.00  0.00    +0.126 A 
ATOM     10  N   UNL     1       0.925  -1.888  -4.881  0.00  0.00    -0.234 N 
ATOM     11  C   UNL     1       1.174  -3.128  -4.321  0.00  0.00    +0.109 A 
ATOM     12  C   UNL     1       0.811  -3.081  -2.994  0.00  0.00    -0.008 A 
ATOM     13  C   UNL     1       0.913  -4.205  -1.994  0.00  0.00    +0.047 C 
ATOM     14  C   UNL     1       1.719  -4.144  -5.145  0.00  0.00    +0.151 A 
ATOM     15  N   UNL     1       1.972  -3.877  -6.415  0.00  0.00    -0.217 NA
ATOM     16  C   UNL     1       1.727  -2.678  -6.939  0.00  0.00    +0.245 A 
ATOM     17  N   UNL     1       1.227  -1.699  -6.238  0.00  0.00    -0.155 NA
ATOM     18  N   UNL     1       1.984  -5.396  -4.628  0.00  0.00    -0.297 N 
ATOM     19  H   UNL     1       1.736  -5.605  -3.714  0.00  0.00    +0.154 HD
BRANCH   8  21
ATOM     20  N   UNL     1      -0.621   0.009  -1.378  0.00  0.00    -0.312 N 
ATOM     21  C   UNL     1      -0.184  -1.263  -1.466  0.00  0.00    +0.246 C 
ATOM     22  O   UNL     1      -0.208  -1.983  -0.487  0.00  0.00    -0.270 OA
ATOM     23  H   UNL     1      -0.602   0.583  -2.159  0.00  0.00    +0.149 HD
BRANCH  20  25
ATOM     24  C   UNL     1      -1.555   1.982  -0.275  0.00  0.00    +0.024 C 
ATOM     25  C   UNL     1      -1.125   0.523  -0.102  0.00  0.00    +0.101 C 
ENDBRANCH  20  25
ENDBRANCH   8  21
ENDBRANCH   1  18
BRANCH   3  26
ATOM     26  N   UNL     1       4.698  -6.558  -8.445  0.00  0.00    -0.281 N 
ATOM     27  C   UNL     1       4.750  -7.364  -9.524  0.00  0.00    +0.248 C 
ATOM     28  O   UNL     1       4.076  -8.375  -9.559  0.00  0.00    -0.270 OA
ATOM     29  H   UNL     1       5.174  -5.713  -8.448  0.00  0.00    +0.155 HD
BRANCH  27  30
ATOM     30  C   UNL     1       5.625  -7.018 -10.664  0.00  0.00    +0.041 A 
ATOM     31  C   UNL     1       5.675  -7.848 -11.784  0.00  0.00    +0.036 A 
ATOM     32  C   UNL     1       6.497  -7.518 -12.851  0.00  0.00    +0.033 A 
ATOM     33  C   UNL     1       7.269  -6.363 -12.802  0.00  0.00    +0.061 A 
ATOM     34  C   UNL     1       7.220  -5.539 -11.691  0.00  0.00    +0.126 A 
ATOM     35  C   UNL     1       6.399  -5.857 -10.625  0.00  0.00    +0.051 A 
ATOM     36  F   UNL     1       7.973  -4.418 -11.649  0.00  0.00    -0.205 F 
BRANCH  32  37
ATOM     37  N   UNL     1       6.551  -8.346 -13.974  0.00  0.00    -0.325 N 
ATOM     38  C   UNL     1       5.688  -9.534 -14.081  0.00  0.00    +0.133 C 
ATOM     39  C   UNL     1       4.978  -9.495 -15.439  0.00  0.00    +0.178 C 
ATOM     40  O   UNL     1       5.949  -9.320 -16.473  0.00  0.00    -0.377 OA
ATOM     41  C   UNL     1       6.674  -8.090 -16.394  0.00  0.00    +0.178 C 
ATOM     42  C   UNL     1       7.467  -8.054 -15.088  0.00  0.00    +0.133 C 
ENDBRANCH  32  37
ENDBRANCH  27  30
ENDBRANCH   3  26
TORSDOF 6
