REMARK  Name = CHEMBL252944
REMARK  10 active torsions:
REMARK  status: ('A' for Active; 'I' for Inactive)
REMARK    1  A    between atoms: C_1  and  C_2
REMARK    2  A    between atoms: C_5  and  C_30
REMARK    3  A    between atoms: C_7  and  N_8
REMARK    4  A    between atoms: C_11  and  C_29
REMARK    5  A    between atoms: C_12  and  C_18
REMARK    6  A    between atoms: N_20  and  C_21
REMARK    7  A    between atoms: C_21  and  C_22
REMARK    8  A    between atoms: C_22  and  N_23
REMARK    9  A    between atoms: N_32  and  O_33
REMARK   10  A    between atoms: O_33  and  C_34
REMARK                            x       y       z     vdW  Elec       q    Type
REMARK                         _______ _______ _______ _____ _____    ______ ____
ROOT
ATOM      1  N   UNL     1      -0.492   0.011   2.409  0.00  0.00    -0.297 N 
ATOM      2  C   UNL     1      -0.492  -0.683   3.602  0.00  0.00    +0.151 A 
ATOM      3  C   UNL     1      -0.361   0.005   4.833  0.00  0.00    +0.109 A 
ATOM      4  C   UNL     1      -0.219   1.335   5.162  0.00  0.00    -0.008 A 
ATOM      5  C   UNL     1      -0.137   1.400   6.568  0.00  0.00    +0.060 A 
ATOM      6  C   UNL     1      -0.232   0.103   7.045  0.00  0.00    +0.126 A 
ATOM      7  N   UNL     1      -0.366  -0.731   6.004  0.00  0.00    -0.234 N 
ATOM      8  N   UNL     1      -0.502  -2.124   5.912  0.00  0.00    -0.155 NA
ATOM      9  C   UNL     1      -0.619  -2.695   4.745  0.00  0.00    +0.245 A 
ATOM     10  N   UNL     1      -0.620  -1.999   3.609  0.00  0.00    -0.217 NA
ATOM     11  C   UNL     1      -0.162   2.496   4.203  0.00  0.00    +0.047 C 
ATOM     12  H   UNL     1      -0.378   0.975   2.409  0.00  0.00    +0.154 HD
ENDROOT
BRANCH   1  19
ATOM     13  C   UNL     1      -1.729   1.385   0.252  0.00  0.00    +0.045 C 
ATOM     14  C   UNL     1      -1.256  -0.040   0.120  0.00  0.00    -0.029 A 
ATOM     15  C   UNL     1      -1.416  -0.710  -1.079  0.00  0.00    +0.006 A 
ATOM     16  C   UNL     1      -0.986  -2.015  -1.207  0.00  0.00    +0.013 A 
ATOM     17  C   UNL     1      -0.387  -2.662  -0.125  0.00  0.00    +0.040 A 
ATOM     18  C   UNL     1      -0.225  -1.986   1.084  0.00  0.00    +0.036 A 
ATOM     19  C   UNL     1      -0.656  -0.673   1.202  0.00  0.00    +0.036 A 
BRANCH  17  20
ATOM     20  C   UNL     1       0.074  -4.061  -0.259  0.00  0.00    +0.267 C 
ATOM     21  O   UNL     1       0.596  -4.622   0.684  0.00  0.00    -0.268 OA
ATOM     22  N   UNL     1      -0.083  -4.713  -1.429  0.00  0.00    -0.191 N 
ATOM     23  H   UNL     1      -0.499  -4.264  -2.181  0.00  0.00    +0.183 HD
BRANCH  22  24
ATOM     24  O   UNL     1       0.358  -6.052  -1.558  0.00  0.00    -0.283 OA
ATOM     25  C   UNL     1       0.128  -6.617  -2.849  0.00  0.00    +0.226 C 
ENDBRANCH  22  24
ENDBRANCH  17  20
ENDBRANCH   1  19
BRANCH   5  26
ATOM     26  C   UNL     1       0.022   2.622   7.379  0.00  0.00    +0.246 C 
ATOM     27  O   UNL     1       0.094   3.707   6.836  0.00  0.00    -0.270 OA
ATOM     28  N   UNL     1       0.086   2.535   8.723  0.00  0.00    -0.313 N 
ATOM     29  H   UNL     1       0.029   1.669   9.156  0.00  0.00    +0.149 HD
BRANCH  28  30
ATOM     30  C   UNL     1       0.244   3.748   9.528  0.00  0.00    +0.086 C 
BRANCH  30  31
ATOM     31  C   UNL     1       0.289   3.373  11.011  0.00  0.00    -0.060 C 
BRANCH  31  32
ATOM     32  N   UNL     1       0.447   4.590  11.819  0.00  0.00    +0.384 N 
ATOM     33  C   UNL     1       1.752   5.202  11.534  0.00  0.00    -0.050 C 
ATOM     34  C   UNL     1       1.914   6.469  12.376  0.00  0.00    +0.141 C 
ATOM     35  O   UNL     1       1.782   6.135  13.761  0.00  0.00    -0.383 OA
ATOM     36  C   UNL     1       0.535   5.514  14.085  0.00  0.00    +0.141 C 
ATOM     37  C   UNL     1       0.370   4.244  13.245  0.00  0.00    -0.050 C 
ATOM     38  H   UNL     1      -0.288   5.243  11.591  0.00  0.00    -0.082 HD
ENDBRANCH  31  32
ENDBRANCH  30  31
ENDBRANCH  28  30
ENDBRANCH   5  26
TORSDOF 7
