REMARK  Name = CHEMBL69331
REMARK  3 active torsions:
REMARK  status: ('A' for Active; 'I' for Inactive)
REMARK    1  A    between atoms: C_6  and  C_7
REMARK    2  A    between atoms: C_8  and  C_19
REMARK    3  A    between atoms: C_10  and  C_13
REMARK                            x       y       z     vdW  Elec       q    Type
REMARK                         _______ _______ _______ _____ _____    ______ ____
ROOT
ATOM      1  C   UNL     1      -1.286  -0.730   0.058  0.00  0.00    +0.074 A 
ATOM      2  C   UNL     1      -1.537  -1.917   0.723  0.00  0.00    +0.097 A 
ATOM      3  N   UNL     1      -2.785  -2.306   0.398  0.00  0.00    -0.232 NA
ATOM      4  C   UNL     1      -3.313  -1.440  -0.419  0.00  0.00    +0.111 A 
ATOM      5  N   UNL     1      -2.425  -0.441  -0.655  0.00  0.00    -0.341 N 
ATOM      6  H   UNL     1      -2.567   0.332  -1.224  0.00  0.00    +0.167 HD
ENDROOT
BRANCH   1  12
ATOM      7  C   UNL     1       1.196  -0.551  -0.050  0.00  0.00    +0.013 A 
ATOM      8  C   UNL     1       2.350   0.201  -0.002  0.00  0.00    +0.039 A 
ATOM      9  C   UNL     1       2.281   1.569   0.205  0.00  0.00    +0.123 A 
ATOM     10  C   UNL     1       1.053   2.191   0.364  0.00  0.00    +0.039 A 
ATOM     11  C   UNL     1      -0.109   1.449   0.318  0.00  0.00    +0.013 A 
ATOM     12  C   UNL     1      -0.045   0.070   0.109  0.00  0.00    +0.001 A 
ATOM     13  F   UNL     1       3.416   2.301   0.252  0.00  0.00    -0.205 F 
ENDBRANCH   1  12
BRANCH   4  14
ATOM     14  C   UNL     1      -4.698  -1.529  -1.006  0.00  0.00    +0.055 C 
ATOM     15  C   UNL     1      -4.685  -0.972  -2.431  0.00  0.00    +0.011 C 
ATOM     16  C   UNL     1      -6.092  -1.062  -3.027  0.00  0.00    +0.001 C 
ATOM     17  C   UNL     1      -7.062  -0.248  -2.170  0.00  0.00    +0.000 C 
ATOM     18  C   UNL     1      -7.075  -0.805  -0.745  0.00  0.00    +0.001 C 
ATOM     19  C   UNL     1      -5.669  -0.715  -0.149  0.00  0.00    +0.011 C 
ENDBRANCH   4  14
BRANCH   2  20
ATOM     20  C   UNL     1      -0.605  -2.629   1.626  0.00  0.00    +0.005 A 
ATOM     21  C   UNL     1       0.168  -1.928   2.559  0.00  0.00    +0.030 A 
ATOM     22  C   UNL     1       1.023  -2.631   3.381  0.00  0.00    +0.111 A 
ATOM     23  N   UNL     1       1.119  -3.945   3.295  0.00  0.00    -0.263 NA
ATOM     24  C   UNL     1       0.409  -4.643   2.429  0.00  0.00    +0.111 A 
ATOM     25  C   UNL     1      -0.476  -4.021   1.573  0.00  0.00    +0.030 A 
ENDBRANCH   2  20
TORSDOF 3
