REMARK  Name = CHEMBL119385
REMARK  3 active torsions:
REMARK  status: ('A' for Active; 'I' for Inactive)
REMARK    1  A    between atoms: C_4  and  C_8
REMARK    2  A    between atoms: C_12  and  S_19
REMARK    3  A    between atoms: S_19  and  C_20
REMARK                            x       y       z     vdW  Elec       q    Type
REMARK                         _______ _______ _______ _____ _____    ______ ____
ROOT
ATOM      1  C   UNL     1       4.019  -0.213  -0.035  0.00  0.00    +0.077 A 
ATOM      2  C   UNL     1       4.583  -0.689   1.157  0.00  0.00    +0.080 A 
ATOM      3  C   UNL     1       3.960  -0.460   2.397  0.00  0.00    +0.031 A 
ATOM      4  C   UNL     1       4.543  -0.940   3.528  0.00  0.00    +0.039 A 
ATOM      5  C   UNL     1       5.755  -1.655   3.445  0.00  0.00    +0.122 A 
ATOM      6  N   UNL     1       6.335  -1.867   2.287  0.00  0.00    -0.158 NA
ATOM      7  N   UNL     1       5.761  -1.387   1.103  0.00  0.00    -0.220 N 
ATOM      8  C   UNL     1       6.362  -1.609  -0.093  0.00  0.00    +0.227 A 
ATOM      9  N   UNL     1       5.852  -1.175  -1.211  0.00  0.00    -0.197 NA
ATOM     10  C   UNL     1       4.699  -0.486  -1.244  0.00  0.00    +0.281 A 
ATOM     11  O   UNL     1       4.243  -0.097  -2.310  0.00  0.00    -0.265 OA
ENDROOT
BRANCH   1  15
ATOM     12  C   UNL     1       0.370   1.965  -0.017  0.00  0.00    +0.003 A 
ATOM     13  C   UNL     1       1.573   2.638   0.093  0.00  0.00    +0.021 A 
ATOM     14  C   UNL     1       2.763   1.937   0.088  0.00  0.00    +0.050 A 
ATOM     15  C   UNL     1       2.749   0.545  -0.029  0.00  0.00    +0.026 A 
ATOM     16  C   UNL     1       1.530  -0.128  -0.140  0.00  0.00    +0.050 A 
ATOM     17  C   UNL     1       0.348   0.587  -0.133  0.00  0.00    +0.021 A 
ATOM     18 CL   UNL     1       1.500  -1.857  -0.285  0.00  0.00    -0.083 Cl
ATOM     19 CL   UNL     1       4.272   2.783   0.226  0.00  0.00    -0.083 Cl
ENDBRANCH   1  15
BRANCH   5  20
ATOM     20  S   UNL     1       6.503  -2.272   4.917  0.00  0.00    -0.065 S 
BRANCH  20  21
ATOM     21  C   UNL     1       7.880  -3.205   4.337  0.00  0.00    +0.050 A 
ATOM     22  C   UNL     1       9.165  -2.691   4.446  0.00  0.00    +0.021 A 
ATOM     23  C   UNL     1      10.243  -3.424   3.991  0.00  0.00    +0.039 A 
ATOM     24  C   UNL     1      10.045  -4.672   3.425  0.00  0.00    +0.126 A 
ATOM     25  C   UNL     1       8.765  -5.189   3.313  0.00  0.00    +0.077 A 
ATOM     26  C   UNL     1       7.682  -4.462   3.773  0.00  0.00    +0.140 A 
ATOM     27  F   UNL     1       6.434  -4.968   3.670  0.00  0.00    -0.204 F 
ATOM     28  F   UNL     1      11.101  -5.386   2.979  0.00  0.00    -0.205 F 
ENDBRANCH  20  21
ENDBRANCH   5  20
TORSDOF 3
