REMARK  Name = CHEMBL496312
REMARK  5 active torsions:
REMARK  status: ('A' for Active; 'I' for Inactive)
REMARK    1  A    between atoms: C_1  and  C_2
REMARK    2  A    between atoms: C_5  and  C_21
REMARK    3  A    between atoms: C_7  and  C_8
REMARK    4  A    between atoms: N_23  and  C_24
REMARK    5  A    between atoms: C_28  and  N_30
REMARK                            x       y       z     vdW  Elec       q    Type
REMARK                         _______ _______ _______ _____ _____    ______ ____
ROOT
ATOM      1  C   UNL     1      -0.109   1.505  -0.025  0.00  0.00    +0.044 C 
ATOM      2  C   UNL     1      -0.068  -0.002  -0.028  0.00  0.00    -0.043 A 
ATOM      3  C   UNL     1      -0.067  -0.689  -1.226  0.00  0.00    +0.005 A 
ATOM      4  C   UNL     1      -0.030  -2.069  -1.237  0.00  0.00    +0.013 A 
ATOM      5  C   UNL     1       0.007  -2.778  -0.034  0.00  0.00    +0.038 A 
ATOM      6  C   UNL     1       0.006  -2.089   1.177  0.00  0.00    +0.021 A 
ATOM      7  C   UNL     1      -0.026  -0.698   1.180  0.00  0.00    -0.014 A 
ENDROOT
BRANCH   7   8
ATOM      8  C   UNL     1      -0.021   0.043   2.465  0.00  0.00    -0.017 A 
ATOM      9  C   UNL     1       0.882   1.095   2.659  0.00  0.00    +0.010 A 
ATOM     10  C   UNL     1       0.904   1.790   3.831  0.00  0.00    +0.029 A 
ATOM     11  C   UNL     1       0.018   1.454   4.860  0.00  0.00    +0.080 A 
ATOM     12  C   UNL     1      -0.897   0.392   4.672  0.00  0.00    +0.065 A 
ATOM     13  C   UNL     1      -0.915  -0.307   3.468  0.00  0.00    +0.024 A 
ATOM     14  C   UNL     1      -1.816   0.064   5.771  0.00  0.00    +0.260 A 
ATOM     15  O   UNL     1      -2.626  -0.839   5.670  0.00  0.00    -0.267 OA
ATOM     16  N   UNL     1      -1.728   0.804   6.901  0.00  0.00    -0.295 N 
ATOM     17  H   UNL     1      -2.318   0.616   7.647  0.00  0.00    +0.172 HD
ATOM     18  C   UNL     1      -0.813   1.813   6.997  0.00  0.00    +0.194 A 
ATOM     19  N   UNL     1       0.014   2.123   6.031  0.00  0.00    -0.216 NA
ATOM     20  N   UNL     1      -0.760   2.537   8.161  0.00  0.00    -0.329 N 
ATOM     21  H   UNL     1      -1.363   2.327   8.891  0.00  0.00    +0.145 HD
ATOM     22  H   UNL     1      -0.118   3.259   8.254  0.00  0.00    +0.145 HD
ENDBRANCH   7   8
BRANCH   5  23
ATOM     23  C   UNL     1       0.046  -4.256  -0.046  0.00  0.00    +0.248 C 
ATOM     24  O   UNL     1       0.078  -4.872   1.001  0.00  0.00    -0.270 OA
ATOM     25  N   UNL     1       0.046  -4.920  -1.219  0.00  0.00    -0.281 N 
ATOM     26  H   UNL     1      -0.045  -4.433  -2.053  0.00  0.00    +0.155 HD
BRANCH  25  27
ATOM     27  C   UNL     1       0.178  -6.312  -1.234  0.00  0.00    +0.035 A 
ATOM     28  C   UNL     1      -0.396  -7.076  -0.225  0.00  0.00    +0.023 A 
ATOM     29  C   UNL     1      -0.265  -8.451  -0.238  0.00  0.00    +0.004 A 
ATOM     30  C   UNL     1       0.435  -9.072  -1.254  0.00  0.00    +0.023 A 
ATOM     31  C   UNL     1       1.012  -8.314  -2.266  0.00  0.00    +0.032 A 
ATOM     32  C   UNL     1       0.877  -6.933  -2.259  0.00  0.00    +0.046 A 
BRANCH  31  33
ATOM     33  N   UNL     1       1.721  -8.942  -3.293  0.00  0.00    -0.325 N 
ATOM     34  C   UNL     1       2.444  -8.156  -4.305  0.00  0.00    +0.133 C 
ATOM     35  C   UNL     1       3.876  -8.695  -4.403  0.00  0.00    +0.178 C 
ATOM     36  O   UNL     1       3.833 -10.109  -4.608  0.00  0.00    -0.377 OA
ATOM     37  C   UNL     1       3.232 -10.839  -3.536  0.00  0.00    +0.178 C 
ATOM     38  C   UNL     1       1.771 -10.410  -3.391  0.00  0.00    +0.133 C 
ENDBRANCH  31  33
ENDBRANCH  25  27
ENDBRANCH   5  23
TORSDOF 4
