REMARK  Name = CHEMBL420081
REMARK  6 active torsions:
REMARK  status: ('A' for Active; 'I' for Inactive)
REMARK    1  A    between atoms: C_1  and  C_2
REMARK    2  A    between atoms: C_2  and  N_3
REMARK    3  A    between atoms: C_8  and  C_10
REMARK    4  A    between atoms: C_11  and  C_22
REMARK    5  A    between atoms: N_14  and  C_15
REMARK    6  A    between atoms: N_18  and  C_21
REMARK                            x       y       z     vdW  Elec       q    Type
REMARK                         _______ _______ _______ _____ _____    ______ ____
ROOT
ATOM      1  C   UNL     1       2.497  -4.137   3.818  0.00  0.00    +0.095 A 
ATOM      2  C   UNL     1       3.456  -3.439   4.532  0.00  0.00    +0.098 A 
ATOM      3  N   UNL     1       3.656  -4.099   5.686  0.00  0.00    -0.235 NA
ATOM      4  C   UNL     1       2.886  -5.152   5.727  0.00  0.00    +0.200 A 
ATOM      5  N   UNL     1       2.148  -5.216   4.600  0.00  0.00    -0.325 N 
ENDROOT
BRANCH   1  11
ATOM      6  N   UNL     1       0.943  -0.885   0.690  0.00  0.00    -0.314 N 
ATOM      7  C   UNL     1       1.204  -2.212   0.986  0.00  0.00    +0.216 A 
ATOM      8  N   UNL     1       0.959  -3.138   0.070  0.00  0.00    -0.223 NA
ATOM      9  C   UNL     1       1.195  -4.418   0.313  0.00  0.00    +0.116 A 
ATOM     10  C   UNL     1       1.704  -4.791   1.542  0.00  0.00    +0.050 A 
ATOM     11  C   UNL     1       1.954  -3.792   2.492  0.00  0.00    +0.094 A 
ATOM     12  N   UNL     1       1.696  -2.521   2.174  0.00  0.00    -0.213 NA
ATOM     13  H   UNL     1       1.121  -0.197   1.349  0.00  0.00    +0.149 HD
BRANCH   6  15
ATOM     14  C   UNL     1       0.203   0.995  -0.689  0.00  0.00    +0.024 C 
ATOM     15  C   UNL     1       0.397  -0.521  -0.620  0.00  0.00    +0.101 C 
ENDBRANCH   6  15
ENDBRANCH   1  11
BRANCH   5  16
ATOM     16  C   UNL     1       1.159  -6.245   4.268  0.00  0.00    +0.085 C 
ATOM     17  C   UNL     1       0.121  -6.339   5.389  0.00  0.00    +0.006 C 
ATOM     18  C   UNL     1      -0.861  -7.469   5.074  0.00  0.00    -0.077 C 
ATOM     19  N   UNL     1      -0.134  -8.740   4.970  0.00  0.00    +0.378 N 
ATOM     20  C   UNL     1       0.813  -8.682   3.851  0.00  0.00    -0.077 C 
ATOM     21  C   UNL     1       1.860  -7.599   4.119  0.00  0.00    +0.006 C 
ATOM     22  C   UNL     1      -1.090  -9.832   4.745  0.00  0.00    -0.096 C 
ATOM     23  H   UNL     1       0.370  -8.909   5.828  0.00  0.00    -0.082 HD
ENDBRANCH   5  16
BRANCH   2  24
ATOM     24  C   UNL     1       4.136  -2.194   4.104  0.00  0.00    +0.003 A 
ATOM     25  C   UNL     1       4.433  -1.987   2.757  0.00  0.00    +0.013 A 
ATOM     26  C   UNL     1       5.066  -0.827   2.363  0.00  0.00    +0.039 A 
ATOM     27  C   UNL     1       5.407   0.132   3.303  0.00  0.00    +0.123 A 
ATOM     28  C   UNL     1       5.114  -0.069   4.642  0.00  0.00    +0.039 A 
ATOM     29  C   UNL     1       4.476  -1.223   5.045  0.00  0.00    +0.013 A 
ATOM     30  F   UNL     1       6.028   1.267   2.912  0.00  0.00    -0.205 F 
ENDBRANCH   2  24
TORSDOF 4
