REMARK  Name = CHEMBL96629
REMARK  5 active torsions:
REMARK  status: ('A' for Active; 'I' for Inactive)
REMARK    1  A    between atoms: C_4  and  N_8
REMARK    2  A    between atoms: C_11  and  N_28
REMARK    3  A    between atoms: C_12  and  S_19
REMARK    4  A    between atoms: S_19  and  C_20
REMARK    5  A    between atoms: N_28  and  C_29
REMARK                            x       y       z     vdW  Elec       q    Type
REMARK                         _______ _______ _______ _____ _____    ______ ____
ROOT
ATOM      1  N   UNL     1       3.393  -1.173  -0.042  0.00  0.00    -0.220 N 
ATOM      2  C   UNL     1       4.022  -1.362  -1.276  0.00  0.00    +0.067 A 
ATOM      3  C   UNL     1       3.428  -0.916  -2.454  0.00  0.00    +0.051 A 
ATOM      4  C   UNL     1       4.098  -1.130  -3.651  0.00  0.00    +0.062 A 
ATOM      5  C   UNL     1       5.335  -1.781  -3.632  0.00  0.00    +0.123 A 
ATOM      6  N   UNL     1       5.865  -2.189  -2.490  0.00  0.00    -0.240 NA
ATOM      7  C   UNL     1       5.253  -2.000  -1.340  0.00  0.00    +0.081 A 
ATOM      8  C   UNL     1       5.871  -2.472  -0.042  0.00  0.00    +0.163 C 
ATOM      9  N   UNL     1       5.111  -2.215   1.193  0.00  0.00    -0.293 N 
ATOM     10  C   UNL     1       3.928  -1.579   1.117  0.00  0.00    +0.311 C 
ATOM     11  O   UNL     1       3.314  -1.369   2.145  0.00  0.00    -0.252 OA
ATOM     12  H   UNL     1       5.462  -2.497   2.052  0.00  0.00    +0.151 HD
ENDROOT
BRANCH   1  16
ATOM     13  C   UNL     1      -0.303   0.755   0.034  0.00  0.00    +0.003 A 
ATOM     14  C   UNL     1       0.861   1.493   0.137  0.00  0.00    +0.022 A 
ATOM     15  C   UNL     1       2.089   0.857   0.112  0.00  0.00    +0.064 A 
ATOM     16  C   UNL     1       2.151  -0.525  -0.016  0.00  0.00    +0.079 A 
ATOM     17  C   UNL     1       0.978  -1.263  -0.119  0.00  0.00    +0.064 A 
ATOM     18  C   UNL     1      -0.246  -0.621  -0.094  0.00  0.00    +0.022 A 
ATOM     19 CL   UNL     1       1.050  -2.990  -0.280  0.00  0.00    -0.082 Cl
ATOM     20 CL   UNL     1       3.550   1.784   0.240  0.00  0.00    -0.082 Cl
ENDBRANCH   1  16
BRANCH   4  21
ATOM     21  N   UNL     1       3.541  -0.701  -4.861  0.00  0.00    -0.339 N 
ATOM     22  H   UNL     1       4.014  -0.854  -5.693  0.00  0.00    +0.146 HD
BRANCH  21  23
ATOM     23  C   UNL     1       2.243  -0.021  -4.870  0.00  0.00    +0.067 C 
ATOM     24  C   UNL     1       1.120  -1.061  -4.902  0.00  0.00    +0.003 C 
ATOM     25  C   UNL     1      -0.229  -0.344  -4.992  0.00  0.00    -0.081 C 
ATOM     26  N   UNL     1      -0.276   0.468  -6.214  0.00  0.00    +0.379 N 
ATOM     27  C   UNL     1       0.753   1.513  -6.157  0.00  0.00    -0.081 C 
ATOM     28  C   UNL     1       2.139   0.868  -6.113  0.00  0.00    +0.003 C 
ATOM     29  H   UNL     1      -0.110  -0.123  -7.015  0.00  0.00    -0.086 HD
ATOM     30  H   UNL     1      -1.185   0.896  -6.297  0.00  0.00    -0.086 HD
ENDBRANCH  21  23
ENDBRANCH   4  21
BRANCH   5  31
ATOM     31  S   UNL     1       6.196  -2.060  -5.144  0.00  0.00    -0.065 S 
BRANCH  31  32
ATOM     32  C   UNL     1       7.735  -2.750  -4.636  0.00  0.00    +0.050 A 
ATOM     33  C   UNL     1       7.970  -4.111  -4.783  0.00  0.00    +0.021 A 
ATOM     34  C   UNL     1       9.177  -4.650  -4.384  0.00  0.00    +0.039 A 
ATOM     35  C   UNL     1      10.155  -3.836  -3.837  0.00  0.00    +0.126 A 
ATOM     36  C   UNL     1       9.925  -2.478  -3.689  0.00  0.00    +0.077 A 
ATOM     37  C   UNL     1       8.720  -1.932  -4.092  0.00  0.00    +0.140 A 
ATOM     38  F   UNL     1       8.498  -0.607  -3.953  0.00  0.00    -0.204 F 
ATOM     39  F   UNL     1      11.335  -4.367  -3.448  0.00  0.00    -0.205 F 
ENDBRANCH  31  32
ENDBRANCH   5  31
TORSDOF 5
