REMARK  Name = CHEMBL493669
REMARK  9 active torsions:
REMARK  status: ('A' for Active; 'I' for Inactive)
REMARK    1  A    between atoms: C_1  and  C_2
REMARK    2  A    between atoms: C_2  and  C_3
REMARK    3  A    between atoms: C_2  and  N_11
REMARK    4  A    between atoms: C_3  and  C_4
REMARK    5  A    between atoms: C_4  and  C_5
REMARK    6  A    between atoms: C_14  and  C_18
REMARK    7  A    between atoms: C_19  and  C_26
REMARK    8  A    between atoms: C_21  and  S_24
REMARK    9  A    between atoms: S_24  and  C_25
REMARK                            x       y       z     vdW  Elec       q    Type
REMARK                         _______ _______ _______ _____ _____    ______ ____
ROOT
ATOM      1  N   UNL     1      -1.425  -0.031   0.046  0.00  0.00    -0.326 N 
ATOM      2  C   UNL     1      -2.078  -0.348  -1.140  0.00  0.00    +0.119 A 
ATOM      3  C   UNL     1      -1.481  -0.042  -2.354  0.00  0.00    +0.053 A 
ATOM      4  C   UNL     1      -2.152  -0.367  -3.538  0.00  0.00    +0.005 A 
ATOM      5  C   UNL     1      -3.406  -0.993  -3.440  0.00  0.00    +0.030 A 
ATOM      6  C   UNL     1      -3.925  -1.260  -2.195  0.00  0.00    +0.113 A 
ATOM      7  N   UNL     1      -3.261  -0.944  -1.097  0.00  0.00    -0.240 NA
ATOM      8  H   UNL     1      -1.835  -0.246   0.898  0.00  0.00    +0.148 HD
ENDROOT
BRANCH   4   9
ATOM      9  C   UNL     1      -1.559  -0.062  -4.853  0.00  0.00    +0.075 A 
ATOM     10  C   UNL     1      -2.186   0.549  -5.923  0.00  0.00    +0.098 A 
ATOM     11  N   UNL     1      -1.291   0.637  -6.925  0.00  0.00    -0.221 NA
ATOM     12  C   UNL     1      -0.147   0.119  -6.542  0.00  0.00    +0.167 A 
ATOM     13  N   UNL     1      -0.263  -0.324  -5.260  0.00  0.00    -0.332 N 
ATOM     14  H   UNL     1       0.432  -0.747  -4.731  0.00  0.00    +0.168 HD
BRANCH  10  15
ATOM     15  C   UNL     1      -3.589   1.020  -5.961  0.00  0.00    +0.003 A 
ATOM     16  C   UNL     1      -4.127   1.705  -4.871  0.00  0.00    +0.013 A 
ATOM     17  C   UNL     1      -5.435   2.143  -4.911  0.00  0.00    +0.039 A 
ATOM     18  C   UNL     1      -6.214   1.903  -6.032  0.00  0.00    +0.123 A 
ATOM     19  C   UNL     1      -5.684   1.222  -7.117  0.00  0.00    +0.039 A 
ATOM     20  C   UNL     1      -4.376   0.786  -7.088  0.00  0.00    +0.013 A 
ATOM     21  F   UNL     1      -7.494   2.333  -6.066  0.00  0.00    -0.205 F 
ENDBRANCH  10  15
BRANCH  12  22
ATOM     22  S   UNL     1       1.309   0.019  -7.529  0.00  0.00    -0.091 S 
ATOM     23  C   UNL     1       0.824   0.776  -9.104  0.00  0.00    +0.093 C 
ENDBRANCH  12  22
ENDBRANCH   4   9
BRANCH   1  25
ATOM     24  C   UNL     1      -0.311   2.140  -0.117  0.00  0.00    +0.028 C 
ATOM     25  C   UNL     1      -0.117   0.628   0.009  0.00  0.00    +0.069 C 
BRANCH  25  26
ATOM     26  C   UNL     1       0.648   0.317   1.297  0.00  0.00    +0.026 C 
BRANCH  26  27
ATOM     27  C   UNL     1       0.951  -1.181   1.362  0.00  0.00    +0.037 C 
BRANCH  27  28
ATOM     28  C   UNL     1       1.704  -1.488   2.631  0.00  0.00    -0.047 A 
ATOM     29  C   UNL     1       3.085  -1.437   2.644  0.00  0.00    +0.003 A 
ATOM     30  C   UNL     1       3.776  -1.718   3.808  0.00  0.00    +0.000 A 
ATOM     31  C   UNL     1       3.086  -2.049   4.959  0.00  0.00    +0.000 A 
ATOM     32  C   UNL     1       1.704  -2.098   4.946  0.00  0.00    +0.000 A 
ATOM     33  C   UNL     1       1.013  -1.813   3.783  0.00  0.00    +0.003 A 
ENDBRANCH  27  28
ENDBRANCH  26  27
ENDBRANCH  25  26
ENDBRANCH   1  25
TORSDOF 7
