REMARK  Name = CHEMBL514201
REMARK  10 active torsions:
REMARK  status: ('A' for Active; 'I' for Inactive)
REMARK    1  A    between atoms: C_1  and  C_2
REMARK    2  A    between atoms: N_5  and  C_31
REMARK    3  A    between atoms: C_6  and  C_30
REMARK    4  A    between atoms: C_10  and  C_12
REMARK    5  A    between atoms: N_19  and  C_29
REMARK    6  A    between atoms: C_21  and  C_22
REMARK    7  A    between atoms: C_22  and  C_24
REMARK    8  A    between atoms: N_26  and  C_27
REMARK    9  A    between atoms: N_26  and  C_28
REMARK   10  A    between atoms: C_31  and  C_32
REMARK                            x       y       z     vdW  Elec       q    Type
REMARK                         _______ _______ _______ _____ _____    ______ ____
ROOT
ATOM      1  C   UNL     1       3.042   1.964  -1.060  0.00  0.00    +0.029 C 
ATOM      2  C   UNL     1       2.031   0.824  -0.916  0.00  0.00    +0.087 C 
ATOM      3  C   UNL     1       0.627   1.334  -1.260  0.00  0.00    +0.107 C 
ATOM      4  N   UNL     1       0.212   2.326  -0.260  0.00  0.00    -0.292 NA
ATOM      5  C   UNL     1       0.111   1.725   1.077  0.00  0.00    +0.071 C 
ATOM      6  C   UNL     1       1.493   1.231   1.516  0.00  0.00    +0.127 C 
ATOM      7  N   UNL     1       2.029   0.338   0.472  0.00  0.00    -0.292 N 
ATOM      8  C   UNL     1       2.498  -0.888   0.776  0.00  0.00    +0.248 C 
ATOM      9  O   UNL     1       2.814  -1.656  -0.112  0.00  0.00    -0.270 OA
ATOM     10  C   UNL     1      -0.863   0.546   1.034  0.00  0.00    +0.026 C 
ENDROOT
BRANCH   8  11
ATOM     11  C   UNL     1       2.630  -1.298   2.188  0.00  0.00    +0.056 A 
ATOM     12  C   UNL     1       3.082  -0.386   3.141  0.00  0.00    +0.025 A 
ATOM     13  C   UNL     1       3.201  -0.781   4.465  0.00  0.00    +0.012 A 
ATOM     14  C   UNL     1       2.870  -2.093   4.847  0.00  0.00    +0.051 A 
ATOM     15  C   UNL     1       2.420  -2.996   3.887  0.00  0.00    +0.047 A 
ATOM     16  C   UNL     1       2.296  -2.603   2.574  0.00  0.00    +0.055 A 
ATOM     17 CL   UNL     1       1.727  -3.734   1.386  0.00  0.00    -0.083 Cl
ATOM     18  N   UNL     1       3.084  -2.200   6.205  0.00  0.00    -0.349 N 
ATOM     19  C   UNL     1       3.531  -1.036   6.712  0.00  0.00    +0.098 A 
ATOM     20  C   UNL     1       3.634  -0.099   5.702  0.00  0.00    +0.052 A 
ATOM     21  C   UNL     1       2.854  -3.415   6.990  0.00  0.00    +0.149 C 
BRANCH  20  22
ATOM     22  C   UNL     1       4.081   1.287   5.830  0.00  0.00    +0.249 C 
ATOM     23  O   UNL     1       4.123   2.006   4.851  0.00  0.00    -0.282 OA
BRANCH  22  24
ATOM     24  C   UNL     1       4.485   1.820   7.164  0.00  0.00    +0.287 C 
ATOM     25  O   UNL     1       5.065   1.103   7.953  0.00  0.00    -0.266 OA
ATOM     26  N   UNL     1       4.206   3.097   7.492  0.00  0.00    -0.301 N 
ATOM     27  C   UNL     1       4.609   3.622   8.799  0.00  0.00    +0.132 C 
ATOM     28  C   UNL     1       3.499   3.960   6.542  0.00  0.00    +0.132 C 
ENDBRANCH  22  24
ENDBRANCH  20  22
ENDBRANCH   8  11
BRANCH   4  29
ATOM     29  C   UNL     1      -1.053   2.966  -0.646  0.00  0.00    +0.120 C 
BRANCH  29  30
ATOM     30  C   UNL     1      -0.842   3.782  -1.895  0.00  0.00    -0.033 A 
ATOM     31  C   UNL     1      -0.463   5.108  -1.797  0.00  0.00    +0.008 A 
ATOM     32  C   UNL     1      -0.269   5.858  -2.942  0.00  0.00    +0.038 A 
ATOM     33  C   UNL     1      -0.454   5.281  -4.186  0.00  0.00    +0.123 A 
ATOM     34  C   UNL     1      -0.834   3.953  -4.283  0.00  0.00    +0.038 A 
ATOM     35  C   UNL     1      -1.023   3.204  -3.137  0.00  0.00    +0.008 A 
ATOM     36  F   UNL     1      -0.265   6.013  -5.306  0.00  0.00    -0.205 F 
ENDBRANCH  29  30
ENDBRANCH   4  29
TORSDOF 5
