REMARK  Name = CHEMBL498183
REMARK  5 active torsions:
REMARK  status: ('A' for Active; 'I' for Inactive)
REMARK    1  A    between atoms: C_1  and  C_2
REMARK    2  A    between atoms: C_5  and  C_20
REMARK    3  A    between atoms: C_7  and  C_8
REMARK    4  A    between atoms: N_22  and  C_23
REMARK    5  A    between atoms: C_27  and  N_29
REMARK                            x       y       z     vdW  Elec       q    Type
REMARK                         _______ _______ _______ _____ _____    ______ ____
ROOT
ATOM      1  C   UNL     1      -0.109   1.505  -0.025  0.00  0.00    +0.044 C 
ATOM      2  C   UNL     1      -0.069  -0.002  -0.028  0.00  0.00    -0.043 A 
ATOM      3  C   UNL     1      -0.068  -0.689  -1.226  0.00  0.00    +0.005 A 
ATOM      4  C   UNL     1      -0.030  -2.069  -1.237  0.00  0.00    +0.013 A 
ATOM      5  C   UNL     1       0.007  -2.778  -0.034  0.00  0.00    +0.038 A 
ATOM      6  C   UNL     1       0.006  -2.089   1.177  0.00  0.00    +0.021 A 
ATOM      7  C   UNL     1      -0.026  -0.698   1.180  0.00  0.00    -0.014 A 
ENDROOT
BRANCH   7   8
ATOM      8  C   UNL     1      -0.022   0.043   2.465  0.00  0.00    -0.017 A 
ATOM      9  C   UNL     1       0.881   1.096   2.657  0.00  0.00    +0.009 A 
ATOM     10  C   UNL     1       0.902   1.791   3.831  0.00  0.00    +0.009 A 
ATOM     11  C   UNL     1       0.015   1.452   4.855  0.00  0.00    -0.011 A 
ATOM     12  C   UNL     1      -0.001   2.169   6.131  0.00  0.00    +0.026 A 
ATOM     13  C   UNL     1      -0.875   1.803   7.083  0.00  0.00    +0.086 A 
ATOM     14  N   UNL     1      -1.760   0.779   6.910  0.00  0.00    -0.329 N 
ATOM     15  H   UNL     1      -2.369   0.558   7.633  0.00  0.00    +0.168 HD
ATOM     16  C   UNL     1      -1.818   0.063   5.770  0.00  0.00    +0.256 A 
ATOM     17  O   UNL     1      -2.622  -0.844   5.652  0.00  0.00    -0.267 OA
ATOM     18  C   UNL     1      -0.901   0.390   4.671  0.00  0.00    +0.047 A 
ATOM     19  C   UNL     1      -0.917  -0.309   3.467  0.00  0.00    +0.022 A 
ENDBRANCH   7   8
BRANCH   5  20
ATOM     20  C   UNL     1       0.045  -4.256  -0.046  0.00  0.00    +0.248 C 
ATOM     21  O   UNL     1       0.078  -4.872   1.001  0.00  0.00    -0.270 OA
ATOM     22  N   UNL     1       0.045  -4.920  -1.219  0.00  0.00    -0.281 N 
ATOM     23  H   UNL     1      -0.046  -4.433  -2.053  0.00  0.00    +0.155 HD
BRANCH  22  24
ATOM     24  C   UNL     1       0.177  -6.312  -1.234  0.00  0.00    +0.035 A 
ATOM     25  C   UNL     1      -0.397  -7.076  -0.225  0.00  0.00    +0.023 A 
ATOM     26  C   UNL     1      -0.268  -8.451  -0.238  0.00  0.00    +0.004 A 
ATOM     27  C   UNL     1       0.432  -9.072  -1.255  0.00  0.00    +0.023 A 
ATOM     28  C   UNL     1       1.009  -8.315  -2.267  0.00  0.00    +0.032 A 
ATOM     29  C   UNL     1       0.876  -6.933  -2.259  0.00  0.00    +0.046 A 
BRANCH  28  30
ATOM     30  N   UNL     1       1.717  -8.943  -3.294  0.00  0.00    -0.325 N 
ATOM     31  C   UNL     1       2.441  -8.157  -4.306  0.00  0.00    +0.133 C 
ATOM     32  C   UNL     1       3.872  -8.698  -4.405  0.00  0.00    +0.178 C 
ATOM     33  O   UNL     1       3.828 -10.112  -4.611  0.00  0.00    -0.377 OA
ATOM     34  C   UNL     1       3.225 -10.841  -3.539  0.00  0.00    +0.178 C 
ATOM     35  C   UNL     1       1.766 -10.411  -3.392  0.00  0.00    +0.133 C 
ENDBRANCH  28  30
ENDBRANCH  22  24
ENDBRANCH   5  20
TORSDOF 4
