REMARK  Name = CHEMBL1209343
REMARK  12 active torsions:
REMARK  status: ('A' for Active; 'I' for Inactive)
REMARK    1  A    between atoms: C_1  and  C_2
REMARK    2  A    between atoms: C_2  and  C_3
REMARK    3  A    between atoms: C_2  and  C_4
REMARK    4  A    between atoms: C_2  and  C_5
REMARK    5  A    between atoms: C_7  and  N_29
REMARK    6  A    between atoms: N_8  and  C_10
REMARK    7  A    between atoms: C_14  and  C_16
REMARK    8  A    between atoms: C_16  and  N_17
REMARK    9  A    between atoms: C_18  and  C_20
REMARK   10  A    between atoms: C_20  and  N_21
REMARK   11  A    between atoms: C_22  and  C_24
REMARK   12  A    between atoms: N_32  and  C_33
REMARK                            x       y       z     vdW  Elec       q    Type
REMARK                         _______ _______ _______ _____ _____    ______ ____
ROOT
ATOM      1  C   UNL     1       0.707  -0.488  -1.239  0.00  0.00    +0.071 A 
ATOM      2  C   UNL     1       2.088  -0.468  -1.454  0.00  0.00    +0.069 A 
ATOM      3  C   UNL     1       2.327  -0.998  -2.685  0.00  0.00    +0.130 A 
ATOM      4  N   UNL     1       1.125  -1.340  -3.222  0.00  0.00    -0.218 N 
ATOM      5  N   UNL     1       0.131  -1.013  -2.291  0.00  0.00    -0.169 NA
ENDROOT
BRANCH   4   6
ATOM      6  C   UNL     1       0.918  -1.921  -4.481  0.00  0.00    +0.068 A 
ATOM      7  C   UNL     1       1.736  -1.577  -5.549  0.00  0.00    +0.028 A 
ATOM      8  C   UNL     1       1.530  -2.151  -6.788  0.00  0.00    +0.002 A 
ATOM      9  C   UNL     1       0.510  -3.067  -6.966  0.00  0.00    +0.005 A 
ATOM     10  C   UNL     1      -0.307  -3.412  -5.905  0.00  0.00    -0.028 A 
ATOM     11  C   UNL     1      -0.102  -2.845  -4.662  0.00  0.00    +0.033 A 
BRANCH  10  12
ATOM     12  C   UNL     1      -1.417  -4.411  -6.103  0.00  0.00    +0.139 C 
BRANCH  12  13
ATOM     13  N   UNL     1      -0.914  -5.760  -5.836  0.00  0.00    -0.310 N 
ATOM     14  C   UNL     1      -1.736  -6.822  -5.951  0.00  0.00    +0.230 C 
ATOM     15  O   UNL     1      -2.893  -6.660  -6.276  0.00  0.00    -0.274 OA
ATOM     16  H   UNL     1       0.012  -5.890  -5.576  0.00  0.00    +0.149 HD
BRANCH  14  17
ATOM     17  C   UNL     1      -1.218  -8.210  -5.676  0.00  0.00    +0.200 C 
BRANCH  17  18
ATOM     18  N   UNL     1      -2.298  -9.181  -5.869  0.00  0.00    -0.300 N 
ATOM     19  C   UNL     1      -2.065 -10.495  -5.677  0.00  0.00    +0.280 C 
ATOM     20  O   UNL     1      -0.958 -10.874  -5.344  0.00  0.00    -0.267 OA
ATOM     21  H   UNL     1      -3.181  -8.879  -6.134  0.00  0.00    +0.150 HD
BRANCH  19  22
ATOM     22  C   UNL     1      -3.146 -11.467  -5.870  0.00  0.00    +0.189 A 
ATOM     23  C   UNL     1      -3.048 -12.819  -5.705  0.00  0.00    +0.054 A 
ATOM     24  C   UNL     1      -4.314 -13.353  -5.992  0.00  0.00    +0.042 A 
ATOM     25  C   UNL     1      -5.119 -12.317  -6.315  0.00  0.00    +0.196 A 
ATOM     26  O   UNL     1      -4.413 -11.182  -6.236  0.00  0.00    -0.458 OA
ENDBRANCH  19  22
ENDBRANCH  17  18
ENDBRANCH  14  17
ENDBRANCH  12  13
ENDBRANCH  10  12
ENDBRANCH   4   6
BRANCH   3  27
ATOM     27  N   UNL     1       3.576  -1.160  -3.285  0.00  0.00    -0.254 N 
ATOM     28  C   UNL     1       4.691  -0.774  -2.635  0.00  0.00    +0.309 C 
ATOM     29  O   UNL     1       4.609  -0.285  -1.525  0.00  0.00    -0.252 OA
ATOM     30  N   UNL     1       5.898  -0.931  -3.215  0.00  0.00    -0.269 N 
ATOM     31  H   UNL     1       3.641  -1.550  -4.171  0.00  0.00    +0.158 HD
ATOM     32  H   UNL     1       5.969  -1.382  -4.071  0.00  0.00    +0.156 HD
BRANCH  30  33
ATOM     33  C   UNL     1       7.047  -0.443  -2.583  0.00  0.00    +0.035 A 
ATOM     34  C   UNL     1       7.148  -0.480  -1.198  0.00  0.00    +0.023 A 
ATOM     35  C   UNL     1       8.284   0.002  -0.577  0.00  0.00    +0.002 A 
ATOM     36  C   UNL     1       9.319   0.521  -1.333  0.00  0.00    +0.000 A 
ATOM     37  C   UNL     1       9.221   0.559  -2.711  0.00  0.00    +0.002 A 
ATOM     38  C   UNL     1       8.091   0.074  -3.339  0.00  0.00    +0.023 A 
ENDBRANCH  30  33
ENDBRANCH   3  27
BRANCH   1  40
ATOM     39  C   UNL     1      -0.023   1.534  -0.004  0.00  0.00    +0.017 C 
ATOM     40  C   UNL     1       0.001   0.004  -0.002  0.00  0.00    +0.006 C 
ATOM     41  C   UNL     1       0.743  -0.493   1.240  0.00  0.00    +0.017 C 
ATOM     42  C   UNL     1      -1.433  -0.528   0.013  0.00  0.00    +0.017 C 
ENDBRANCH   1  40
TORSDOF 9
