REMARK  Name = CHEMBL495290
REMARK  5 active torsions:
REMARK  status: ('A' for Active; 'I' for Inactive)
REMARK    1  A    between atoms: C_1  and  C_2
REMARK    2  A    between atoms: C_7  and  C_8
REMARK    3  A    between atoms: C_23  and  C_25
REMARK    4  A    between atoms: C_26  and  C_28
REMARK    5  A    between atoms: N_32  and  C_33
REMARK                            x       y       z     vdW  Elec       q    Type
REMARK                         _______ _______ _______ _____ _____    ______ ____
ROOT
ATOM      1  C   UNL     1       0.036  -0.010   2.348  0.00  0.00    -0.013 A 
ATOM      2  C   UNL     1      -1.071   0.776   2.703  0.00  0.00    +0.009 A 
ATOM      3  C   UNL     1      -1.092   1.463   3.878  0.00  0.00    +0.012 A 
ATOM      4  C   UNL     1       0.002   1.387   4.747  0.00  0.00    +0.025 A 
ATOM      5  C   UNL     1       1.128   0.595   4.399  0.00  0.00    +0.003 A 
ATOM      6  C   UNL     1       1.131  -0.108   3.191  0.00  0.00    +0.018 A 
ATOM      7  C   UNL     1       2.204   0.549   5.307  0.00  0.00    +0.112 A 
ATOM      8  N   UNL     1       2.125   1.233   6.425  0.00  0.00    -0.282 N 
ATOM      9  N   UNL     1       1.113   1.949   6.746  0.00  0.00    -0.158 NA
ATOM     10  C   UNL     1       0.042   2.075   5.982  0.00  0.00    +0.150 A 
ATOM     11  N   UNL     1      -1.022   2.865   6.383  0.00  0.00    -0.308 N 
ATOM     12  C   UNL     1      -1.026   4.309   6.112  0.00  0.00    +0.126 C 
ATOM     13  C   UNL     1      -1.225   5.057   7.436  0.00  0.00    +0.126 C 
ATOM     14  N   UNL     1      -2.371   4.466   8.141  0.00  0.00    -0.298 N 
ATOM     15  C   UNL     1      -2.367   3.021   8.413  0.00  0.00    +0.130 C 
ATOM     16  C   UNL     1      -2.171   2.273   7.084  0.00  0.00    +0.089 C 
ATOM     17  C   UNL     1      -1.897   0.793   7.360  0.00  0.00    +0.029 C 
ATOM     18  C   UNL     1      -3.406   5.235   8.532  0.00  0.00    +0.213 C 
ATOM     19  O   UNL     1      -4.302   4.755   9.194  0.00  0.00    -0.276 OA
ATOM     20  C   UNL     1      -3.451   6.691   8.147  0.00  0.00    +0.109 C 
ATOM     21  H   UNL     1       2.873   1.193   7.041  0.00  0.00    +0.188 HD
ENDROOT
BRANCH   1  28
ATOM     22  C   UNL     1       0.010   1.457  -0.135  0.00  0.00    +0.044 C 
ATOM     23  C   UNL     1       0.018  -0.050  -0.142  0.00  0.00    -0.039 A 
ATOM     24  C   UNL     1       0.019  -0.732  -1.347  0.00  0.00    +0.005 A 
ATOM     25  C   UNL     1       0.026  -2.110  -1.370  0.00  0.00    +0.015 A 
ATOM     26  C   UNL     1       0.034  -2.828  -0.173  0.00  0.00    +0.063 A 
ATOM     27  C   UNL     1       0.034  -2.147   1.052  0.00  0.00    +0.177 A 
ATOM     28  C   UNL     1       0.031  -0.746   1.061  0.00  0.00    +0.031 A 
ATOM     29  O   UNL     1       0.042  -3.077   2.028  0.00  0.00    -0.352 OA
ATOM     30  N   UNL     1       0.047  -4.367   1.450  0.00  0.00    -0.062 NA
ATOM     31  C   UNL     1       0.043  -4.263   0.149  0.00  0.00    +0.170 A 
ATOM     32  N   UNL     1       0.045  -5.311  -0.760  0.00  0.00    -0.323 N 
ATOM     33  H   UNL     1       0.041  -5.127  -1.712  0.00  0.00    +0.148 HD
BRANCH  32  34
ATOM     34  C   UNL     1       0.054  -6.696  -0.282  0.00  0.00    +0.072 C 
ATOM     35  C   UNL     1       0.993  -7.679  -0.984  0.00  0.00    +0.024 C 
ATOM     36  C   UNL     1      -0.517  -7.768  -1.212  0.00  0.00    +0.024 C 
ENDBRANCH  32  34
ENDBRANCH   1  28
TORSDOF 2
