REMARK  Name = CHEMBL498188
REMARK  7 active torsions:
REMARK  status: ('A' for Active; 'I' for Inactive)
REMARK    1  A    between atoms: C_1  and  C_2
REMARK    2  A    between atoms: C_5  and  C_24
REMARK    3  A    between atoms: C_7  and  C_8
REMARK    4  A    between atoms: C_11  and  C_14
REMARK    5  A    between atoms: C_16  and  N_20
REMARK    6  A    between atoms: C_21  and  C_23
REMARK    7  A    between atoms: N_26  and  C_27
REMARK                            x       y       z     vdW  Elec       q    Type
REMARK                         _______ _______ _______ _____ _____    ______ ____
ROOT
ATOM      1  C   UNL     1      -0.047   1.502   0.011  0.00  0.00    +0.044 C 
ATOM      2  C   UNL     1      -0.019  -0.004   0.003  0.00  0.00    -0.043 A 
ATOM      3  C   UNL     1      -0.014  -0.687  -1.199  0.00  0.00    +0.005 A 
ATOM      4  C   UNL     1       0.011  -2.067  -1.215  0.00  0.00    +0.013 A 
ATOM      5  C   UNL     1       0.031  -2.781  -0.015  0.00  0.00    +0.038 A 
ATOM      6  C   UNL     1       0.026  -2.098   1.199  0.00  0.00    +0.021 A 
ATOM      7  C   UNL     1       0.007  -0.707   1.207  0.00  0.00    -0.014 A 
ENDROOT
BRANCH   7   8
ATOM      8  C   UNL     1       0.007   0.029   2.496  0.00  0.00    -0.018 A 
ATOM      9  C   UNL     1       0.913   1.069   2.704  0.00  0.00    +0.009 A 
ATOM     10  C   UNL     1       0.913   1.752   3.901  0.00  0.00    +0.010 A 
ATOM     11  C   UNL     1       0.009   1.403   4.903  0.00  0.00    +0.002 A 
ATOM     12  C   UNL     1      -0.896   0.363   4.694  0.00  0.00    +0.010 A 
ATOM     13  C   UNL     1      -0.901  -0.316   3.496  0.00  0.00    +0.009 A 
BRANCH  11  14
ATOM     14  C   UNL     1       0.010   2.138   6.191  0.00  0.00    +0.094 A 
ATOM     15  C   UNL     1      -0.839   1.889   7.286  0.00  0.00    +0.073 A 
ATOM     16  C   UNL     1      -0.522   2.772   8.268  0.00  0.00    +0.121 A 
ATOM     17  N   UNL     1       0.492   3.553   7.810  0.00  0.00    -0.263 N 
ATOM     18  N   UNL     1       0.810   3.134   6.512  0.00  0.00    -0.172 NA
ATOM     19  H   UNL     1       0.922   4.273   8.298  0.00  0.00    +0.190 HD
BRANCH  16  20
ATOM     20  N   UNL     1      -1.129   2.863   9.521  0.00  0.00    -0.271 N 
ATOM     21  C   UNL     1      -2.130   2.021   9.847  0.00  0.00    +0.215 C 
ATOM     22  O   UNL     1      -2.503   1.185   9.051  0.00  0.00    -0.276 OA
ATOM     23  C   UNL     1      -2.785   2.118  11.200  0.00  0.00    +0.109 C 
ATOM     24  H   UNL     1      -0.830   3.531  10.157  0.00  0.00    +0.156 HD
ENDBRANCH  16  20
ENDBRANCH  11  14
ENDBRANCH   7   8
BRANCH   5  25
ATOM     25  C   UNL     1       0.057  -4.259  -0.034  0.00  0.00    +0.248 C 
ATOM     26  O   UNL     1       0.074  -4.880   1.012  0.00  0.00    -0.270 OA
ATOM     27  N   UNL     1       0.061  -4.919  -1.209  0.00  0.00    -0.281 N 
ATOM     28  H   UNL     1      -0.022  -4.427  -2.041  0.00  0.00    +0.155 HD
BRANCH  27  29
ATOM     29  C   UNL     1       0.184  -6.308  -1.229  0.00  0.00    +0.038 A 
ATOM     30  C   UNL     1      -0.394  -7.092  -0.228  0.00  0.00    +0.041 A 
ATOM     31  C   UNL     1      -0.253  -8.461  -0.280  0.00  0.00    +0.086 A 
ATOM     32  N   UNL     1       0.420  -9.038  -1.260  0.00  0.00    -0.350 N 
ATOM     33  C   UNL     1       0.984  -8.332  -2.229  0.00  0.00    +0.100 A 
ATOM     34  C   UNL     1       0.881  -6.947  -2.249  0.00  0.00    +0.065 A 
ATOM     35  N   UNL     1       1.682  -8.985  -3.238  0.00  0.00    -0.317 N 
ATOM     36  C   UNL     1       2.362  -8.335  -4.368  0.00  0.00    +0.106 C 
ATOM     37  C   UNL     1       2.974  -9.452  -5.239  0.00  0.00    +0.020 C 
ATOM     38  C   UNL     1       2.124 -10.693  -4.859  0.00  0.00    +0.020 C 
ATOM     39  C   UNL     1       1.869 -10.443  -3.350  0.00  0.00    +0.106 C 
ATOM     40  H   UNL     1       0.503 -10.004  -1.270  0.00  0.00    +0.166 HD
ENDBRANCH  27  29
ENDBRANCH   5  25
TORSDOF 5
