REMARK  Name = CHEMBL303144
REMARK  8 active torsions:
REMARK  status: ('A' for Active; 'I' for Inactive)
REMARK    1  A    between atoms: C_1  and  C_2
REMARK    2  A    between atoms: C_2  and  C_4
REMARK    3  A    between atoms: C_2  and  N_10
REMARK    4  A    between atoms: C_13  and  C_17
REMARK    5  A    between atoms: C_18  and  C_29
REMARK    6  A    between atoms: C_20  and  C_23
REMARK    7  A    between atoms: N_21  and  C_22
REMARK    8  A    between atoms: C_33  and  C_35
REMARK                            x       y       z     vdW  Elec       q    Type
REMARK                         _______ _______ _______ _____ _____    ______ ____
ROOT
ATOM      1  C   UNL     1      -1.569  -0.097  -4.868  0.00  0.00    +0.074 A 
ATOM      2  C   UNL     1      -0.827   1.033  -5.160  0.00  0.00    +0.072 A 
ATOM      3  N   UNL     1      -0.466   0.955  -6.454  0.00  0.00    -0.342 N 
ATOM      4  C   UNL     1      -0.937  -0.145  -6.972  0.00  0.00    +0.091 A 
ATOM      5  N   UNL     1      -1.620  -0.832  -6.031  0.00  0.00    -0.331 N 
ATOM      6  C   UNL     1      -2.294  -2.120  -6.214  0.00  0.00    +0.150 C 
ATOM      7  H   UNL     1       0.062   1.615  -6.929  0.00  0.00    +0.167 HD
ENDROOT
BRANCH   1  11
ATOM      8  N   UNL     1      -1.372  -0.511   0.012  0.00  0.00    -0.322 N 
ATOM      9  C   UNL     1      -2.072  -0.647  -1.181  0.00  0.00    +0.120 A 
ATOM     10  C   UNL     1      -1.460  -0.305  -2.379  0.00  0.00    +0.053 A 
ATOM     11  C   UNL     1      -2.177  -0.448  -3.570  0.00  0.00    +0.005 A 
ATOM     12  C   UNL     1      -3.492  -0.933  -3.499  0.00  0.00    +0.030 A 
ATOM     13  C   UNL     1      -4.024  -1.249  -2.269  0.00  0.00    +0.113 A 
ATOM     14  N   UNL     1      -3.315  -1.106  -1.163  0.00  0.00    -0.240 NA
ATOM     15  H   UNL     1      -1.794  -0.752   0.852  0.00  0.00    +0.148 HD
BRANCH   8  17
ATOM     16  C   UNL     1      -0.019   1.526   0.010  0.00  0.00    +0.033 C 
ATOM     17  C   UNL     1       0.002  -0.004   0.002  0.00  0.00    +0.099 C 
BRANCH  17  18
ATOM     18  C   UNL     1       0.731  -0.503   1.223  0.00  0.00    -0.028 A 
ATOM     19  C   UNL     1       0.081  -0.558   2.442  0.00  0.00    +0.005 A 
ATOM     20  C   UNL     1       0.749  -1.016   3.562  0.00  0.00    +0.000 A 
ATOM     21  C   UNL     1       2.068  -1.420   3.463  0.00  0.00    +0.000 A 
ATOM     22  C   UNL     1       2.718  -1.365   2.244  0.00  0.00    +0.000 A 
ATOM     23  C   UNL     1       2.048  -0.911   1.123  0.00  0.00    +0.005 A 
ENDBRANCH  17  18
ENDBRANCH   8  17
ENDBRANCH   1  11
BRANCH   4  24
ATOM     24  C   UNL     1      -0.744  -0.586  -8.400  0.00  0.00    +0.050 C 
ATOM     25  C   UNL     1       0.596  -1.315  -8.534  0.00  0.00    -0.008 C 
ATOM     26  C   UNL     1       0.822  -1.690 -10.001  0.00  0.00    -0.082 C 
ATOM     27  N   UNL     1       0.841  -0.473 -10.822  0.00  0.00    +0.379 N 
ATOM     28  C   UNL     1      -0.465   0.193 -10.755  0.00  0.00    -0.082 C 
ATOM     29  C   UNL     1      -0.741   0.640  -9.318  0.00  0.00    -0.008 C 
ATOM     30  H   UNL     1       1.554   0.152 -10.480  0.00  0.00    -0.086 HD
ATOM     31  H   UNL     1       1.043  -0.719 -11.780  0.00  0.00    -0.086 HD
ENDBRANCH   4  24
BRANCH   2  32
ATOM     32  C   UNL     1      -0.491   2.129  -4.221  0.00  0.00    +0.001 A 
ATOM     33  C   UNL     1      -1.470   2.651  -3.376  0.00  0.00    +0.010 A 
ATOM     34  C   UNL     1      -1.151   3.671  -2.503  0.00  0.00    +0.001 A 
ATOM     35  C   UNL     1       0.136   4.176  -2.465  0.00  0.00    +0.012 A 
ATOM     36  C   UNL     1       1.112   3.662  -3.300  0.00  0.00    +0.055 A 
ATOM     37  C   UNL     1       0.806   2.638  -4.173  0.00  0.00    +0.022 A 
BRANCH  36  38
ATOM     38  C   UNL     1       2.512   4.218  -3.253  0.00  0.00    +0.417 C 
ATOM     39  F   UNL     1       2.577   5.235  -2.295  0.00  0.00    -0.166 F 
ATOM     40  F   UNL     1       3.407   3.198  -2.912  0.00  0.00    -0.166 F 
ATOM     41  F   UNL     1       2.850   4.736  -4.508  0.00  0.00    -0.166 F 
ENDBRANCH  36  38
ENDBRANCH   2  32
TORSDOF 6
