REMARK  Name = CHEMBL70053
REMARK  8 active torsions:
REMARK  status: ('A' for Active; 'I' for Inactive)
REMARK    1  A    between atoms: C_1  and  C_2
REMARK    2  A    between atoms: C_2  and  C_32
REMARK    3  A    between atoms: C_5  and  C_8
REMARK    4  A    between atoms: C_11  and  C_21
REMARK    5  A    between atoms: C_12  and  C_14
REMARK    6  A    between atoms: N_27  and  C_28
REMARK    7  A    between atoms: C_28  and  C_29
REMARK    8  A    between atoms: N_37  and  C_40
REMARK                            x       y       z     vdW  Elec       q    Type
REMARK                         _______ _______ _______ _____ _____    ______ ____
ROOT
ATOM      1  C   UNL     1      -1.363  -3.842   1.026  0.00  0.00    +0.165 A 
ATOM      2  N   UNL     1      -0.544  -4.809   1.488  0.00  0.00    -0.336 N 
ATOM      3  H   UNL     1       0.304  -4.676   1.940  0.00  0.00    +0.167 HD
ATOM      4  C   UNL     1      -1.134  -6.020   1.200  0.00  0.00    +0.093 A 
ATOM      5  C   UNL     1      -2.323  -5.725   0.556  0.00  0.00    +0.098 A 
ATOM      6  N   UNL     1      -2.416  -4.385   0.480  0.00  0.00    -0.227 NA
ENDROOT
BRANCH   4   7
ATOM      7  C   UNL     1      -0.606  -7.359   1.515  0.00  0.00    +0.094 A 
ATOM      8  C   UNL     1       0.771  -7.561   1.685  0.00  0.00    +0.050 A 
ATOM      9  C   UNL     1       1.218  -8.834   1.980  0.00  0.00    +0.116 A 
ATOM     10  N   UNL     1       0.340  -9.820   2.091  0.00  0.00    -0.223 NA
ATOM     11  C   UNL     1      -0.957  -9.603   1.925  0.00  0.00    +0.216 A 
ATOM     12  N   UNL     1      -1.431  -8.399   1.648  0.00  0.00    -0.213 NA
ATOM     13  N   UNL     1      -1.839 -10.663   2.051  0.00  0.00    -0.313 N 
ATOM     14  H   UNL     1      -2.791 -10.518   1.932  0.00  0.00    +0.149 HD
BRANCH  13  15
ATOM     15  C   UNL     1      -1.335 -12.002   2.363  0.00  0.00    +0.108 C 
BRANCH  15  16
ATOM     16  C   UNL     1      -2.507 -12.982   2.446  0.00  0.00    +0.006 C 
ATOM     17  C   UNL     1      -2.778 -13.648   3.796  0.00  0.00    +0.005 C 
ATOM     18  C   UNL     1      -2.178 -14.462   2.648  0.00  0.00    +0.005 C 
ENDBRANCH  15  16
ENDBRANCH  13  15
ENDBRANCH   4   7
BRANCH   1  23
ATOM     19  C   UNL     1       0.247   1.504   0.135  0.00  0.00    +0.025 C 
ATOM     20  C   UNL     1       0.001   0.000  -0.000  0.00  0.00    +0.091 C 
ATOM     21  C   UNL     1      -1.507  -0.276   0.019  0.00  0.00    +0.181 C 
ATOM     22  O   UNL     1      -1.719  -1.692   0.026  0.00  0.00    -0.344 OA
ATOM     23  C   UNL     1      -1.105  -2.361   1.130  0.00  0.00    +0.318 C 
ATOM     24  O   UNL     1       0.304  -2.120   1.109  0.00  0.00    -0.344 OA
ATOM     25  C   UNL     1       0.654  -0.735   1.175  0.00  0.00    +0.181 C 
BRANCH  20  26
ATOM     26  C   UNL     1       0.591  -0.494  -1.296  0.00  0.00    +0.226 C 
ATOM     27  O   UNL     1      -0.095  -1.124  -2.073  0.00  0.00    -0.275 OA
ATOM     28  N   UNL     1       1.880  -0.236  -1.591  0.00  0.00    -0.304 N 
ATOM     29  C   UNL     1       2.763   0.420  -0.614  0.00  0.00    +0.089 C 
ATOM     30  C   UNL     1       4.048  -0.405  -0.488  0.00  0.00    -0.060 C 
ATOM     31  N   UNL     1       4.644  -0.586  -1.818  0.00  0.00    +0.380 N 
ATOM     32  C   UNL     1       3.745  -1.380  -2.665  0.00  0.00    -0.060 C 
ATOM     33  C   UNL     1       2.447  -0.608  -2.896  0.00  0.00    +0.089 C 
ATOM     34  C   UNL     1       5.931  -1.282  -1.685  0.00  0.00    -0.096 C 
ATOM     35  H   UNL     1       4.795   0.317  -2.243  0.00  0.00    -0.082 HD
ENDBRANCH  20  26
ENDBRANCH   1  23
BRANCH   5  36
ATOM     36  C   UNL     1      -3.312  -6.703   0.048  0.00  0.00    +0.003 A 
ATOM     37  C   UNL     1      -2.885  -7.923  -0.475  0.00  0.00    +0.013 A 
ATOM     38  C   UNL     1      -3.810  -8.832  -0.947  0.00  0.00    +0.039 A 
ATOM     39  C   UNL     1      -5.162  -8.533  -0.903  0.00  0.00    +0.123 A 
ATOM     40  C   UNL     1      -5.592  -7.322  -0.385  0.00  0.00    +0.039 A 
ATOM     41  C   UNL     1      -4.675  -6.410   0.095  0.00  0.00    +0.013 A 
ATOM     42  F   UNL     1      -6.064  -9.425  -1.367  0.00  0.00    -0.205 F 
ENDBRANCH   5  36
TORSDOF 6
