REMARK  Name = CHEMBL255288
REMARK  8 active torsions:
REMARK  status: ('A' for Active; 'I' for Inactive)
REMARK    1  A    between atoms: C_1  and  C_2
REMARK    2  A    between atoms: C_5  and  C_20
REMARK    3  A    between atoms: C_7  and  N_8
REMARK    4  A    between atoms: C_9  and  C_11
REMARK    5  A    between atoms: N_16  and  C_17
REMARK    6  A    between atoms: C_17  and  C_18
REMARK    7  A    between atoms: C_17  and  C_19
REMARK    8  A    between atoms: N_22  and  C_23
REMARK                            x       y       z     vdW  Elec       q    Type
REMARK                         _______ _______ _______ _____ _____    ______ ____
ROOT
ATOM      1  C   UNL     1      -0.010   1.493   0.004  0.00  0.00    +0.045 C 
ATOM      2  C   UNL     1       0.015  -0.014   0.002  0.00  0.00    -0.029 A 
ATOM      3  C   UNL     1       0.027  -0.701  -1.198  0.00  0.00    +0.006 A 
ATOM      4  C   UNL     1       0.049  -2.081  -1.208  0.00  0.00    +0.013 A 
ATOM      5  C   UNL     1       0.060  -2.788  -0.003  0.00  0.00    +0.039 A 
ATOM      6  C   UNL     1       0.049  -2.094   1.207  0.00  0.00    +0.036 A 
ATOM      7  C   UNL     1       0.031  -0.708   1.206  0.00  0.00    +0.037 A 
ENDROOT
BRANCH   7   8
ATOM      8  N   UNL     1       0.025  -0.008   2.417  0.00  0.00    -0.281 N 
ATOM      9  C   UNL     1      -0.632  -0.509   3.481  0.00  0.00    +0.256 C 
ATOM     10  O   UNL     1      -1.151  -1.609   3.414  0.00  0.00    -0.269 OA
ATOM     11  H   UNL     1       0.494   0.838   2.490  0.00  0.00    +0.155 HD
BRANCH   9  12
ATOM     12  C   UNL     1      -0.723   0.268   4.717  0.00  0.00    +0.095 A 
ATOM     13  C   UNL     1      -1.336  -0.050   5.920  0.00  0.00    +0.133 A 
ATOM     14  N   UNL     1      -1.257   0.850   6.868  0.00  0.00    -0.233 NA
ATOM     15  C   UNL     1      -0.626   1.996   6.681  0.00  0.00    +0.159 A 
ATOM     16  S   UNL     1      -0.068   1.885   5.097  0.00  0.00    -0.048 S 
ATOM     17  N   UNL     1      -0.458   3.033   7.574  0.00  0.00    -0.321 N 
ATOM     18  H   UNL     1       0.031   3.828   7.308  0.00  0.00    +0.148 HD
BRANCH  17  19
ATOM     19  C   UNL     1      -1.019   2.936   8.924  0.00  0.00    +0.066 C 
ATOM     20  C   UNL     1      -0.224   3.835   9.872  0.00  0.00    +0.027 C 
ATOM     21  C   UNL     1      -2.482   3.384   8.902  0.00  0.00    +0.027 C 
ENDBRANCH  17  19
ENDBRANCH   9  12
ENDBRANCH   7   8
BRANCH   5  22
ATOM     22  C   UNL     1       0.084  -4.266  -0.011  0.00  0.00    +0.249 C 
ATOM     23  O   UNL     1       0.093  -4.879   1.038  0.00  0.00    -0.270 OA
ATOM     24  N   UNL     1       0.094  -4.933  -1.182  0.00  0.00    -0.267 N 
ATOM     25  H   UNL     1       0.087  -4.444  -2.019  0.00  0.00    +0.157 HD
BRANCH  24  26
ATOM     26  C   UNL     1       0.117  -6.327  -1.189  0.00  0.00    +0.120 A 
ATOM     27  C   UNL     1       0.124  -7.138  -0.096  0.00  0.00    +0.064 A 
ATOM     28  C   UNL     1       0.146  -8.461  -0.544  0.00  0.00    +0.136 A 
ATOM     29  N   UNL     1       0.152  -8.455  -1.852  0.00  0.00    -0.181 NA
ATOM     30  N   UNL     1       0.129  -7.124  -2.289  0.00  0.00    -0.264 N 
ATOM     31  H   UNL     1       0.124  -6.825  -3.211  0.00  0.00    +0.190 HD
ENDBRANCH  24  26
ENDBRANCH   5  22
TORSDOF 5
