REMARK  Name = CHEMBL523880
REMARK  8 active torsions:
REMARK  status: ('A' for Active; 'I' for Inactive)
REMARK    1  A    between atoms: C_1  and  C_2
REMARK    2  A    between atoms: C_2  and  C_3
REMARK    3  A    between atoms: C_2  and  C_26
REMARK    4  A    between atoms: C_3  and  N_4
REMARK    5  A    between atoms: C_7  and  C_11
REMARK    6  A    between atoms: C_12  and  C_19
REMARK    7  A    between atoms: C_14  and  S_17
REMARK    8  A    between atoms: S_17  and  C_18
REMARK                            x       y       z     vdW  Elec       q    Type
REMARK                         _______ _______ _______ _____ _____    ______ ____
ROOT
ATOM      1  N   UNL     1       2.125  -0.091  -1.209  0.00  0.00    -0.328 N 
ATOM      2  C   UNL     1       2.982  -0.428  -2.252  0.00  0.00    +0.119 A 
ATOM      3  C   UNL     1       2.494  -1.145  -3.336  0.00  0.00    +0.053 A 
ATOM      4  C   UNL     1       3.368  -1.476  -4.374  0.00  0.00    +0.007 A 
ATOM      5  C   UNL     1       4.704  -1.066  -4.273  0.00  0.00    +0.030 A 
ATOM      6  C   UNL     1       5.107  -0.357  -3.163  0.00  0.00    +0.113 A 
ATOM      7  N   UNL     1       4.252  -0.057  -2.201  0.00  0.00    -0.240 NA
ATOM      8  H   UNL     1       2.459   0.413  -0.451  0.00  0.00    +0.147 HD
ENDROOT
BRANCH   4   9
ATOM      9  C   UNL     1       2.895  -2.240  -5.551  0.00  0.00    +0.098 A 
ATOM     10  C   UNL     1       3.333  -2.087  -6.852  0.00  0.00    +0.075 A 
ATOM     11  N   UNL     1       2.624  -2.998  -7.610  0.00  0.00    -0.332 N 
ATOM     12  C   UNL     1       1.791  -3.666  -6.764  0.00  0.00    +0.167 A 
ATOM     13  N   UNL     1       1.963  -3.214  -5.544  0.00  0.00    -0.221 NA
ATOM     14  H   UNL     1       2.704  -3.136  -8.567  0.00  0.00    +0.168 HD
BRANCH  10  15
ATOM     15  C   UNL     1       4.354  -1.138  -7.335  0.00  0.00    +0.001 A 
ATOM     16  C   UNL     1       4.340   0.190  -6.901  0.00  0.00    +0.013 A 
ATOM     17  C   UNL     1       5.298   1.072  -7.356  0.00  0.00    +0.039 A 
ATOM     18  C   UNL     1       6.272   0.643  -8.243  0.00  0.00    +0.123 A 
ATOM     19  C   UNL     1       6.292  -0.672  -8.678  0.00  0.00    +0.039 A 
ATOM     20  C   UNL     1       5.343  -1.565  -8.225  0.00  0.00    +0.013 A 
ATOM     21  F   UNL     1       7.207   1.512  -8.686  0.00  0.00    -0.205 F 
ENDBRANCH  10  15
BRANCH  12  22
ATOM     22  S   UNL     1       0.668  -4.940  -7.232  0.00  0.00    -0.091 S 
ATOM     23  C   UNL     1      -0.134  -5.412  -5.675  0.00  0.00    +0.093 C 
ENDBRANCH  12  22
ENDBRANCH   4   9
BRANCH   1  24
ATOM     24  C   UNL     1       0.718  -0.497  -1.257  0.00  0.00    +0.110 C 
BRANCH  24  26
ATOM     25  C   UNL     1      -0.019   1.526   0.010  0.00  0.00    +0.014 C 
ATOM     26  C   UNL     1       0.002  -0.004   0.002  0.00  0.00    +0.033 C 
BRANCH  26  27
ATOM     27  C   UNL     1      -1.412  -0.526   0.013  0.00  0.00    -0.043 A 
ATOM     28  C   UNL     1      -2.276  -0.202  -1.017  0.00  0.00    +0.004 A 
ATOM     29  C   UNL     1      -3.572  -0.681  -1.007  0.00  0.00    +0.000 A 
ATOM     30  C   UNL     1      -4.005  -1.483   0.032  0.00  0.00    +0.000 A 
ATOM     31  C   UNL     1      -3.141  -1.807   1.061  0.00  0.00    +0.000 A 
ATOM     32  C   UNL     1      -1.843  -1.332   1.049  0.00  0.00    +0.004 A 
ENDBRANCH  26  27
ENDBRANCH  24  26
ENDBRANCH   1  24
TORSDOF 6
