REMARK  Name = CHEMBL497563
REMARK  5 active torsions:
REMARK  status: ('A' for Active; 'I' for Inactive)
REMARK    1  A    between atoms: C_1  and  C_2
REMARK    2  A    between atoms: C_5  and  C_23
REMARK    3  A    between atoms: C_7  and  C_8
REMARK    4  A    between atoms: C_16  and  C_17
REMARK    5  A    between atoms: N_25  and  C_26
REMARK                            x       y       z     vdW  Elec       q    Type
REMARK                         _______ _______ _______ _____ _____    ______ ____
ROOT
ATOM      1  C   UNL     1       0.025   0.029   2.495  0.00  0.00    -0.014 A 
ATOM      2  C   UNL     1       0.938   1.068   2.702  0.00  0.00    +0.009 A 
ATOM      3  C   UNL     1       0.950   1.752   3.882  0.00  0.00    +0.014 A 
ATOM      4  C   UNL     1       0.044   1.415   4.893  0.00  0.00    +0.045 A 
ATOM      5  C   UNL     1      -0.877   0.372   4.694  0.00  0.00    +0.168 A 
ATOM      6  C   UNL     1      -0.885  -0.314   3.488  0.00  0.00    +0.058 A 
ATOM      7  O   UNL     1      -1.612   0.272   5.820  0.00  0.00    -0.354 OA
ATOM      8  N   UNL     1      -1.176   1.242   6.751  0.00  0.00    -0.082 NA
ATOM      9  C   UNL     1      -0.203   1.933   6.241  0.00  0.00    +0.094 A 
ENDROOT
BRANCH   9  10
ATOM     10  C   UNL     1       0.537   3.061   6.912  0.00  0.00    +0.038 C 
ATOM     11  C   UNL     1      -0.447   4.178   7.272  0.00  0.00    -0.009 C 
ATOM     12  C   UNL     1       0.297   5.284   8.023  0.00  0.00    -0.082 C 
ATOM     13  N   UNL     1       0.886   4.735   9.251  0.00  0.00    +0.379 N 
ATOM     14  C   UNL     1       1.884   3.714   8.911  0.00  0.00    -0.082 C 
ATOM     15  C   UNL     1       1.201   2.547   8.194  0.00  0.00    -0.009 C 
ATOM     16  H   UNL     1       1.330   5.478   9.771  0.00  0.00    -0.086 HD
ATOM     17  H   UNL     1       0.160   4.320   9.815  0.00  0.00    -0.086 HD
ENDBRANCH   9  10
BRANCH   1  24
ATOM     18  C   UNL     1      -0.018   1.503   0.010  0.00  0.00    +0.044 C 
ATOM     19  C   UNL     1       0.002  -0.004   0.002  0.00  0.00    -0.043 A 
ATOM     20  C   UNL     1       0.006  -0.686  -1.199  0.00  0.00    +0.005 A 
ATOM     21  C   UNL     1       0.024  -2.067  -1.216  0.00  0.00    +0.013 A 
ATOM     22  C   UNL     1       0.040  -2.781  -0.016  0.00  0.00    +0.037 A 
ATOM     23  C   UNL     1       0.037  -2.097   1.199  0.00  0.00    +0.021 A 
ATOM     24  C   UNL     1       0.023  -0.706   1.207  0.00  0.00    -0.014 A 
BRANCH  22  25
ATOM     25  C   UNL     1       0.060  -4.260  -0.034  0.00  0.00    +0.244 C 
ATOM     26  O   UNL     1       0.073  -4.880   1.012  0.00  0.00    -0.270 OA
ATOM     27  N   UNL     1       0.062  -4.919  -1.209  0.00  0.00    -0.308 N 
ATOM     28  H   UNL     1       0.051  -4.424  -2.043  0.00  0.00    +0.149 HD
BRANCH  27  29
ATOM     29  C   UNL     1       0.082  -6.384  -1.227  0.00  0.00    +0.073 C 
ATOM     30  C   UNL     1       1.022  -7.066  -2.223  0.00  0.00    +0.024 C 
ATOM     31  C   UNL     1      -0.489  -7.083  -2.462  0.00  0.00    +0.024 C 
ENDBRANCH  27  29
ENDBRANCH  22  25
ENDBRANCH   1  24
TORSDOF 4
