REMARK  Name = CHEMBL129240
REMARK  7 active torsions:
REMARK  status: ('A' for Active; 'I' for Inactive)
REMARK    1  A    between atoms: C_4  and  S_7
REMARK    2  A    between atoms: S_7  and  C_8
REMARK    3  A    between atoms: C_8  and  C_9
REMARK    4  A    between atoms: C_9  and  C_10
REMARK    5  A    between atoms: C_10  and  N_11
REMARK    6  A    between atoms: C_14  and  C_22
REMARK    7  A    between atoms: C_15  and  C_16
REMARK                            x       y       z     vdW  Elec       q    Type
REMARK                         _______ _______ _______ _____ _____    ______ ____
ROOT
ATOM      1  N   UNL     1       5.606  -5.645  -0.236  0.00  0.00    -0.331 N 
ATOM      2  C   UNL     1       6.197  -6.072  -1.372  0.00  0.00    +0.174 A 
ATOM      3  N   UNL     1       7.133  -6.932  -1.080  0.00  0.00    -0.345 N 
ATOM      4  C   UNL     1       7.190  -7.101   0.253  0.00  0.00    +0.072 A 
ATOM      5  C   UNL     1       6.226  -6.283   0.815  0.00  0.00    +0.074 A 
ATOM      6  H   UNL     1       7.700  -7.382  -1.726  0.00  0.00    +0.167 HD
ENDROOT
BRANCH   4   7
ATOM      7  C   UNL     1       8.118  -7.994   0.986  0.00  0.00    +0.001 A 
ATOM      8  C   UNL     1       7.635  -8.835   1.988  0.00  0.00    +0.013 A 
ATOM      9  C   UNL     1       8.503  -9.664   2.667  0.00  0.00    +0.039 A 
ATOM     10  C   UNL     1       9.853  -9.663   2.355  0.00  0.00    +0.123 A 
ATOM     11  C   UNL     1      10.338  -8.829   1.360  0.00  0.00    +0.039 A 
ATOM     12  C   UNL     1       9.477  -8.001   0.671  0.00  0.00    +0.013 A 
ATOM     13  F   UNL     1      10.699 -10.477   3.023  0.00  0.00    -0.205 F 
ENDBRANCH   4   7
BRANCH   5  14
ATOM     14  C   UNL     1       5.921  -6.128   2.250  0.00  0.00    +0.003 A 
ATOM     15  C   UNL     1       6.924  -5.787   3.167  0.00  0.00    +0.030 A 
ATOM     16  C   UNL     1       6.595  -5.653   4.499  0.00  0.00    +0.111 A 
ATOM     17  N   UNL     1       5.356  -5.841   4.913  0.00  0.00    -0.263 NA
ATOM     18  C   UNL     1       4.381  -6.164   4.084  0.00  0.00    +0.111 A 
ATOM     19  C   UNL     1       4.619  -6.313   2.734  0.00  0.00    +0.030 A 
ENDBRANCH   5  14
BRANCH   1  20
ATOM     20  C   UNL     1       4.510  -4.677  -0.139  0.00  0.00    +0.124 C 
BRANCH  20  21
ATOM     21  C   UNL     1       5.078  -3.297   0.200  0.00  0.00    +0.033 C 
BRANCH  21  22
ATOM     22  C   UNL     1       3.950  -2.264   0.184  0.00  0.00    +0.076 C 
BRANCH  22  23
ATOM     23  S   UNL     1       4.624  -0.628   0.586  0.00  0.00    -0.125 S 
BRANCH  23  27
ATOM     24  C   UNL     1       1.018   2.109   0.434  0.00  0.00    +0.000 A 
ATOM     25  C   UNL     1       2.264   2.625   0.742  0.00  0.00    +0.001 A 
ATOM     26  C   UNL     1       3.365   1.794   0.789  0.00  0.00    +0.015 A 
ATOM     27  C   UNL     1       3.221   0.437   0.528  0.00  0.00    +0.008 A 
ATOM     28  C   UNL     1       1.968  -0.079   0.220  0.00  0.00    +0.015 A 
ATOM     29  C   UNL     1       0.871   0.759   0.174  0.00  0.00    +0.001 A 
ENDBRANCH  23  27
ENDBRANCH  22  23
ENDBRANCH  21  22
ENDBRANCH  20  21
ENDBRANCH   1  20
TORSDOF 7
