REMARK  Name = CHEMBL523559
REMARK  8 active torsions:
REMARK  status: ('A' for Active; 'I' for Inactive)
REMARK    1  A    between atoms: C_1  and  C_2
REMARK    2  A    between atoms: C_5  and  C_21
REMARK    3  A    between atoms: C_7  and  C_8
REMARK    4  A    between atoms: C_11  and  C_15
REMARK    5  A    between atoms: C_13  and  C_14
REMARK    6  A    between atoms: C_18  and  C_20
REMARK    7  A    between atoms: N_23  and  C_24
REMARK    8  A    between atoms: C_28  and  N_30
REMARK                            x       y       z     vdW  Elec       q    Type
REMARK                         _______ _______ _______ _____ _____    ______ ____
ROOT
ATOM      1  C   UNL     1      -0.109   1.505  -0.025  0.00  0.00    +0.044 C 
ATOM      2  C   UNL     1      -0.068  -0.002  -0.028  0.00  0.00    -0.043 A 
ATOM      3  C   UNL     1      -0.067  -0.689  -1.226  0.00  0.00    +0.005 A 
ATOM      4  C   UNL     1      -0.030  -2.069  -1.237  0.00  0.00    +0.013 A 
ATOM      5  C   UNL     1       0.007  -2.778  -0.034  0.00  0.00    +0.038 A 
ATOM      6  C   UNL     1       0.006  -2.089   1.177  0.00  0.00    +0.021 A 
ATOM      7  C   UNL     1      -0.026  -0.698   1.180  0.00  0.00    -0.014 A 
ENDROOT
BRANCH   7   8
ATOM      8  C   UNL     1      -0.021   0.042   2.465  0.00  0.00    -0.015 A 
ATOM      9  C   UNL     1       1.095  -0.017   3.300  0.00  0.00    +0.009 A 
ATOM     10  C   UNL     1       1.100   0.670   4.492  0.00  0.00    +0.014 A 
ATOM     11  C   UNL     1      -0.013   1.428   4.867  0.00  0.00    +0.039 A 
ATOM     12  C   UNL     1      -1.129   1.487   4.030  0.00  0.00    +0.017 A 
ATOM     13  C   UNL     1      -1.131   0.802   2.835  0.00  0.00    -0.042 A 
ATOM     14  C   UNL     1      -2.333   0.871   1.929  0.00  0.00    +0.044 C 
BRANCH  11  15
ATOM     15  C   UNL     1      -0.008   2.165   6.147  0.00  0.00    +0.248 A 
ATOM     16  N   UNL     1      -0.982   2.906   6.622  0.00  0.00    -0.107 NA
ATOM     17  N   UNL     1      -0.628   3.394   7.759  0.00  0.00    -0.112 NA
ATOM     18  C   UNL     1       0.575   2.986   8.052  0.00  0.00    +0.215 A 
ATOM     19  O   UNL     1       0.995   2.198   7.047  0.00  0.00    -0.421 OA
ATOM     20  C   UNL     1       1.353   3.333   9.295  0.00  0.00    +0.111 C 
ENDBRANCH  11  15
ENDBRANCH   7   8
BRANCH   5  21
ATOM     21  C   UNL     1       0.046  -4.256  -0.047  0.00  0.00    +0.248 C 
ATOM     22  O   UNL     1       0.078  -4.872   1.001  0.00  0.00    -0.270 OA
ATOM     23  N   UNL     1       0.045  -4.920  -1.219  0.00  0.00    -0.281 N 
ATOM     24  H   UNL     1      -0.046  -4.433  -2.053  0.00  0.00    +0.155 HD
BRANCH  23  25
ATOM     25  C   UNL     1       0.177  -6.312  -1.234  0.00  0.00    +0.035 A 
ATOM     26  C   UNL     1      -0.397  -7.076  -0.225  0.00  0.00    +0.023 A 
ATOM     27  C   UNL     1      -0.268  -8.451  -0.239  0.00  0.00    +0.004 A 
ATOM     28  C   UNL     1       0.432  -9.072  -1.256  0.00  0.00    +0.023 A 
ATOM     29  C   UNL     1       1.008  -8.315  -2.268  0.00  0.00    +0.032 A 
ATOM     30  C   UNL     1       0.876  -6.933  -2.260  0.00  0.00    +0.046 A 
BRANCH  29  31
ATOM     31  N   UNL     1       1.716  -8.943  -3.295  0.00  0.00    -0.325 N 
ATOM     32  C   UNL     1       2.440  -8.157  -4.307  0.00  0.00    +0.133 C 
ATOM     33  C   UNL     1       3.871  -8.697  -4.406  0.00  0.00    +0.178 C 
ATOM     34  O   UNL     1       3.827 -10.111  -4.612  0.00  0.00    -0.377 OA
ATOM     35  C   UNL     1       3.225 -10.841  -3.540  0.00  0.00    +0.178 C 
ATOM     36  C   UNL     1       1.766 -10.410  -3.393  0.00  0.00    +0.133 C 
ENDBRANCH  29  31
ENDBRANCH  23  25
ENDBRANCH   5  21
TORSDOF 5
