REMARK  Name = CHEMBL257341
REMARK  5 active torsions:
REMARK  status: ('A' for Active; 'I' for Inactive)
REMARK    1  A    between atoms: C_1  and  C_2
REMARK    2  A    between atoms: C_2  and  C_3
REMARK    3  A    between atoms: C_2  and  N_4
REMARK    4  A    between atoms: C_10  and  C_14
REMARK    5  A    between atoms: C_15  and  C_19
REMARK                            x       y       z     vdW  Elec       q    Type
REMARK                         _______ _______ _______ _____ _____    ______ ____
ROOT
ATOM      1  N   UNL     1      -2.298  -0.208  -0.306  0.00  0.00    -0.321 N 
ATOM      2  C   UNL     1      -2.431  -1.501  -0.769  0.00  0.00    +0.159 A 
ATOM      3  N   UNL     1      -1.527  -2.275  -1.324  0.00  0.00    -0.225 NA
ATOM      4  C   UNL     1      -1.799  -3.533  -1.733  0.00  0.00    +0.080 A 
ATOM      5  C   UNL     1      -0.920  -4.461  -2.341  0.00  0.00    +0.029 A 
ATOM      6  C   UNL     1      -1.346  -5.699  -2.700  0.00  0.00    +0.014 A 
ATOM      7  C   UNL     1      -2.668  -6.108  -2.484  0.00  0.00    +0.021 A 
ATOM      8  C   UNL     1      -3.564  -5.216  -1.885  0.00  0.00    +0.029 A 
ATOM      9  C   UNL     1      -3.129  -3.969  -1.525  0.00  0.00    +0.041 A 
ATOM     10  S   UNL     1      -3.877  -2.552  -0.757  0.00  0.00    -0.052 S 
ATOM     11  H   UNL     1      -3.058   0.246   0.090  0.00  0.00    +0.148 HD
ENDROOT
BRANCH   7  12
ATOM     12  C   UNL     1      -3.109  -7.458  -2.882  0.00  0.00    +0.163 A 
ATOM     13  C   UNL     1      -3.837  -8.348  -2.119  0.00  0.00    +0.120 A 
ATOM     14  N   UNL     1      -4.019  -9.455  -2.869  0.00  0.00    -0.215 NA
ATOM     15  C   UNL     1      -3.447  -9.280  -4.025  0.00  0.00    +0.309 A 
ATOM     16  O   UNL     1      -2.884  -8.065  -4.069  0.00  0.00    -0.442 OA
BRANCH  13  17
ATOM     17  C   UNL     1      -4.326  -8.130  -0.738  0.00  0.00    +0.039 A 
ATOM     18  C   UNL     1      -3.467  -7.622   0.237  0.00  0.00    +0.013 A 
ATOM     19  C   UNL     1      -3.928  -7.421   1.522  0.00  0.00    +0.001 A 
ATOM     20  C   UNL     1      -5.239  -7.722   1.846  0.00  0.00    +0.003 A 
ATOM     21  C   UNL     1      -6.097  -8.227   0.886  0.00  0.00    +0.039 A 
ATOM     22  C   UNL     1      -5.650  -8.427  -0.407  0.00  0.00    +0.133 A 
ATOM     23  F   UNL     1      -6.490  -8.915  -1.346  0.00  0.00    -0.205 F 
ENDBRANCH  13  17
ENDBRANCH   7  12
BRANCH   1  25
ATOM     24  C   UNL     1      -1.237   1.991  -0.439  0.00  0.00    +0.027 C 
ATOM     25  C   UNL     1      -1.008   0.479  -0.414  0.00  0.00    +0.066 C 
ATOM     26  C   UNL     1      -0.135   0.115   0.789  0.00  0.00    +0.027 C 
ENDBRANCH   1  25
TORSDOF 3
