REMARK  Name = CHEMBL576242
REMARK  5 active torsions:
REMARK  status: ('A' for Active; 'I' for Inactive)
REMARK    1  A    between atoms: C_1  and  C_2
REMARK    2  A    between atoms: C_2  and  C_3
REMARK    3  A    between atoms: C_2  and  N_4
REMARK    4  A    between atoms: C_7  and  C_11
REMARK    5  A    between atoms: C_12  and  C_21
REMARK                            x       y       z     vdW  Elec       q    Type
REMARK                         _______ _______ _______ _____ _____    ______ ____
ROOT
ATOM      1  C   UNL     1      -3.412   0.006   4.073  0.00  0.00    +0.098 A 
ATOM      2  C   UNL     1      -4.277  -0.999   4.573  0.00  0.00    +0.099 A 
ATOM      3  N   UNL     1      -5.585  -0.887   4.427  0.00  0.00    -0.224 NA
ATOM      4  C   UNL     1      -6.098   0.181   3.805  0.00  0.00    +0.179 A 
ATOM      5  C   UNL     1      -5.228   1.185   3.306  0.00  0.00    +0.109 A 
ATOM      6  N   UNL     1      -3.907   1.066   3.462  0.00  0.00    -0.241 NA
ATOM      7  C   UNL     1      -5.783   2.303   2.653  0.00  0.00    +0.033 A 
ATOM      8  C   UNL     1      -7.142   2.371   2.529  0.00  0.00    +0.022 A 
ATOM      9  C   UNL     1      -7.938   1.349   3.042  0.00  0.00    +0.113 A 
ATOM     10  N   UNL     1      -7.419   0.309   3.649  0.00  0.00    -0.234 NA
ENDROOT
BRANCH   1  14
ATOM     11  N   UNL     1       1.173   0.247   2.343  0.00  0.00    -0.328 N 
ATOM     12  C   UNL     1       0.292  -0.010   3.387  0.00  0.00    +0.097 A 
ATOM     13  C   UNL     1      -1.075   0.131   3.184  0.00  0.00    +0.051 A 
ATOM     14  C   UNL     1      -1.946  -0.132   4.242  0.00  0.00    +0.007 A 
ATOM     15  C   UNL     1      -1.398  -0.527   5.469  0.00  0.00    +0.027 A 
ATOM     16  C   UNL     1      -0.029  -0.643   5.587  0.00  0.00    +0.085 A 
ATOM     17  N   UNL     1       0.765  -0.392   4.564  0.00  0.00    -0.350 N 
ATOM     18  H   UNL     1       2.128   0.146   2.478  0.00  0.00    +0.148 HD
ATOM     19  H   UNL     1       1.724  -0.487   4.677  0.00  0.00    +0.166 HD
BRANCH  11  21
ATOM     20  C   UNL     1       0.448   2.186   1.040  0.00  0.00    +0.027 C 
ATOM     21  C   UNL     1       0.658   0.670   1.038  0.00  0.00    +0.065 C 
ATOM     22  C   UNL     1       1.664   0.296  -0.053  0.00  0.00    +0.027 C 
ENDBRANCH  11  21
ENDBRANCH   1  14
BRANCH   2  23
ATOM     23  C   UNL     1      -3.712  -2.181   5.262  0.00  0.00    +0.003 A 
ATOM     24  C   UNL     1      -2.610  -2.846   4.721  0.00  0.00    +0.013 A 
ATOM     25  C   UNL     1      -2.087  -3.946   5.367  0.00  0.00    +0.039 A 
ATOM     26  C   UNL     1      -2.653  -4.392   6.551  0.00  0.00    +0.123 A 
ATOM     27  C   UNL     1      -3.748  -3.736   7.092  0.00  0.00    +0.039 A 
ATOM     28  C   UNL     1      -4.275  -2.631   6.456  0.00  0.00    +0.013 A 
ATOM     29  F   UNL     1      -2.137  -5.471   7.180  0.00  0.00    -0.205 F 
ENDBRANCH   2  23
TORSDOF 3
