REMARK  Name = CHEMBL271201
REMARK  8 active torsions:
REMARK  status: ('A' for Active; 'I' for Inactive)
REMARK    1  A    between atoms: C_1  and  C_2
REMARK    2  A    between atoms: C_5  and  N_31
REMARK    3  A    between atoms: C_7  and  C_8
REMARK    4  A    between atoms: N_10  and  C_11
REMARK    5  A    between atoms: N_17  and  C_18
REMARK    6  A    between atoms: C_21  and  N_24
REMARK    7  A    between atoms: N_27  and  C_30
REMARK    8  A    between atoms: C_32  and  C_34
REMARK                            x       y       z     vdW  Elec       q    Type
REMARK                         _______ _______ _______ _____ _____    ______ ____
ROOT
ATOM      1  C   UNL     1       1.167  -0.099   4.853  0.00  0.00    +0.070 A 
ATOM      2  C   UNL     1       1.102   1.279   5.038  0.00  0.00    +0.139 A 
ATOM      3  N   UNL     1       1.392   1.784   6.225  0.00  0.00    -0.221 NA
ATOM      4  C   UNL     1       1.742   0.995   7.231  0.00  0.00    +0.220 A 
ATOM      5  N   UNL     1       1.815  -0.320   7.091  0.00  0.00    -0.221 NA
ATOM      6  C   UNL     1       1.533  -0.895   5.934  0.00  0.00    +0.139 A 
ATOM      7  N   UNL     1       2.039   1.561   8.461  0.00  0.00    -0.284 N 
ATOM      8  H   UNL     1       1.911   2.513   8.601  0.00  0.00    +0.155 HD
ENDROOT
BRANCH   7   9
ATOM      9  C   UNL     1       2.523   0.759   9.503  0.00  0.00    +0.034 A 
ATOM     10  C   UNL     1       3.358  -0.314   9.222  0.00  0.00    +0.025 A 
ATOM     11  C   UNL     1       3.836  -1.105  10.248  0.00  0.00    +0.025 A 
ATOM     12  C   UNL     1       3.481  -0.826  11.562  0.00  0.00    +0.030 A 
ATOM     13  C   UNL     1       2.646   0.248  11.843  0.00  0.00    +0.025 A 
ATOM     14  C   UNL     1       2.173   1.041  10.816  0.00  0.00    +0.025 A 
BRANCH  12  15
ATOM     15  N   UNL     1       3.965  -1.627  12.602  0.00  0.00    -0.333 N 
ATOM     16  C   UNL     1       3.502  -1.432  13.985  0.00  0.00    +0.086 C 
ATOM     17  C   UNL     1       3.065  -2.789  14.546  0.00  0.00    -0.060 C 
ATOM     18  N   UNL     1       4.163  -3.753  14.405  0.00  0.00    +0.380 N 
ATOM     19  C   UNL     1       4.444  -3.987  12.983  0.00  0.00    -0.060 C 
ATOM     20  C   UNL     1       4.945  -2.693  12.343  0.00  0.00    +0.086 C 
ATOM     21  C   UNL     1       3.784  -5.022  15.042  0.00  0.00    -0.096 C 
ATOM     22  H   UNL     1       4.989  -3.388  14.854  0.00  0.00    -0.082 HD
ENDBRANCH  12  15
ENDBRANCH   7   9
BRANCH   1  25
ATOM     23  C   UNL     1       1.192  -0.023   2.474  0.00  0.00    +0.249 C 
ATOM     24  O   UNL     1       1.668   1.095   2.526  0.00  0.00    -0.270 OA
ATOM     25  N   UNL     1       0.867  -0.671   3.610  0.00  0.00    -0.279 N 
ATOM     26  H   UNL     1       0.426  -1.534   3.567  0.00  0.00    +0.155 HD
BRANCH  23  33
ATOM     27  C   UNL     1       2.052   1.311   0.057  0.00  0.00    +0.044 C 
ATOM     28  C   UNL     1       1.379  -0.036  -0.010  0.00  0.00    -0.038 A 
ATOM     29  C   UNL     1       1.175  -0.645  -1.232  0.00  0.00    +0.006 A 
ATOM     30  C   UNL     1       0.558  -1.880  -1.298  0.00  0.00    +0.023 A 
ATOM     31  C   UNL     1       0.139  -2.517  -0.136  0.00  0.00    +0.034 A 
ATOM     32  C   UNL     1       0.340  -1.914   1.095  0.00  0.00    +0.036 A 
ATOM     33  C   UNL     1       0.968  -0.670   1.163  0.00  0.00    +0.042 A 
BRANCH  31  34
ATOM     34  N   UNL     1      -0.486  -3.767  -0.209  0.00  0.00    -0.286 N 
ATOM     35  C   UNL     1      -0.111  -4.653  -1.153  0.00  0.00    +0.214 C 
ATOM     36  O   UNL     1       0.828  -4.405  -1.879  0.00  0.00    -0.276 OA
ATOM     37  C   UNL     1      -0.860  -5.952  -1.307  0.00  0.00    +0.109 C 
ATOM     38  H   UNL     1      -1.188  -3.996   0.419  0.00  0.00    +0.155 HD
ENDBRANCH  31  34
ENDBRANCH  23  33
ENDBRANCH   1  25
TORSDOF 5
