REMARK  Name = CHEMBL170631
REMARK  7 active torsions:
REMARK  status: ('A' for Active; 'I' for Inactive)
REMARK    1  A    between atoms: C_1  and  C_2
REMARK    2  A    between atoms: C_2  and  N_3
REMARK    3  A    between atoms: C_7  and  C_15
REMARK    4  A    between atoms: N_10  and  C_13
REMARK    5  A    between atoms: C_13  and  C_14
REMARK    6  A    between atoms: C_16  and  C_21
REMARK    7  A    between atoms: C_25  and  C_27
REMARK                            x       y       z     vdW  Elec       q    Type
REMARK                         _______ _______ _______ _____ _____    ______ ____
ROOT
ATOM      1  N   UNL     1      -1.372  -0.511   0.012  0.00  0.00    -0.292 N 
ATOM      2  C   UNL     1      -2.128  -0.794   1.148  0.00  0.00    +0.070 A 
ATOM      3  C   UNL     1      -1.868  -0.704   2.508  0.00  0.00    +0.028 A 
ATOM      4  C   UNL     1      -2.835  -1.065   3.421  0.00  0.00    +0.012 A 
ATOM      5  C   UNL     1      -4.079  -1.522   2.981  0.00  0.00    +0.005 A 
ATOM      6  C   UNL     1      -4.344  -1.614   1.616  0.00  0.00    +0.038 A 
ATOM      7  C   UNL     1      -3.371  -1.251   0.701  0.00  0.00    +0.070 A 
ATOM      8  N   UNL     1      -3.330  -1.231  -0.691  0.00  0.00    -0.292 N 
ATOM      9  C   UNL     1      -2.122  -0.777  -1.074  0.00  0.00    +0.330 A 
ATOM     10  O   UNL     1      -1.760  -0.633  -2.227  0.00  0.00    -0.246 OA
ENDROOT
BRANCH   5  11
ATOM     11  C   UNL     1      -5.116  -1.911   3.965  0.00  0.00    +0.097 A 
ATOM     12  C   UNL     1      -4.898  -2.512   5.191  0.00  0.00    +0.074 A 
ATOM     13  N   UNL     1      -6.139  -2.686   5.759  0.00  0.00    -0.344 N 
ATOM     14  C   UNL     1      -7.052  -2.200   4.890  0.00  0.00    +0.197 A 
ATOM     15  N   UNL     1      -6.445  -1.737   3.833  0.00  0.00    -0.235 NA
ATOM     16  H   UNL     1      -6.324  -3.085   6.624  0.00  0.00    +0.167 HD
BRANCH  12  17
ATOM     17  C   UNL     1      -3.595  -2.892   5.773  0.00  0.00    +0.001 A 
ATOM     18  C   UNL     1      -2.637  -3.537   4.987  0.00  0.00    +0.010 A 
ATOM     19  C   UNL     1      -1.422  -3.889   5.537  0.00  0.00    +0.001 A 
ATOM     20  C   UNL     1      -1.151  -3.605   6.864  0.00  0.00    +0.003 A 
ATOM     21  C   UNL     1      -2.096  -2.967   7.648  0.00  0.00    -0.050 A 
ATOM     22  C   UNL     1      -3.313  -2.603   7.109  0.00  0.00    +0.013 A 
ATOM     23  C   UNL     1      -1.792  -2.663   9.092  0.00  0.00    +0.044 C 
ENDBRANCH  12  17
ENDBRANCH   5  11
BRANCH   1  25
ATOM     24  C   UNL     1      -0.019   1.526   0.010  0.00  0.00    +0.027 C 
ATOM     25  C   UNL     1       0.002  -0.004   0.002  0.00  0.00    +0.123 C 
ENDBRANCH   1  25
BRANCH   8  26
ATOM     26  C   UNL     1      -4.419  -1.629  -1.587  0.00  0.00    +0.123 C 
ATOM     27  C   UNL     1      -5.298  -0.415  -1.893  0.00  0.00    +0.027 C 
ENDBRANCH   8  26
TORSDOF 4
