REMARK  Name = CHEMBL242908
REMARK  2 active torsions:
REMARK  status: ('A' for Active; 'I' for Inactive)
REMARK    1  A    between atoms: C_5  and  N_7
REMARK    2  A    between atoms: C_16  and  C_18
REMARK                            x       y       z     vdW  Elec       q    Type
REMARK                         _______ _______ _______ _____ _____    ______ ____
ROOT
ATOM      1  N   UNL     1       0.744  -1.382   1.404  0.00  0.00    -0.235 N 
ATOM      2  C   UNL     1      -0.136  -2.358   1.110  0.00  0.00    +0.051 A 
ATOM      3  C   UNL     1       0.548  -3.530   1.066  0.00  0.00    +0.011 A 
ATOM      4  C   UNL     1       1.886  -3.262   1.345  0.00  0.00    +0.140 A 
ATOM      5  N   UNL     1       2.009  -1.971   1.542  0.00  0.00    -0.174 NA
ATOM      6  C   UNL     1      -0.088  -4.864   0.756  0.00  0.00    +0.146 C 
ATOM      7  N   UNL     1      -1.548  -4.672   0.801  0.00  0.00    -0.293 N 
ATOM      8  C   UNL     1      -2.118  -3.484   0.149  0.00  0.00    +0.114 C 
ATOM      9  C   UNL     1      -1.619  -2.226   0.871  0.00  0.00    +0.075 C 
ATOM     10  C   UNL     1      -2.343  -5.565   1.424  0.00  0.00    +0.247 C 
ATOM     11  O   UNL     1      -3.551  -5.427   1.397  0.00  0.00    -0.270 OA
ENDROOT
BRANCH  10  12
ATOM     12  C   UNL     1      -1.747  -6.710   2.139  0.00  0.00    +0.039 A 
ATOM     13  C   UNL     1      -2.224  -7.063   3.410  0.00  0.00    +0.014 A 
ATOM     14  C   UNL     1      -1.681  -8.118   4.080  0.00  0.00    +0.011 A 
ATOM     15  C   UNL     1      -0.644  -8.855   3.500  0.00  0.00    -0.000 A 
ATOM     16  C   UNL     1       0.141 -10.012   3.932  0.00  0.00    +0.027 A 
ATOM     17  C   UNL     1       1.012 -10.287   2.945  0.00  0.00    +0.083 A 
ATOM     18  N   UNL     1       0.848  -9.402   1.918  0.00  0.00    -0.361 N 
ATOM     19  H   UNL     1       1.363  -9.401   1.095  0.00  0.00    +0.165 HD
ATOM     20  C   UNL     1      -0.158  -8.511   2.224  0.00  0.00    +0.047 A 
ATOM     21  C   UNL     1      -0.719  -7.439   1.546  0.00  0.00    +0.039 A 
ENDBRANCH  10  12
BRANCH   1  26
ATOM     22  C   UNL     1      -0.912   1.731   2.456  0.00  0.00    +0.002 A 
ATOM     23  C   UNL     1      -0.135   2.674   1.809  0.00  0.00    +0.002 A 
ATOM     24  C   UNL     1       0.934   2.275   1.028  0.00  0.00    +0.022 A 
ATOM     25  C   UNL     1       1.228   0.931   0.891  0.00  0.00    +0.066 A 
ATOM     26  C   UNL     1       0.449  -0.018   1.540  0.00  0.00    +0.084 A 
ATOM     27  C   UNL     1      -0.624   0.387   2.324  0.00  0.00    +0.029 A 
ATOM     28 CL   UNL     1       2.570   0.431  -0.090  0.00  0.00    -0.081 Cl
ENDBRANCH   1  26
TORSDOF 2
