REMARK  Name = CHEMBL262867
REMARK  9 active torsions:
REMARK  status: ('A' for Active; 'I' for Inactive)
REMARK    1  A    between atoms: C_1  and  C_2
REMARK    2  A    between atoms: C_2  and  N_3
REMARK    3  A    between atoms: C_4  and  C_6
REMARK    4  A    between atoms: C_10  and  C_11
REMARK    5  A    between atoms: N_16  and  C_17
REMARK    6  A    between atoms: C_19  and  N_24
REMARK    7  A    between atoms: C_22  and  C_23
REMARK    8  A    between atoms: C_25  and  C_27
REMARK    9  A    between atoms: C_31  and  N_33
REMARK                            x       y       z     vdW  Elec       q    Type
REMARK                         _______ _______ _______ _____ _____    ______ ____
ROOT
ATOM      1  C   UNL     1       2.510  -5.984  -5.765  0.00  0.00    +0.037 A 
ATOM      2  C   UNL     1       3.150  -5.394  -6.846  0.00  0.00    +0.046 A 
ATOM      3  C   UNL     1       3.778  -6.188  -7.795  0.00  0.00    +0.035 A 
ATOM      4  C   UNL     1       3.764  -7.571  -7.660  0.00  0.00    +0.024 A 
ATOM      5  C   UNL     1       3.126  -8.156  -6.584  0.00  0.00    +0.007 A 
ATOM      6  C   UNL     1       2.505  -7.368  -5.634  0.00  0.00    -0.029 A 
ATOM      7  C   UNL     1       1.816  -8.009  -4.457  0.00  0.00    +0.045 C 
ENDROOT
BRANCH   1  18
ATOM      8  C   UNL     1       0.122  -2.004  -2.330  0.00  0.00    +0.060 A 
ATOM      9  C   UNL     1       0.110  -1.129  -3.404  0.00  0.00    +0.126 A 
ATOM     10  N   UNL     1       0.612  -1.756  -4.477  0.00  0.00    -0.234 N 
ATOM     11  C   UNL     1       0.959  -3.047  -4.124  0.00  0.00    +0.109 A 
ATOM     12  C   UNL     1       0.668  -3.221  -2.790  0.00  0.00    -0.008 A 
ATOM     13  C   UNL     1       0.887  -4.471  -1.978  0.00  0.00    +0.047 C 
ATOM     14  C   UNL     1       1.515  -3.893  -5.116  0.00  0.00    +0.151 A 
ATOM     15  N   UNL     1       1.683  -3.425  -6.341  0.00  0.00    -0.217 NA
ATOM     16  C   UNL     1       1.343  -2.179  -6.666  0.00  0.00    +0.245 A 
ATOM     17  N   UNL     1       0.827  -1.349  -5.803  0.00  0.00    -0.155 NA
ATOM     18  N   UNL     1       1.876  -5.188  -4.807  0.00  0.00    -0.297 N 
ATOM     19  H   UNL     1       1.691  -5.546  -3.925  0.00  0.00    +0.154 HD
BRANCH   8  21
ATOM     20  N   UNL     1      -0.845  -0.502  -0.661  0.00  0.00    -0.312 N 
ATOM     21  C   UNL     1      -0.343  -1.716  -0.961  0.00  0.00    +0.246 C 
ATOM     22  O   UNL     1      -0.273  -2.574  -0.102  0.00  0.00    -0.270 OA
ATOM     23  H   UNL     1      -0.901   0.182  -1.347  0.00  0.00    +0.149 HD
BRANCH  20  25
ATOM     24  C   UNL     1      -1.826   1.222   0.769  0.00  0.00    +0.024 C 
ATOM     25  C   UNL     1      -1.307  -0.215   0.699  0.00  0.00    +0.101 C 
ENDBRANCH  20  25
ENDBRANCH   8  21
ENDBRANCH   1  18
BRANCH   3  26
ATOM     26  N   UNL     1       4.423  -5.597  -8.886  0.00  0.00    -0.281 N 
ATOM     27  C   UNL     1       4.462  -6.235 -10.072  0.00  0.00    +0.248 C 
ATOM     28  O   UNL     1       3.849  -7.274 -10.224  0.00  0.00    -0.270 OA
ATOM     29  H   UNL     1       4.843  -4.728  -8.788  0.00  0.00    +0.155 HD
BRANCH  27  30
ATOM     30  C   UNL     1       5.249  -5.671 -11.189  0.00  0.00    +0.039 A 
ATOM     31  C   UNL     1       5.958  -4.481 -11.016  0.00  0.00    +0.013 A 
ATOM     32  C   UNL     1       6.692  -3.957 -12.060  0.00  0.00    +0.003 A 
ATOM     33  C   UNL     1       6.728  -4.607 -13.280  0.00  0.00    +0.026 A 
ATOM     34  C   UNL     1       6.026  -5.792 -13.463  0.00  0.00    +0.048 A 
ATOM     35  C   UNL     1       5.290  -6.329 -12.419  0.00  0.00    +0.039 A 
BRANCH  34  36
ATOM     36  N   UNL     1       6.066  -6.447 -14.702  0.00  0.00    -0.306 N 
ATOM     37  C   UNL     1       6.755  -6.042 -15.816  0.00  0.00    +0.112 A 
ATOM     38  C   UNL     1       6.518  -6.956 -16.775  0.00  0.00    +0.130 A 
ATOM     39  N   UNL     1       5.707  -7.896 -16.267  0.00  0.00    -0.244 NA
ATOM     40  C   UNL     1       5.434  -7.605 -15.024  0.00  0.00    +0.204 A 
ENDBRANCH  34  36
ENDBRANCH  27  30
ENDBRANCH   3  26
TORSDOF 6
