REMARK  Name = CHEMBL519620
REMARK  6 active torsions:
REMARK  status: ('A' for Active; 'I' for Inactive)
REMARK    1  A    between atoms: C_3  and  C_10
REMARK    2  A    between atoms: C_5  and  C_7
REMARK    3  A    between atoms: C_10  and  C_11
REMARK    4  A    between atoms: C_14  and  C_24
REMARK    5  A    between atoms: C_15  and  C_17
REMARK    6  A    between atoms: N_30  and  C_31
REMARK                            x       y       z     vdW  Elec       q    Type
REMARK                         _______ _______ _______ _____ _____    ______ ____
ROOT
ATOM      1  C   UNL     1       4.113   2.456   1.397  0.00  0.00    +0.113 A 
ATOM      2  N   UNL     1       3.392   3.027   2.320  0.00  0.00    -0.230 NA
ATOM      3  H   UNL     1       6.047   1.680   1.439  0.00  0.00    +0.167 HD
ATOM      4  C   UNL     1       4.097   3.092   3.466  0.00  0.00    +0.115 A 
ATOM      5  C   UNL     1       5.335   2.520   3.225  0.00  0.00    +0.076 A 
ATOM      6  N   UNL     1       5.324   2.120   1.912  0.00  0.00    -0.341 N 
ENDROOT
BRANCH   4   7
ATOM      7  C   UNL     1       3.634   3.668   4.747  0.00  0.00    +0.096 A 
ATOM      8  C   UNL     1       2.629   4.643   4.766  0.00  0.00    +0.050 A 
ATOM      9  C   UNL     1       2.229   5.152   5.986  0.00  0.00    +0.116 A 
ATOM     10  N   UNL     1       2.803   4.706   7.094  0.00  0.00    -0.223 NA
ATOM     11  C   UNL     1       3.752   3.783   7.048  0.00  0.00    +0.216 A 
ATOM     12  N   UNL     1       4.162   3.263   5.902  0.00  0.00    -0.213 NA
ATOM     13  N   UNL     1       4.325   3.345   8.230  0.00  0.00    -0.311 N 
ATOM     14  H   UNL     1       5.021   2.670   8.210  0.00  0.00    +0.149 HD
BRANCH  13  15
ATOM     15  C   UNL     1       3.881   3.903   9.509  0.00  0.00    +0.073 C 
ATOM     16  C   UNL     1       4.958   4.269  10.532  0.00  0.00    +0.024 C 
ATOM     17  C   UNL     1       4.072   3.042  10.760  0.00  0.00    +0.024 C 
ENDBRANCH  13  15
ENDBRANCH   4   7
BRANCH   5  18
ATOM     18  C   UNL     1       6.443   2.368   4.189  0.00  0.00    +0.001 A 
ATOM     19  C   UNL     1       6.799   3.431   5.022  0.00  0.00    +0.013 A 
ATOM     20  C   UNL     1       7.835   3.283   5.920  0.00  0.00    +0.039 A 
ATOM     21  C   UNL     1       8.523   2.082   5.997  0.00  0.00    +0.123 A 
ATOM     22  C   UNL     1       8.175   1.024   5.172  0.00  0.00    +0.039 A 
ATOM     23  C   UNL     1       7.136   1.158   4.275  0.00  0.00    +0.013 A 
ATOM     24  F   UNL     1       9.537   1.942   6.878  0.00  0.00    -0.205 F 
ENDBRANCH   5  18
BRANCH   1  25
ATOM     25  C   UNL     1       3.671   2.203  -0.021  0.00  0.00    +0.109 C 
BRANCH  25  28
ATOM     26  C   UNL     1      -0.017   1.375   0.010  0.00  0.00    +0.001 A 
ATOM     27  C   UNL     1       1.170   2.086   0.002  0.00  0.00    +0.004 A 
ATOM     28  C   UNL     1       2.383   1.420  -0.013  0.00  0.00    -0.039 A 
ATOM     29  C   UNL     1       2.416   0.041  -0.021  0.00  0.00    +0.017 A 
ATOM     30  C   UNL     1       1.222  -0.682  -0.014  0.00  0.00    +0.037 A 
ATOM     31  C   UNL     1       0.002  -0.004   0.002  0.00  0.00    +0.013 A 
BRANCH  30  32
ATOM     32  C   UNL     1       1.250  -2.161  -0.023  0.00  0.00    +0.242 C 
ATOM     33  O   UNL     1       2.313  -2.748  -0.037  0.00  0.00    -0.270 OA
ATOM     34  N   UNL     1       0.095  -2.856  -0.016  0.00  0.00    -0.325 N 
ATOM     35  H   UNL     1      -0.754  -2.387  -0.004  0.00  0.00    +0.145 HD
ATOM     36  H   UNL     1       0.113  -3.826  -0.022  0.00  0.00    +0.145 HD
ENDBRANCH  30  32
ENDBRANCH  25  28
ENDBRANCH   1  25
TORSDOF 6
