REMARK  Name = CHEMBL198687
REMARK  8 active torsions:
REMARK  status: ('A' for Active; 'I' for Inactive)
REMARK    1  A    between atoms: C_5  and  N_7
REMARK    2  A    between atoms: N_7  and  C_8
REMARK    3  A    between atoms: C_17  and  C_18
REMARK    4  A    between atoms: C_22  and  C_24
REMARK    5  A    between atoms: N_26  and  C_27
REMARK    6  A    between atoms: C_27  and  C_28
REMARK    7  A    between atoms: C_28  and  C_29
REMARK    8  A    between atoms: C_29  and  N_30
REMARK                            x       y       z     vdW  Elec       q    Type
REMARK                         _______ _______ _______ _____ _____    ______ ____
ROOT
ATOM      1  C   UNL     1      -4.660  -5.250   0.225  0.00  0.00    +0.001 A 
ATOM      2  C   UNL     1      -5.250  -4.273   1.033  0.00  0.00    +0.010 A 
ATOM      3  C   UNL     1      -6.621  -4.119   1.044  0.00  0.00    +0.001 A 
ATOM      4  C   UNL     1      -7.420  -4.927   0.258  0.00  0.00    +0.013 A 
ATOM      5  C   UNL     1      -6.844  -5.906  -0.555  0.00  0.00    +0.037 A 
ATOM      6  C   UNL     1      -5.460  -6.064  -0.576  0.00  0.00    +0.023 A 
ENDROOT
BRANCH   1  16
ATOM      7  C   UNL     1       0.090  -2.874   0.036  0.00  0.00    +0.033 A 
ATOM      8  C   UNL     1      -1.170  -2.259   0.019  0.00  0.00    +0.024 A 
ATOM      9  C   UNL     1      -2.315  -2.985   0.073  0.00  0.00    +0.014 A 
ATOM     10  C   UNL     1      -2.248  -4.389   0.147  0.00  0.00    +0.027 A 
ATOM     11  C   UNL     1      -0.930  -5.039   0.165  0.00  0.00    +0.095 A 
ATOM     12  C   UNL     1       0.224  -4.229   0.102  0.00  0.00    +0.053 A 
ATOM     13  N   UNL     1      -1.143  -6.342   0.238  0.00  0.00    -0.173 NA
ATOM     14  N   UNL     1      -2.521  -6.583   0.269  0.00  0.00    -0.276 N 
ATOM     15  H   UNL     1      -2.932  -7.460   0.322  0.00  0.00    +0.189 HD
ATOM     16  C   UNL     1      -3.193  -5.414   0.214  0.00  0.00    +0.073 A 
BRANCH   7  17
ATOM     17  N   UNL     1       1.238  -2.078  -0.021  0.00  0.00    -0.313 N 
ATOM     18  H   UNL     1       1.979  -2.337  -0.590  0.00  0.00    +0.152 HD
BRANCH  17  23
ATOM     19  C   UNL     1       0.408   0.538   2.424  0.00  0.00    +0.002 A 
ATOM     20  C   UNL     1       1.471   1.406   2.249  0.00  0.00    +0.002 A 
ATOM     21  C   UNL     1       2.456   1.121   1.322  0.00  0.00    +0.022 A 
ATOM     22  C   UNL     1       2.382  -0.035   0.567  0.00  0.00    +0.062 A 
ATOM     23  C   UNL     1       1.316  -0.909   0.741  0.00  0.00    +0.050 A 
ATOM     24  C   UNL     1       0.328  -0.618   1.673  0.00  0.00    +0.025 A 
ATOM     25 CL   UNL     1       3.620  -0.393  -0.597  0.00  0.00    -0.082 Cl
ENDBRANCH  17  23
ENDBRANCH   7  17
ENDBRANCH   1  16
BRANCH   5  26
ATOM     26  C   UNL     1      -7.701  -6.770  -1.395  0.00  0.00    +0.244 C 
ATOM     27  O   UNL     1      -7.199  -7.622  -2.101  0.00  0.00    -0.270 OA
ATOM     28  N   UNL     1      -9.040  -6.612  -1.377  0.00  0.00    -0.311 N 
ATOM     29  H   UNL     1      -9.441  -5.932  -0.814  0.00  0.00    +0.149 HD
BRANCH  28  30
ATOM     30  C   UNL     1      -9.889  -7.468  -2.210  0.00  0.00    +0.102 C 
BRANCH  30  31
ATOM     31  C   UNL     1     -11.356  -7.084  -2.005  0.00  0.00    +0.000 C 
BRANCH  31  32
ATOM     32  C   UNL     1     -12.243  -7.978  -2.874  0.00  0.00    -0.077 C 
BRANCH  32  33
ATOM     33  N   UNL     1     -13.651  -7.610  -2.678  0.00  0.00    +0.383 N 
ATOM     34  C   UNL     1     -14.045  -7.902  -1.293  0.00  0.00    -0.050 C 
ATOM     35  C   UNL     1     -15.513  -7.518  -1.090  0.00  0.00    +0.141 C 
ATOM     36  O   UNL     1     -16.322  -8.233  -2.029  0.00  0.00    -0.383 OA
ATOM     37  C   UNL     1     -15.960  -7.999  -3.393  0.00  0.00    +0.141 C 
ATOM     38  C   UNL     1     -14.493  -8.384  -3.599  0.00  0.00    -0.050 C 
ATOM     39  H   UNL     1     -13.770  -6.625  -2.861  0.00  0.00    -0.082 HD
ENDBRANCH  32  33
ENDBRANCH  31  32
ENDBRANCH  30  31
ENDBRANCH  28  30
ENDBRANCH   5  26
TORSDOF 8
