REMARK  Name = CHEMBL498390
REMARK  4 active torsions:
REMARK  status: ('A' for Active; 'I' for Inactive)
REMARK    1  A    between atoms: C_1  and  C_2
REMARK    2  A    between atoms: C_5  and  N_20
REMARK    3  A    between atoms: C_7  and  C_8
REMARK    4  A    between atoms: C_21  and  C_23
REMARK                            x       y       z     vdW  Elec       q    Type
REMARK                         _______ _______ _______ _____ _____    ______ ____
ROOT
ATOM      1  C   UNL     1      -0.044   1.502   0.029  0.00  0.00    +0.044 C 
ATOM      2  C   UNL     1      -0.017  -0.004   0.016  0.00  0.00    -0.043 A 
ATOM      3  C   UNL     1      -0.004  -0.684  -1.186  0.00  0.00    +0.006 A 
ATOM      4  C   UNL     1       0.021  -2.066  -1.204  0.00  0.00    +0.023 A 
ATOM      5  C   UNL     1       0.033  -2.779  -0.011  0.00  0.00    +0.034 A 
ATOM      6  C   UNL     1       0.021  -2.104   1.200  0.00  0.00    +0.032 A 
ATOM      7  C   UNL     1       0.001  -0.712   1.217  0.00  0.00    -0.013 A 
ENDROOT
BRANCH   7   8
ATOM      8  C   UNL     1      -0.007   0.017   2.509  0.00  0.00    -0.017 A 
ATOM      9  C   UNL     1       0.902   1.059   2.724  0.00  0.00    +0.009 A 
ATOM     10  C   UNL     1       0.913   1.743   3.905  0.00  0.00    +0.009 A 
ATOM     11  C   UNL     1       0.007   1.403   4.913  0.00  0.00    -0.011 A 
ATOM     12  C   UNL     1      -0.020   2.108   6.195  0.00  0.00    +0.026 A 
ATOM     13  C   UNL     1      -0.911   1.741   7.131  0.00  0.00    +0.086 A 
ATOM     14  N   UNL     1      -1.804   0.727   6.935  0.00  0.00    -0.329 N 
ATOM     15  H   UNL     1      -2.425   0.505   7.647  0.00  0.00    +0.168 HD
ATOM     16  C   UNL     1      -1.852   0.023   5.787  0.00  0.00    +0.256 A 
ATOM     17  O   UNL     1      -2.662  -0.875   5.649  0.00  0.00    -0.267 OA
ATOM     18  C   UNL     1      -0.916   0.351   4.705  0.00  0.00    +0.047 A 
ATOM     19  C   UNL     1      -0.920  -0.336   3.494  0.00  0.00    +0.022 A 
ENDBRANCH   7   8
BRANCH   5  20
ATOM     20  N   UNL     1       0.058  -4.177  -0.032  0.00  0.00    -0.281 N 
ATOM     21  C   UNL     1       0.741  -4.854   0.912  0.00  0.00    +0.248 C 
ATOM     22  O   UNL     1       1.265  -4.254   1.830  0.00  0.00    -0.270 OA
ATOM     23  H   UNL     1      -0.417  -4.660  -0.727  0.00  0.00    +0.155 HD
BRANCH  21  24
ATOM     24  C   UNL     1       0.852  -6.329   0.832  0.00  0.00    +0.042 A 
ATOM     25  C   UNL     1       0.261  -7.038  -0.221  0.00  0.00    +0.033 A 
ATOM     26  C   UNL     1       0.387  -8.411  -0.261  0.00  0.00    +0.113 A 
ATOM     27  N   UNL     1       1.053  -9.060   0.674  0.00  0.00    -0.240 NA
ATOM     28  C   UNL     1       1.629  -8.432   1.687  0.00  0.00    +0.122 A 
ATOM     29  C   UNL     1       1.555  -7.048   1.799  0.00  0.00    +0.056 A 
ATOM     30  N   UNL     1       2.320  -9.164   2.647  0.00  0.00    -0.315 N 
ATOM     31  C   UNL     1       2.579 -10.610   2.598  0.00  0.00    +0.106 C 
ATOM     32  C   UNL     1       3.352 -10.980   3.882  0.00  0.00    +0.020 C 
ATOM     33  C   UNL     1       2.991  -9.823   4.851  0.00  0.00    +0.020 C 
ATOM     34  C   UNL     1       2.919  -8.617   3.878  0.00  0.00    +0.106 C 
ENDBRANCH  21  24
ENDBRANCH   5  20
TORSDOF 3
