REMARK  Name = CHEMBL523880
REMARK  8 active torsions:
REMARK  status: ('A' for Active; 'I' for Inactive)
REMARK    1  A    between atoms: C_1  and  C_2
REMARK    2  A    between atoms: C_2  and  C_3
REMARK    3  A    between atoms: C_2  and  C_26
REMARK    4  A    between atoms: C_3  and  N_4
REMARK    5  A    between atoms: C_7  and  C_11
REMARK    6  A    between atoms: C_12  and  C_19
REMARK    7  A    between atoms: C_14  and  S_17
REMARK    8  A    between atoms: S_17  and  C_18
REMARK                            x       y       z     vdW  Elec       q    Type
REMARK                         _______ _______ _______ _____ _____    ______ ____
ROOT
ATOM      1  N   UNL     1      -0.008  -0.140   2.444  0.00  0.00    -0.328 N 
ATOM      2  C   UNL     1       0.471  -0.495   3.700  0.00  0.00    +0.119 A 
ATOM      3  C   UNL     1       1.664  -1.195   3.806  0.00  0.00    +0.053 A 
ATOM      4  C   UNL     1       2.133  -1.545   5.077  0.00  0.00    +0.005 A 
ATOM      5  C   UNL     1       1.368  -1.167   6.193  0.00  0.00    +0.030 A 
ATOM      6  C   UNL     1       0.196  -0.474   5.998  0.00  0.00    +0.113 A 
ATOM      7  N   UNL     1      -0.213  -0.156   4.783  0.00  0.00    -0.240 NA
ATOM      8  H   UNL     1      -0.840   0.353   2.364  0.00  0.00    +0.147 HD
ENDROOT
BRANCH   4   9
ATOM      9  C   UNL     1       3.395  -2.289   5.241  0.00  0.00    +0.075 A 
ATOM     10  C   UNL     1       4.402  -2.024   6.149  0.00  0.00    +0.098 A 
ATOM     11  N   UNL     1       5.371  -2.939   5.965  0.00  0.00    -0.221 NA
ATOM     12  C   UNL     1       5.027  -3.757   4.997  0.00  0.00    +0.167 A 
ATOM     13  N   UNL     1       3.805  -3.397   4.519  0.00  0.00    -0.332 N 
ATOM     14  H   UNL     1       3.314  -3.833   3.805  0.00  0.00    +0.168 HD
BRANCH  10  15
ATOM     15  C   UNL     1       4.412  -0.929   7.147  0.00  0.00    +0.003 A 
ATOM     16  C   UNL     1       3.832   0.302   6.841  0.00  0.00    +0.013 A 
ATOM     17  C   UNL     1       3.844   1.319   7.773  0.00  0.00    +0.039 A 
ATOM     18  C   UNL     1       4.432   1.119   9.012  0.00  0.00    +0.123 A 
ATOM     19  C   UNL     1       5.011  -0.102   9.320  0.00  0.00    +0.039 A 
ATOM     20  C   UNL     1       4.998  -1.127   8.397  0.00  0.00    +0.013 A 
ATOM     21  F   UNL     1       4.442   2.118   9.921  0.00  0.00    -0.205 F 
ENDBRANCH  10  15
BRANCH  12  22
ATOM     22  S   UNL     1       5.992  -5.111   4.414  0.00  0.00    -0.091 S 
ATOM     23  C   UNL     1       7.483  -5.064   5.447  0.00  0.00    +0.093 C 
ENDBRANCH  12  22
ENDBRANCH   4   9
BRANCH   1  24
ATOM     24  C   UNL     1       0.742  -0.511   1.242  0.00  0.00    +0.110 C 
BRANCH  24  26
ATOM     25  C   UNL     1      -0.019   1.526   0.010  0.00  0.00    +0.014 C 
ATOM     26  C   UNL     1       0.002  -0.004   0.002  0.00  0.00    +0.033 C 
BRANCH  26  27
ATOM     27  C   UNL     1       0.707  -0.490  -1.238  0.00  0.00    -0.043 A 
ATOM     28  C   UNL     1       2.026  -0.142  -1.464  0.00  0.00    +0.004 A 
ATOM     29  C   UNL     1       2.673  -0.587  -2.602  0.00  0.00    +0.000 A 
ATOM     30  C   UNL     1       2.002  -1.382  -3.512  0.00  0.00    +0.000 A 
ATOM     31  C   UNL     1       0.684  -1.731  -3.285  0.00  0.00    +0.000 A 
ATOM     32  C   UNL     1       0.038  -1.289  -2.146  0.00  0.00    +0.004 A 
ENDBRANCH  26  27
ENDBRANCH  24  26
ENDBRANCH   1  24
TORSDOF 6
