REMARK  Name = CHEMBL18950
REMARK  9 active torsions:
REMARK  status: ('A' for Active; 'I' for Inactive)
REMARK    1  A    between atoms: C_1  and  C_2
REMARK    2  A    between atoms: C_2  and  C_3
REMARK    3  A    between atoms: C_2  and  C_4
REMARK    4  A    between atoms: C_2  and  C_5
REMARK    5  A    between atoms: C_7  and  N_15
REMARK    6  A    between atoms: C_8  and  C_11
REMARK    7  A    between atoms: C_11  and  O_13
REMARK    8  A    between atoms: O_13  and  C_14
REMARK    9  A    between atoms: N_18  and  C_19
REMARK                            x       y       z     vdW  Elec       q    Type
REMARK                         _______ _______ _______ _____ _____    ______ ____
ROOT
ATOM      1  C   UNL     1       0.682  -0.489  -1.251  0.00  0.00    +0.024 A 
ATOM      2  C   UNL     1       0.802  -1.782  -1.629  0.00  0.00    +0.047 A 
ATOM      3  C   UNL     1       1.523  -1.816  -2.834  0.00  0.00    +0.067 A 
ATOM      4  C   UNL     1       1.827  -0.501  -3.160  0.00  0.00    +0.146 A 
ATOM      5  N   UNL     1       1.292   0.302  -2.168  0.00  0.00    -0.351 N 
ATOM      6  H   UNL     1       1.347   1.270  -2.134  0.00  0.00    +0.166 HD
ENDROOT
BRANCH   3   7
ATOM      7  N   UNL     1       1.867  -2.954  -3.563  0.00  0.00    -0.267 N 
ATOM      8  C   UNL     1       1.502  -4.173  -3.122  0.00  0.00    +0.308 C 
ATOM      9  O   UNL     1       0.871  -4.282  -2.088  0.00  0.00    -0.252 OA
ATOM     10  N   UNL     1       1.834  -5.273  -3.828  0.00  0.00    -0.268 N 
ATOM     11  H   UNL     1       2.370  -2.867  -4.388  0.00  0.00    +0.156 HD
ATOM     12  H   UNL     1       2.280  -5.183  -4.684  0.00  0.00    +0.156 HD
BRANCH  10  13
ATOM     13  C   UNL     1       1.537  -6.544  -3.323  0.00  0.00    +0.055 A 
ATOM     14  C   UNL     1       0.379  -6.746  -2.584  0.00  0.00    +0.025 A 
ATOM     15  C   UNL     1       0.087  -8.002  -2.088  0.00  0.00    +0.003 A 
ATOM     16  C   UNL     1       0.948  -9.058  -2.325  0.00  0.00    +0.021 A 
ATOM     17  C   UNL     1       2.103  -8.862  -3.060  0.00  0.00    +0.061 A 
ATOM     18  C   UNL     1       2.397  -7.608  -3.566  0.00  0.00    +0.080 A 
ATOM     19 CL   UNL     1       3.843  -7.362  -4.495  0.00  0.00    -0.080 Cl
ATOM     20 CL   UNL     1       3.180 -10.191  -3.355  0.00  0.00    -0.082 Cl
ENDBRANCH  10  13
ENDBRANCH   3   7
BRANCH   1  22
ATOM     21  C   UNL     1      -0.054   1.526  -0.007  0.00  0.00    +0.017 C 
ATOM     22  C   UNL     1      -0.023  -0.004  -0.011  0.00  0.00    +0.002 C 
ATOM     23  C   UNL     1       0.723  -0.501   1.228  0.00  0.00    +0.017 C 
ATOM     24  C   UNL     1      -1.455  -0.543   0.005  0.00  0.00    +0.017 C 
ENDBRANCH   1  22
BRANCH   4  25
ATOM     25  C   UNL     1       2.546  -0.064  -4.297  0.00  0.00    +0.357 C 
ATOM     26  O   UNL     1       2.963  -0.875  -5.103  0.00  0.00    -0.243 OA
BRANCH  25  27
ATOM     27  O   UNL     1       2.770   1.254  -4.488  0.00  0.00    -0.463 OA
ATOM     28  C   UNL     1       3.503   1.624  -5.658  0.00  0.00    +0.280 C 
ENDBRANCH  25  27
ENDBRANCH   4  25
TORSDOF 5
