REMARK  Name = CHEMBL520967
REMARK  12 active torsions:
REMARK  status: ('A' for Active; 'I' for Inactive)
REMARK    1  A    between atoms: C_1  and  C_2
REMARK    2  A    between atoms: C_2  and  C_3
REMARK    3  A    between atoms: C_2  and  C_4
REMARK    4  A    between atoms: C_2  and  C_5
REMARK    5  A    between atoms: C_7  and  C_11
REMARK    6  A    between atoms: N_8  and  C_10
REMARK    7  A    between atoms: C_11  and  C_13
REMARK    8  A    between atoms: N_15  and  C_16
REMARK    9  A    between atoms: C_19  and  O_26
REMARK   10  A    between atoms: O_26  and  C_27
REMARK   11  A    between atoms: C_27  and  C_28
REMARK   12  A    between atoms: C_28  and  N_29
REMARK                            x       y       z     vdW  Elec       q    Type
REMARK                         _______ _______ _______ _____ _____    ______ ____
ROOT
ATOM      1  C   UNL     1       7.289  -0.510  -3.070  0.00  0.00    +0.042 A 
ATOM      2  C   UNL     1       7.325  -0.079  -1.761  0.00  0.00    +0.027 A 
ATOM      3  C   UNL     1       8.513   0.363  -1.189  0.00  0.00    +0.048 A 
ATOM      4  C   UNL     1       9.682   0.382  -1.915  0.00  0.00    +0.128 A 
ATOM      5  C   UNL     1       9.680  -0.052  -3.256  0.00  0.00    +0.026 A 
ATOM      6  C   UNL     1       8.472  -0.508  -3.839  0.00  0.00    +0.007 A 
ATOM      7  C   UNL     1       8.473  -0.946  -5.173  0.00  0.00    +0.010 A 
ATOM      8  C   UNL     1       9.633  -0.931  -5.886  0.00  0.00    +0.001 A 
ATOM      9  C   UNL     1      10.822  -0.488  -5.312  0.00  0.00    +0.001 A 
ATOM     10  C   UNL     1      10.856  -0.045  -4.025  0.00  0.00    +0.012 A 
ENDROOT
BRANCH   1  13
ATOM     11  C   UNL     1       4.925  -0.379  -3.265  0.00  0.00    +0.290 C 
ATOM     12  O   UNL     1       4.909   0.459  -2.386  0.00  0.00    -0.266 OA
ATOM     13  N   UNL     1       6.089  -0.951  -3.630  0.00  0.00    -0.278 N 
ATOM     14  H   UNL     1       6.093  -1.669  -4.282  0.00  0.00    +0.155 HD
BRANCH  11  15
ATOM     15  C   UNL     1       3.656  -0.774  -3.941  0.00  0.00    +0.265 C 
ATOM     16  O   UNL     1       3.672  -1.612  -4.821  0.00  0.00    -0.280 OA
BRANCH  15  19
ATOM     17  C   UNL     1       0.837   1.083  -2.562  0.00  0.00    +0.069 A 
ATOM     18  C   UNL     1       2.206   0.816  -2.563  0.00  0.00    +0.057 A 
ATOM     19  C   UNL     1       2.390  -0.152  -3.545  0.00  0.00    +0.114 A 
ATOM     20  N   UNL     1       1.150  -0.406  -4.065  0.00  0.00    -0.263 N 
ATOM     21  N   UNL     1       0.276   0.322  -3.469  0.00  0.00    -0.175 NA
ATOM     22  C   UNL     1       0.863  -1.365  -5.135  0.00  0.00    +0.173 C 
BRANCH  17  24
ATOM     23  C   UNL     1       0.401   3.491  -2.161  0.00  0.00    +0.017 C 
ATOM     24  C   UNL     1       0.128   2.068  -1.669  0.00  0.00    +0.006 C 
ATOM     25  C   UNL     1       0.639   1.917  -0.235  0.00  0.00    +0.017 C 
ATOM     26  C   UNL     1      -1.378   1.796  -1.705  0.00  0.00    +0.017 C 
ENDBRANCH  17  24
ENDBRANCH  15  19
ENDBRANCH  11  15
ENDBRANCH   1  13
BRANCH   4  27
ATOM     27  O   UNL     1      10.835   0.818  -1.342  0.00  0.00    -0.490 OA
BRANCH  27  28
ATOM     28  C   UNL     1      10.761   1.243   0.021  0.00  0.00    +0.244 C 
BRANCH  28  29
ATOM     29  C   UNL     1      12.145   1.695   0.490  0.00  0.00    +0.125 C 
BRANCH  29  30
ATOM     30  N   UNL     1      12.567   2.867  -0.289  0.00  0.00    -0.295 NA
ATOM     31  C   UNL     1      13.983   3.180  -0.045  0.00  0.00    +0.112 C 
ATOM     32  C   UNL     1      14.395   4.367  -0.919  0.00  0.00    +0.175 C 
ATOM     33  O   UNL     1      13.539   5.479  -0.639  0.00  0.00    -0.377 OA
ATOM     34  C   UNL     1      12.153   5.209  -0.867  0.00  0.00    +0.175 C 
ATOM     35  C   UNL     1      11.718   4.030   0.007  0.00  0.00    +0.112 C 
ENDBRANCH  29  30
ENDBRANCH  28  29
ENDBRANCH  27  28
ENDBRANCH   4  27
TORSDOF 8
