REMARK  Name = CHEMBL1093548
REMARK  10 active torsions:
REMARK  status: ('A' for Active; 'I' for Inactive)
REMARK    1  A    between atoms: C_1  and  C_2
REMARK    2  A    between atoms: C_2  and  C_4
REMARK    3  A    between atoms: C_2  and  N_10
REMARK    4  A    between atoms: C_15  and  N_17
REMARK    5  A    between atoms: N_17  and  C_18
REMARK    6  A    between atoms: C_18  and  C_19
REMARK    7  A    between atoms: C_19  and  C_20
REMARK    8  A    between atoms: C_20  and  C_21
REMARK    9  A    between atoms: C_21  and  N_22
REMARK   10  A    between atoms: C_23  and  C_25
REMARK                            x       y       z     vdW  Elec       q    Type
REMARK                         _______ _______ _______ _____ _____    ______ ____
ROOT
ATOM      1  N   UNL     1       4.545  -1.425  -3.768  0.00  0.00    -0.252 N 
ATOM      2  C   UNL     1       3.987  -1.709  -4.961  0.00  0.00    +0.252 C 
ATOM      3  O   UNL     1       2.778  -1.693  -5.086  0.00  0.00    -0.270 OA
ENDROOT
BRANCH   2   4
ATOM      4  C   UNL     1       4.844  -2.040  -6.116  0.00  0.00    +0.038 A 
ATOM      5  C   UNL     1       4.526  -1.560  -7.390  0.00  0.00    +0.016 A 
ATOM      6  C   UNL     1       5.328  -1.866  -8.463  0.00  0.00    +0.046 A 
ATOM      7  C   UNL     1       6.465  -2.658  -8.294  0.00  0.00    +0.124 A 
ATOM      8  C   UNL     1       6.772  -3.139  -7.025  0.00  0.00    -0.002 A 
ATOM      9  C   UNL     1       5.984  -2.831  -5.944  0.00  0.00    +0.020 A 
ATOM     10  C   UNL     1       8.030  -3.976  -7.160  0.00  0.00    +0.080 C 
ATOM     11  C   UNL     1       8.105  -4.194  -8.690  0.00  0.00    +0.234 C 
ATOM     12  O   UNL     1       7.386  -3.062  -9.209  0.00  0.00    -0.491 OA
ENDBRANCH   2   4
BRANCH   1  18
ATOM     13  N   UNL     1       0.280  -1.309  -1.808  0.00  0.00    -0.307 N 
ATOM     14  C   UNL     1       1.648  -1.137  -1.689  0.00  0.00    +0.217 A 
ATOM     15  N   UNL     1       2.152  -0.759  -0.523  0.00  0.00    -0.223 NA
ATOM     16  C   UNL     1       3.456  -0.585  -0.370  0.00  0.00    +0.118 A 
ATOM     17  C   UNL     1       4.297  -0.800  -1.445  0.00  0.00    +0.064 A 
ATOM     18  C   UNL     1       3.737  -1.197  -2.660  0.00  0.00    +0.133 A 
ATOM     19  N   UNL     1       2.421  -1.358  -2.741  0.00  0.00    -0.199 NA
ATOM     20  H   UNL     1      -0.102  -1.589  -2.655  0.00  0.00    +0.149 HD
BRANCH  13  22
ATOM     21  C   UNL     1      -0.935   0.420  -0.577  0.00  0.00    +0.033 C 
ATOM     22  C   UNL     1      -0.592  -1.069  -0.656  0.00  0.00    +0.100 C 
BRANCH  22  23
ATOM     23  C   UNL     1      -1.860  -1.869  -0.810  0.00  0.00    -0.027 A 
ATOM     24  C   UNL     1      -2.460  -1.981  -2.051  0.00  0.00    +0.005 A 
ATOM     25  C   UNL     1      -3.623  -2.715  -2.192  0.00  0.00    +0.000 A 
ATOM     26  C   UNL     1      -4.186  -3.336  -1.093  0.00  0.00    +0.000 A 
ATOM     27  C   UNL     1      -3.587  -3.224   0.147  0.00  0.00    +0.000 A 
ATOM     28  C   UNL     1      -2.421  -2.494   0.288  0.00  0.00    +0.005 A 
ENDBRANCH  22  23
ENDBRANCH  13  22
ENDBRANCH   1  18
BRANCH   1  29
ATOM     29  C   UNL     1       6.002  -1.356  -3.638  0.00  0.00    +0.115 C 
BRANCH  29  30
ATOM     30  C   UNL     1       6.508  -2.598  -2.902  0.00  0.00    +0.018 C 
BRANCH  30  31
ATOM     31  C   UNL     1       8.038  -2.602  -2.900  0.00  0.00    -0.018 C 
BRANCH  31  32
ATOM     32  C   UNL     1       8.544  -3.844  -2.164  0.00  0.00    -0.086 C 
BRANCH  32  33
ATOM     33  N   UNL     1      10.013  -3.848  -2.162  0.00  0.00    +0.378 N 
ATOM     34  H   UNL     1      10.351  -3.859  -3.113  0.00  0.00    -0.090 HD
ATOM     35  H   UNL     1      10.351  -3.019  -1.695  0.00  0.00    -0.090 HD
ATOM     36  H   UNL     1      10.347  -4.667  -1.677  0.00  0.00    -0.090 HD
ENDBRANCH  32  33
ENDBRANCH  31  32
ENDBRANCH  30  31
ENDBRANCH  29  30
ENDBRANCH   1  29
TORSDOF 9
