REMARK  Name = CHEMBL161137
REMARK  7 active torsions:
REMARK  status: ('A' for Active; 'I' for Inactive)
REMARK    1  A    between atoms: C_1  and  C_2
REMARK    2  A    between atoms: C_10  and  C_24
REMARK    3  A    between atoms: C_11  and  C_14
REMARK    4  A    between atoms: C_18  and  C_20
REMARK    5  A    between atoms: N_30  and  C_31
REMARK    6  A    between atoms: C_31  and  C_33
REMARK    7  A    between atoms: C_31  and  C_34
REMARK                            x       y       z     vdW  Elec       q    Type
REMARK                         _______ _______ _______ _____ _____    ______ ____
ROOT
ATOM      1  C   UNL     1      -0.372   1.500  -0.205  0.00  0.00    +0.007 C 
ATOM      2  C   UNL     1      -0.277  -0.027  -0.167  0.00  0.00    -0.011 C 
ATOM      3  C   UNL     1      -1.684  -0.625  -0.110  0.00  0.00    +0.022 C 
ATOM      4  C   UNL     1      -1.586  -2.153  -0.107  0.00  0.00    +0.107 C 
ATOM      5  N   UNL     1      -0.709  -2.569   0.996  0.00  0.00    -0.314 N 
ATOM      6  C   UNL     1       0.636  -1.985   1.087  0.00  0.00    +0.107 C 
ATOM      7  C   UNL     1       0.513  -0.458   1.071  0.00  0.00    +0.022 C 
ATOM      8  C   UNL     1      -1.143  -3.497   1.936  0.00  0.00    +0.144 A 
ATOM      9  C   UNL     1      -2.420  -4.046   1.834  0.00  0.00    +0.057 A 
ATOM     10  C   UNL     1      -2.811  -4.973   2.801  0.00  0.00    +0.031 A 
ATOM     11  C   UNL     1      -1.886  -5.291   3.815  0.00  0.00    +0.103 A 
ATOM     12  N   UNL     1      -0.694  -4.710   3.821  0.00  0.00    -0.147 NA
ATOM     13  N   UNL     1      -0.341  -3.862   2.926  0.00  0.00    -0.134 NA
ENDROOT
BRANCH  10  14
ATOM     14  C   UNL     1      -4.153  -5.602   2.762  0.00  0.00    +0.078 A 
ATOM     15  C   UNL     1      -4.631  -6.181   1.583  0.00  0.00    +0.048 A 
ATOM     16  C   UNL     1      -5.890  -6.756   1.595  0.00  0.00    +0.116 A 
ATOM     17  N   UNL     1      -6.598  -6.741   2.714  0.00  0.00    -0.223 NA
ATOM     18  C   UNL     1      -6.119  -6.185   3.817  0.00  0.00    +0.216 A 
ATOM     19  N   UNL     1      -4.918  -5.629   3.851  0.00  0.00    -0.214 NA
ATOM     20  N   UNL     1      -6.892  -6.190   4.965  0.00  0.00    -0.307 N 
ATOM     21  H   UNL     1      -6.526  -5.852   5.798  0.00  0.00    +0.149 HD
BRANCH  20  22
ATOM     22  C   UNL     1      -8.262  -6.707   4.923  0.00  0.00    +0.100 C 
ATOM     23  C   UNL     1      -8.241  -8.225   5.106  0.00  0.00    +0.033 C 
BRANCH  22  24
ATOM     24  C   UNL     1      -9.070  -6.078   6.029  0.00  0.00    -0.027 A 
ATOM     25  C   UNL     1      -8.501  -5.880   7.274  0.00  0.00    +0.005 A 
ATOM     26  C   UNL     1      -9.242  -5.304   8.289  0.00  0.00    +0.000 A 
ATOM     27  C   UNL     1     -10.551  -4.926   8.059  0.00  0.00    +0.000 A 
ATOM     28  C   UNL     1     -11.120  -5.123   6.815  0.00  0.00    +0.000 A 
ATOM     29  C   UNL     1     -10.378  -5.695   5.799  0.00  0.00    +0.005 A 
ENDBRANCH  22  24
ENDBRANCH  20  22
ENDBRANCH  10  14
BRANCH  11  30
ATOM     30  C   UNL     1      -2.244  -6.268   4.870  0.00  0.00    +0.003 A 
ATOM     31  C   UNL     1      -2.889  -7.458   4.532  0.00  0.00    +0.010 A 
ATOM     32  C   UNL     1      -3.219  -8.364   5.519  0.00  0.00    +0.001 A 
ATOM     33  C   UNL     1      -2.912  -8.095   6.841  0.00  0.00    +0.012 A 
ATOM     34  C   UNL     1      -2.272  -6.917   7.182  0.00  0.00    +0.055 A 
ATOM     35  C   UNL     1      -1.932  -6.005   6.203  0.00  0.00    +0.022 A 
BRANCH  34  36
ATOM     36  C   UNL     1      -1.942  -6.630   8.624  0.00  0.00    +0.417 C 
ATOM     37  F   UNL     1      -2.377  -7.694   9.422  0.00  0.00    -0.166 F 
ATOM     38  F   UNL     1      -0.559  -6.478   8.764  0.00  0.00    -0.166 F 
ATOM     39  F   UNL     1      -2.584  -5.454   9.025  0.00  0.00    -0.166 F 
ENDBRANCH  34  36
ENDBRANCH  11  30
TORSDOF 5
