REMARK  Name = CHEMBL194813
REMARK  14 active torsions:
REMARK  status: ('A' for Active; 'I' for Inactive)
REMARK    1  A    between atoms: C_1  and  C_2
REMARK    2  A    between atoms: C_5  and  C_26
REMARK    3  A    between atoms: C_7  and  N_8
REMARK    4  A    between atoms: C_10  and  C_24
REMARK    5  A    between atoms: C_11  and  N_17
REMARK    6  A    between atoms: N_15  and  C_16
REMARK    7  A    between atoms: N_17  and  C_18
REMARK    8  A    between atoms: N_17  and  C_19
REMARK    9  A    between atoms: C_19  and  C_20
REMARK   10  A    between atoms: C_20  and  C_21
REMARK   11  A    between atoms: C_20  and  C_22
REMARK   12  A    between atoms: C_20  and  C_23
REMARK   13  A    between atoms: N_28  and  O_29
REMARK   14  A    between atoms: O_29  and  C_30
REMARK                            x       y       z     vdW  Elec       q    Type
REMARK                         _______ _______ _______ _____ _____    ______ ____
ROOT
ATOM      1  N   UNL     1      -0.393   0.037   2.449  0.00  0.00    -0.298 N 
ATOM      2  C   UNL     1      -0.366  -0.651   3.646  0.00  0.00    +0.147 A 
ATOM      3  C   UNL     1      -0.441   0.040   4.872  0.00  0.00    +0.132 A 
ATOM      4  C   UNL     1      -0.409  -0.715   6.062  0.00  0.00    +0.146 A 
ATOM      5  N   UNL     1      -0.310  -2.037   5.981  0.00  0.00    -0.198 NA
ATOM      6  C   UNL     1      -0.242  -2.646   4.805  0.00  0.00    +0.218 A 
ATOM      7  N   UNL     1      -0.273  -1.977   3.661  0.00  0.00    -0.198 NA
ATOM      8  N   UNL     1      -0.140  -4.022   4.771  0.00  0.00    -0.316 N 
ATOM      9  C   UNL     1      -0.062  -4.719   3.484  0.00  0.00    +0.128 C 
ATOM     10  H   UNL     1      -0.408   1.007   2.447  0.00  0.00    +0.154 HD
ATOM     11  H   UNL     1      -0.119  -4.528   5.598  0.00  0.00    +0.149 HD
ENDROOT
BRANCH   1  18
ATOM     12  C   UNL     1      -1.890   1.114   0.287  0.00  0.00    +0.045 C 
ATOM     13  C   UNL     1      -1.118  -0.174   0.155  0.00  0.00    -0.029 A 
ATOM     14  C   UNL     1      -1.123  -0.860  -1.045  0.00  0.00    +0.006 A 
ATOM     15  C   UNL     1      -0.419  -2.040  -1.173  0.00  0.00    +0.013 A 
ATOM     16  C   UNL     1       0.301  -2.545  -0.088  0.00  0.00    +0.040 A 
ATOM     17  C   UNL     1       0.307  -1.852   1.122  0.00  0.00    +0.036 A 
ATOM     18  C   UNL     1      -0.400  -0.664   1.239  0.00  0.00    +0.036 A 
BRANCH  16  19
ATOM     19  C   UNL     1       1.056  -3.809  -0.223  0.00  0.00    +0.267 C 
ATOM     20  O   UNL     1       1.683  -4.246   0.723  0.00  0.00    -0.268 OA
ATOM     21  N   UNL     1       1.049  -4.477  -1.393  0.00  0.00    -0.191 N 
ATOM     22  H   UNL     1       0.549  -4.128  -2.148  0.00  0.00    +0.183 HD
BRANCH  21  23
ATOM     23  O   UNL     1       1.772  -5.688  -1.522  0.00  0.00    -0.283 OA
ATOM     24  C   UNL     1       1.676  -6.287  -2.816  0.00  0.00    +0.226 C 
ENDBRANCH  21  23
ENDBRANCH  16  19
ENDBRANCH   1  18
BRANCH   4  25
ATOM     25  N   UNL     1      -0.479  -0.091   7.291  0.00  0.00    -0.317 N 
ATOM     26  C   UNL     1       0.741   0.412   7.928  0.00  0.00    +0.130 C 
BRANCH  25  27
ATOM     27  C   UNL     1      -1.773   0.069   7.959  0.00  0.00    +0.112 C 
BRANCH  27  28
ATOM     28  C   UNL     1      -1.973  -1.067   8.964  0.00  0.00    -0.022 C 
ATOM     29  C   UNL     1      -0.930  -0.952  10.077  0.00  0.00    +0.012 C 
ATOM     30  C   UNL     1      -3.375  -0.974   9.567  0.00  0.00    +0.012 C 
ATOM     31  C   UNL     1      -1.812  -2.412   8.252  0.00  0.00    +0.012 C 
ENDBRANCH  27  28
ENDBRANCH  25  27
ENDBRANCH   4  25
BRANCH   3  32
ATOM     32  C   UNL     1      -0.547   1.468   4.908  0.00  0.00    +0.106 C 
ATOM     33  N   UNL     1      -0.630   2.600   4.936  0.00  0.00    -0.191 NA
ENDBRANCH   3  32
TORSDOF 7
