REMARK  Name = CHEMBL214152
REMARK  5 active torsions:
REMARK  status: ('A' for Active; 'I' for Inactive)
REMARK    1  A    between atoms: C_1  and  C_2
REMARK    2  A    between atoms: C_2  and  C_3
REMARK    3  A    between atoms: C_2  and  C_4
REMARK    4  A    between atoms: C_10  and  C_13
REMARK    5  A    between atoms: C_14  and  C_19
REMARK                            x       y       z     vdW  Elec       q    Type
REMARK                         _______ _______ _______ _____ _____    ______ ____
ROOT
ATOM      1  C   UNL     1      -1.869  -3.204  -4.135  0.00  0.00    +0.075 A 
ATOM      2  C   UNL     1      -2.168  -2.778  -5.416  0.00  0.00    +0.099 A 
ATOM      3  N   UNL     1      -1.509  -3.581  -6.274  0.00  0.00    -0.235 NA
ATOM      4  C   UNL     1      -0.829  -4.469  -5.605  0.00  0.00    +0.197 A 
ATOM      5  N   UNL     1      -1.015  -4.274  -4.275  0.00  0.00    -0.344 N 
ATOM      6  H   UNL     1      -0.621  -4.793  -3.557  0.00  0.00    +0.167 HD
ENDROOT
BRANCH   1  13
ATOM      7  C   UNL     1      -1.412  -0.526   0.013  0.00  0.00    +0.140 A 
ATOM      8  N   UNL     1      -2.313  -0.299   0.933  0.00  0.00    -0.133 NA
ATOM      9  N   UNL     1      -3.415  -0.893   0.635  0.00  0.00    -0.129 NA
ATOM     10  C   UNL     1      -3.272  -1.541  -0.510  0.00  0.00    +0.161 A 
ATOM     11  N   UNL     1      -1.986  -1.314  -0.937  0.00  0.00    -0.286 N 
ATOM     12  C   UNL     1      -1.538  -1.853  -2.105  0.00  0.00    +0.104 A 
ATOM     13  C   UNL     1      -2.364  -2.624  -2.870  0.00  0.00    +0.017 A 
ATOM     14  C   UNL     1      -3.695  -2.868  -2.451  0.00  0.00    +0.015 A 
ATOM     15  C   UNL     1      -4.139  -2.338  -1.283  0.00  0.00    +0.049 A 
BRANCH   7  17
ATOM     16  C   UNL     1      -0.019   1.526   0.010  0.00  0.00    +0.015 C 
ATOM     17  C   UNL     1       0.002  -0.004   0.002  0.00  0.00    +0.051 C 
ATOM     18  C   UNL     1       0.742  -0.511   1.242  0.00  0.00    +0.015 C 
ENDBRANCH   7  17
ENDBRANCH   1  13
BRANCH   2  19
ATOM     19  C   UNL     1      -3.051  -1.645  -5.779  0.00  0.00    +0.040 A 
ATOM     20  C   UNL     1      -3.668  -0.892  -4.781  0.00  0.00    +0.051 A 
ATOM     21  C   UNL     1      -4.491   0.164  -5.126  0.00  0.00    +0.124 A 
ATOM     22  C   UNL     1      -4.702   0.474  -6.459  0.00  0.00    +0.041 A 
ATOM     23  C   UNL     1      -4.093  -0.270  -7.453  0.00  0.00    +0.042 A 
ATOM     24  C   UNL     1      -3.264  -1.325  -7.121  0.00  0.00    +0.133 A 
ATOM     25  F   UNL     1      -2.665  -2.047  -8.093  0.00  0.00    -0.205 F 
ATOM     26  F   UNL     1      -5.090   0.895  -4.160  0.00  0.00    -0.205 F 
ENDBRANCH   2  19
TORSDOF 3
