REMARK  Name = CHEMBL68572
REMARK  7 active torsions:
REMARK  status: ('A' for Active; 'I' for Inactive)
REMARK    1  A    between atoms: C_1  and  O_2
REMARK    2  A    between atoms: O_2  and  C_3
REMARK    3  A    between atoms: C_6  and  C_9
REMARK    4  A    between atoms: C_9  and  N_10
REMARK    5  A    between atoms: C_15  and  C_17
REMARK    6  A    between atoms: C_18  and  C_29
REMARK    7  A    between atoms: C_20  and  C_23
REMARK                            x       y       z     vdW  Elec       q    Type
REMARK                         _______ _______ _______ _____ _____    ______ ____
ROOT
ATOM      1  C   UNL     1      -8.589  -4.521  -4.508  0.00  0.00    +0.115 A 
ATOM      2  C   UNL     1      -8.190  -3.782  -5.611  0.00  0.00    +0.076 A 
ATOM      3  N   UNL     1      -8.822  -4.335  -6.697  0.00  0.00    -0.337 N 
ATOM      4  C   UNL     1      -9.578  -5.377  -6.239  0.00  0.00    +0.139 A 
ATOM      5  N   UNL     1      -9.425  -5.480  -4.939  0.00  0.00    -0.226 NA
ATOM      6  H   UNL     1      -8.747  -4.040  -7.618  0.00  0.00    +0.167 HD
ENDROOT
BRANCH   1  12
ATOM      7  N   UNL     1      -5.423  -2.855  -1.343  0.00  0.00    -0.309 N 
ATOM      8  C   UNL     1      -6.629  -3.489  -1.588  0.00  0.00    +0.216 A 
ATOM      9  N   UNL     1      -7.373  -3.880  -0.563  0.00  0.00    -0.223 NA
ATOM     10  C   UNL     1      -8.533  -4.490  -0.755  0.00  0.00    +0.116 A 
ATOM     11  C   UNL     1      -8.971  -4.720  -2.045  0.00  0.00    +0.050 A 
ATOM     12  C   UNL     1      -8.165  -4.297  -3.108  0.00  0.00    +0.096 A 
ATOM     13  N   UNL     1      -7.012  -3.685  -2.840  0.00  0.00    -0.213 NA
ATOM     14  H   UNL     1      -4.871  -2.561  -2.084  0.00  0.00    +0.149 HD
BRANCH   7  15
ATOM     15  C   UNL     1      -4.981  -2.629   0.035  0.00  0.00    +0.139 C 
BRANCH  15  19
ATOM     16  C   UNL     1      -1.200  -0.637   0.010  0.00  0.00    +0.120 A 
ATOM     17  C   UNL     1      -2.375   0.101   0.019  0.00  0.00    +0.046 A 
ATOM     18  C   UNL     1      -3.596  -0.545   0.027  0.00  0.00    +0.009 A 
ATOM     19  C   UNL     1      -3.648  -1.927   0.026  0.00  0.00    -0.030 A 
ATOM     20  C   UNL     1      -2.479  -2.665   0.017  0.00  0.00    +0.009 A 
ATOM     21  C   UNL     1      -1.255  -2.024   0.003  0.00  0.00    +0.046 A 
BRANCH  16  23
ATOM     22  C   UNL     1      -0.017   1.425   0.010  0.00  0.00    +0.277 C 
ATOM     23  O   UNL     1       0.002  -0.004   0.002  0.00  0.00    -0.495 OA
ENDBRANCH  16  23
ENDBRANCH  15  19
ENDBRANCH   7  15
ENDBRANCH   1  12
BRANCH   4  24
ATOM     24  C   UNL     1     -10.426  -6.253  -7.074  0.00  0.00    +0.017 A 
ATOM     25  C   UNL     1     -10.498  -6.051  -8.453  0.00  0.00    +0.011 A 
ATOM     26  C   UNL     1     -11.291  -6.872  -9.227  0.00  0.00    +0.001 A 
ATOM     27  C   UNL     1     -12.015  -7.895  -8.639  0.00  0.00    +0.000 A 
ATOM     28  C   UNL     1     -11.948  -8.100  -7.273  0.00  0.00    +0.001 A 
ATOM     29  C   UNL     1     -11.155  -7.289  -6.488  0.00  0.00    +0.011 A 
ENDBRANCH   4  24
BRANCH   2  30
ATOM     30  C   UNL     1      -7.267  -2.630  -5.617  0.00  0.00    +0.000 A 
ATOM     31  C   UNL     1      -7.393  -1.625  -4.655  0.00  0.00    +0.010 A 
ATOM     32  C   UNL     1      -6.527  -0.551  -4.666  0.00  0.00    +0.001 A 
ATOM     33  C   UNL     1      -5.536  -0.468  -5.627  0.00  0.00    +0.000 A 
ATOM     34  C   UNL     1      -5.405  -1.460  -6.584  0.00  0.00    +0.001 A 
ATOM     35  C   UNL     1      -6.260  -2.542  -6.581  0.00  0.00    +0.010 A 
ENDBRANCH   2  30
TORSDOF 6
