REMARK  Name = CHEMBL425393
REMARK  7 active torsions:
REMARK  status: ('A' for Active; 'I' for Inactive)
REMARK    1  A    between atoms: C_1  and  O_2
REMARK    2  A    between atoms: O_2  and  C_3
REMARK    3  A    between atoms: C_6  and  C_28
REMARK    4  A    between atoms: C_8  and  C_9
REMARK    5  A    between atoms: N_19  and  C_20
REMARK    6  A    between atoms: C_28  and  N_29
REMARK    7  A    between atoms: N_29  and  C_30
REMARK                            x       y       z     vdW  Elec       q    Type
REMARK                         _______ _______ _______ _____ _____    ______ ____
ROOT
ATOM      1  C   UNL     1       0.090  -2.688  -0.104  0.00  0.00    +0.079 A 
ATOM      2  C   UNL     1       1.051  -2.742   0.908  0.00  0.00    +0.046 A 
ATOM      3  C   UNL     1       1.289  -2.014   2.090  0.00  0.00    +0.017 A 
ATOM      4  C   UNL     1       2.359  -2.362   2.856  0.00  0.00    +0.044 A 
ATOM      5  C   UNL     1       3.197  -3.419   2.472  0.00  0.00    +0.125 A 
ATOM      6  N   UNL     1       2.996  -4.113   1.373  0.00  0.00    -0.211 NA
ATOM      7  C   UNL     1       1.964  -3.839   0.558  0.00  0.00    +0.183 A 
ATOM      8  N   UNL     1       1.527  -4.352  -0.578  0.00  0.00    -0.153 NA
ATOM      9  N   UNL     1       0.382  -3.663  -0.990  0.00  0.00    -0.274 N 
ATOM     10  H   UNL     1      -0.126  -3.855  -1.794  0.00  0.00    +0.189 HD
ATOM     11  N   UNL     1       4.278  -3.743   3.280  0.00  0.00    -0.297 N 
ATOM     12  H   UNL     1       4.389  -3.307   4.139  0.00  0.00    +0.154 HD
ENDROOT
BRANCH  11  13
ATOM     13  C   UNL     1       5.208  -4.700   2.855  0.00  0.00    +0.068 A 
ATOM     14  C   UNL     1       5.488  -4.844   1.503  0.00  0.00    +0.029 A 
ATOM     15  C   UNL     1       6.406  -5.788   1.086  0.00  0.00    +0.040 A 
ATOM     16  C   UNL     1       7.047  -6.591   2.014  0.00  0.00    +0.126 A 
ATOM     17  C   UNL     1       6.770  -6.450   3.363  0.00  0.00    +0.078 A 
ATOM     18  C   UNL     1       5.856  -5.503   3.787  0.00  0.00    +0.147 A 
ATOM     19  F   UNL     1       5.590  -5.361   5.104  0.00  0.00    -0.203 F 
ATOM     20  F   UNL     1       7.944  -7.514   1.603  0.00  0.00    -0.205 F 
ENDBRANCH  11  13
BRANCH   1  26
ATOM     21  C   UNL     1      -0.800  -0.372  -0.352  0.00  0.00    +0.129 A 
ATOM     22  C   UNL     1      -1.868   0.506  -0.435  0.00  0.00    +0.046 A 
ATOM     23  C   UNL     1      -3.163   0.033  -0.347  0.00  0.00    +0.005 A 
ATOM     24  C   UNL     1      -3.404  -1.320  -0.178  0.00  0.00    -0.064 A 
ATOM     25  C   UNL     1      -2.353  -2.208  -0.094  0.00  0.00    +0.015 A 
ATOM     26  C   UNL     1      -1.039  -1.743  -0.186  0.00  0.00    +0.042 A 
BRANCH  21  28
ATOM     27  C   UNL     1       0.640   1.502  -0.606  0.00  0.00    +0.277 C 
ATOM     28  O   UNL     1       0.474   0.093  -0.438  0.00  0.00    -0.494 OA
ENDBRANCH  21  28
BRANCH  24  29
ATOM     29  C   UNL     1      -4.821  -1.824  -0.084  0.00  0.00    -0.046 C 
BRANCH  29  30
ATOM     30  N   UNL     1      -5.313  -2.155  -1.428  0.00  0.00    +0.384 N 
ATOM     31  H   UNL     1      -5.288  -1.329  -2.008  0.00  0.00    -0.085 HD
ATOM     32  H   UNL     1      -4.729  -2.869  -1.834  0.00  0.00    -0.085 HD
BRANCH  30  33
ATOM     33  C   UNL     1      -6.695  -2.646  -1.336  0.00  0.00    -0.071 C 
ATOM     34  C   UNL     1      -6.724  -4.011  -0.619  0.00  0.00    -0.016 C 
ATOM     35  C   UNL     1      -7.825  -4.808  -1.363  0.00  0.00    -0.002 C 
ATOM     36  C   UNL     1      -7.622  -4.376  -2.836  0.00  0.00    -0.002 C 
ATOM     37  C   UNL     1      -7.266  -2.877  -2.746  0.00  0.00    -0.016 C 
ENDBRANCH  30  33
ENDBRANCH  29  30
ENDBRANCH  24  29
ENDBRANCH   1  26
TORSDOF 6
