REMARK  Name = CHEMBL225088
REMARK  12 active torsions:
REMARK  status: ('A' for Active; 'I' for Inactive)
REMARK    1  A    between atoms: C_1  and  C_2
REMARK    2  A    between atoms: C_5  and  C_30
REMARK    3  A    between atoms: C_7  and  N_8
REMARK    4  A    between atoms: N_15  and  C_16
REMARK    5  A    between atoms: N_15  and  C_17
REMARK    6  A    between atoms: C_17  and  C_18
REMARK    7  A    between atoms: C_18  and  C_19
REMARK    8  A    between atoms: C_18  and  C_20
REMARK    9  A    between atoms: C_18  and  C_21
REMARK   10  A    between atoms: N_26  and  C_29
REMARK   11  A    between atoms: N_32  and  O_33
REMARK   12  A    between atoms: O_33  and  C_34
REMARK                            x       y       z     vdW  Elec       q    Type
REMARK                         _______ _______ _______ _____ _____    ______ ____
ROOT
ATOM      1  N   UNL     1       0.482  -0.140   2.690  0.00  0.00    -0.283 N 
ATOM      2  C   UNL     1       0.170  -0.849   3.834  0.00  0.00    +0.225 A 
ATOM      3  N   UNL     1      -0.077  -0.204   4.969  0.00  0.00    -0.181 NA
ATOM      4  C   UNL     1      -0.376  -0.886   6.070  0.00  0.00    +0.224 A 
ATOM      5  N   UNL     1      -0.429  -2.214   6.036  0.00  0.00    -0.181 NA
ATOM      6  C   UNL     1      -0.182  -2.859   4.900  0.00  0.00    +0.223 A 
ATOM      7  N   UNL     1       0.113  -2.177   3.798  0.00  0.00    -0.181 NA
ATOM      8  N   UNL     1      -0.235  -4.238   4.864  0.00  0.00    -0.302 N 
ATOM      9  C   UNL     1      -0.674  -4.985   6.046  0.00  0.00    +0.132 C 
ATOM     10  N   UNL     1      -0.632  -0.215   7.249  0.00  0.00    -0.298 N 
ATOM     11  C   UNL     1      -0.547   1.258   7.261  0.00  0.00    +0.109 C 
ATOM     12  C   UNL     1      -1.698   1.878   8.071  0.00  0.00    +0.034 C 
ATOM     13  C   UNL     1      -2.978   1.122   7.795  0.00  0.00    +0.085 C 
ATOM     14  N   UNL     1      -3.134   0.064   8.793  0.00  0.00    -0.304 NA
ATOM     15  C   UNL     1      -2.510  -1.171   8.500  0.00  0.00    +0.103 C 
ATOM     16  C   UNL     1      -0.981  -0.985   8.426  0.00  0.00    +0.123 C 
ATOM     17  C   UNL     1      -4.548  -0.129   9.139  0.00  0.00    +0.104 C 
ATOM     18  H   UNL     1       0.612  -0.608   1.850  0.00  0.00    +0.155 HD
ENDROOT
BRANCH   1  25
ATOM     19  C   UNL     1       0.064   1.332   0.295  0.00  0.00    +0.045 C 
ATOM     20  C   UNL     1       0.412   2.011   1.595  0.00  0.00    -0.029 A 
ATOM     21  C   UNL     1       0.531   3.388   1.643  0.00  0.00    +0.006 A 
ATOM     22  C   UNL     1       0.849   4.016   2.829  0.00  0.00    +0.013 A 
ATOM     23  C   UNL     1       1.053   3.262   3.986  0.00  0.00    +0.040 A 
ATOM     24  C   UNL     1       0.934   1.873   3.938  0.00  0.00    +0.036 A 
ATOM     25  C   UNL     1       0.608   1.252   2.742  0.00  0.00    +0.037 A 
BRANCH  23  26
ATOM     26  C   UNL     1       1.395   3.933   5.258  0.00  0.00    +0.267 C 
ATOM     27  O   UNL     1       1.504   3.282   6.279  0.00  0.00    -0.268 OA
ATOM     28  N   UNL     1       1.586   5.267   5.287  0.00  0.00    -0.191 N 
ATOM     29  H   UNL     1       1.499   5.787   4.472  0.00  0.00    +0.183 HD
BRANCH  28  30
ATOM     30  O   UNL     1       1.913   5.910   6.505  0.00  0.00    -0.283 OA
ATOM     31  C   UNL     1       2.087   7.324   6.388  0.00  0.00    +0.226 C 
ENDBRANCH  28  30
ENDBRANCH  23  26
ENDBRANCH   1  25
BRANCH   8  32
ATOM     32  C   UNL     1       0.146  -4.955   3.645  0.00  0.00    +0.113 C 
BRANCH  32  33
ATOM     33  C   UNL     1       1.642  -5.273   3.687  0.00  0.00    -0.022 C 
ATOM     34  C   UNL     1       1.927  -6.235   4.842  0.00  0.00    +0.012 C 
ATOM     35  C   UNL     1       2.063  -5.922   2.367  0.00  0.00    +0.012 C 
ATOM     36  C   UNL     1       2.433  -3.979   3.894  0.00  0.00    +0.012 C 
ENDBRANCH  32  33
ENDBRANCH   8  32
TORSDOF 5
