REMARK  Name = CHEMBL423196
REMARK  11 active torsions:
REMARK  status: ('A' for Active; 'I' for Inactive)
REMARK    1  A    between atoms: C_1  and  C_2
REMARK    2  A    between atoms: C_2  and  C_3
REMARK    3  A    between atoms: C_2  and  C_4
REMARK    4  A    between atoms: C_2  and  C_5
REMARK    5  A    between atoms: C_7  and  N_16
REMARK    6  A    between atoms: N_8  and  C_10
REMARK    7  A    between atoms: N_19  and  C_20
REMARK    8  A    between atoms: C_23  and  O_30
REMARK    9  A    between atoms: O_30  and  C_31
REMARK   10  A    between atoms: C_31  and  C_32
REMARK   11  A    between atoms: C_32  and  N_33
REMARK                            x       y       z     vdW  Elec       q    Type
REMARK                         _______ _______ _______ _____ _____    ______ ____
ROOT
ATOM      1  N   UNL     1       4.041  -1.188  -4.022  0.00  0.00    -0.254 N 
ATOM      2  C   UNL     1       5.092  -0.804  -3.270  0.00  0.00    +0.309 C 
ATOM      3  O   UNL     1       4.918  -0.440  -2.123  0.00  0.00    -0.252 OA
ATOM      4  N   UNL     1       6.335  -0.823  -3.790  0.00  0.00    -0.269 N 
ATOM      5  H   UNL     1       4.180  -1.478  -4.937  0.00  0.00    +0.158 HD
ATOM      6  H   UNL     1       6.483  -1.176  -4.681  0.00  0.00    +0.156 HD
ENDROOT
BRANCH   4   7
ATOM      7  C   UNL     1       7.413  -0.333  -3.044  0.00  0.00    +0.043 A 
ATOM      8  C   UNL     1       7.436  -0.486  -1.675  0.00  0.00    +0.027 A 
ATOM      9  C   UNL     1       8.502  -0.004  -0.922  0.00  0.00    +0.048 A 
ATOM     10  C   UNL     1       9.553   0.634  -1.517  0.00  0.00    +0.128 A 
ATOM     11  C   UNL     1       9.566   0.810  -2.915  0.00  0.00    +0.026 A 
ATOM     12  C   UNL     1       8.487   0.316  -3.689  0.00  0.00    +0.007 A 
ATOM     13  C   UNL     1       8.503   0.488  -5.083  0.00  0.00    +0.010 A 
ATOM     14  C   UNL     1       9.555   1.120  -5.672  0.00  0.00    +0.001 A 
ATOM     15  C   UNL     1      10.619   1.600  -4.912  0.00  0.00    +0.001 A 
ATOM     16  C   UNL     1      10.632   1.462  -3.557  0.00  0.00    +0.012 A 
BRANCH  10  17
ATOM     17  O   UNL     1      10.584   1.099  -0.763  0.00  0.00    -0.493 OA
BRANCH  17  18
ATOM     18  C   UNL     1      10.503   0.885   0.648  0.00  0.00    +0.210 C 
BRANCH  18  19
ATOM     19  C   UNL     1      11.744   1.472   1.324  0.00  0.00    -0.037 C 
BRANCH  19  20
ATOM     20  N   UNL     1      11.770   2.927   1.122  0.00  0.00    +0.385 N 
ATOM     21  C   UNL     1      13.030   3.472   1.645  0.00  0.00    -0.050 C 
ATOM     22  C   UNL     1      13.055   4.988   1.432  0.00  0.00    +0.141 C 
ATOM     23  O   UNL     1      11.921   5.573   2.079  0.00  0.00    -0.383 OA
ATOM     24  C   UNL     1      10.669   5.056   1.621  0.00  0.00    +0.141 C 
ATOM     25  C   UNL     1      10.640   3.541   1.833  0.00  0.00    -0.050 C 
ATOM     26  H   UNL     1      11.698   3.131   0.136  0.00  0.00    -0.081 HD
ENDBRANCH  19  20
ENDBRANCH  18  19
ENDBRANCH  17  18
ENDBRANCH  10  17
ENDBRANCH   4   7
BRANCH   1  29
ATOM     27  C   UNL     1       1.031  -0.915  -2.092  0.00  0.00    +0.070 A 
ATOM     28  C   UNL     1       2.417  -0.786  -2.222  0.00  0.00    +0.069 A 
ATOM     29  C   UNL     1       2.755  -1.168  -3.483  0.00  0.00    +0.125 A 
ATOM     30  N   UNL     1       1.616  -1.524  -4.121  0.00  0.00    -0.247 N 
ATOM     31  N   UNL     1       0.552  -1.362  -3.225  0.00  0.00    -0.174 NA
BRANCH  30  32
ATOM     32  C   UNL     1       1.515  -2.001  -5.502  0.00  0.00    +0.109 C 
ATOM     33  C   UNL     1       0.618  -1.056  -6.304  0.00  0.00    +0.027 C 
ATOM     34  C   UNL     1       0.513  -1.554  -7.747  0.00  0.00    +0.002 C 
ATOM     35  C   UNL     1      -0.090  -2.960  -7.758  0.00  0.00    +0.000 C 
ATOM     36  C   UNL     1       0.806  -3.906  -6.956  0.00  0.00    +0.002 C 
ATOM     37  C   UNL     1       0.912  -3.408  -5.513  0.00  0.00    +0.027 C 
ENDBRANCH  30  32
BRANCH  27  39
ATOM     38  C   UNL     1       0.098   0.916  -0.706  0.00  0.00    +0.017 C 
ATOM     39  C   UNL     1       0.227  -0.601  -0.857  0.00  0.00    +0.006 C 
ATOM     40  C   UNL     1       0.933  -1.177   0.372  0.00  0.00    +0.017 C 
ATOM     41  C   UNL     1      -1.166  -1.221  -0.983  0.00  0.00    +0.017 C 
ENDBRANCH  27  39
ENDBRANCH   1  29
TORSDOF 8
