REMARK  Name = CHEMBL196575
REMARK  8 active torsions:
REMARK  status: ('A' for Active; 'I' for Inactive)
REMARK    1  A    between atoms: C_1  and  C_2
REMARK    2  A    between atoms: C_2  and  C_3
REMARK    3  A    between atoms: C_5  and  C_23
REMARK    4  A    between atoms: C_6  and  C_8
REMARK    5  A    between atoms: N_14  and  C_15
REMARK    6  A    between atoms: C_15  and  C_16
REMARK    7  A    between atoms: C_16  and  C_17
REMARK    8  A    between atoms: C_27  and  C_29
REMARK                            x       y       z     vdW  Elec       q    Type
REMARK                         _______ _______ _______ _____ _____    ______ ____
ROOT
ATOM      1  C   UNL     1      -5.143  -2.098   0.702  0.00  0.00    -0.005 A 
ATOM      2  C   UNL     1      -6.043  -2.530  -0.284  0.00  0.00    +0.029 A 
ATOM      3  C   UNL     1      -7.249  -3.072   0.099  0.00  0.00    +0.113 A 
ATOM      4  N   UNL     1      -7.567  -3.190   1.376  0.00  0.00    -0.240 NA
ATOM      5  C   UNL     1      -6.750  -2.796   2.342  0.00  0.00    +0.119 A 
ATOM      6  C   UNL     1      -5.512  -2.244   2.042  0.00  0.00    +0.052 A 
ATOM      7  N   UNL     1      -7.135  -2.942   3.670  0.00  0.00    -0.329 N 
ATOM      8  H   UNL     1      -7.998  -3.330   3.885  0.00  0.00    +0.147 HD
ENDROOT
BRANCH   1  12
ATOM      9  C   UNL     1      -1.344  -0.779   0.018  0.00  0.00    +0.079 A 
ATOM     10  N   UNL     1      -2.263  -0.199  -0.709  0.00  0.00    -0.243 NA
ATOM     11  C   UNL     1      -3.541  -0.521  -0.599  0.00  0.00    +0.086 A 
ATOM     12  C   UNL     1      -3.840  -1.511   0.334  0.00  0.00    +0.047 A 
ATOM     13  S   UNL     1      -2.207  -1.877   0.956  0.00  0.00    -0.071 S 
BRANCH  11  14
ATOM     14  C   UNL     1      -4.589   0.131  -1.418  0.00  0.00    +0.002 A 
ATOM     15  C   UNL     1      -5.797   0.513  -0.834  0.00  0.00    +0.010 A 
ATOM     16  C   UNL     1      -6.770   1.119  -1.601  0.00  0.00    +0.001 A 
ATOM     17  C   UNL     1      -6.549   1.349  -2.948  0.00  0.00    +0.003 A 
ATOM     18  C   UNL     1      -5.354   0.973  -3.533  0.00  0.00    -0.050 A 
ATOM     19  C   UNL     1      -4.370   0.370  -2.774  0.00  0.00    +0.013 A 
ATOM     20  C   UNL     1      -5.122   1.226  -5.000  0.00  0.00    +0.044 C 
ENDBRANCH  11  14
BRANCH   9  22
ATOM     21  C   UNL     1       0.479   0.561   1.033  0.00  0.00    +0.011 C 
ATOM     22  C   UNL     1       0.142  -0.528   0.013  0.00  0.00    +0.059 C 
ENDBRANCH   9  22
ENDBRANCH   1  12
BRANCH   7  23
ATOM     23  C   UNL     1      -6.238  -2.509   4.744  0.00  0.00    +0.107 C 
BRANCH  23  24
ATOM     24  C   UNL     1      -6.897  -2.779   6.098  0.00  0.00    +0.054 C 
BRANCH  24  25
ATOM     25  C   UNL     1      -5.974  -2.334   7.204  0.00  0.00    -0.046 A 
ATOM     26  C   UNL     1      -5.051  -3.217   7.731  0.00  0.00    +0.004 A 
ATOM     27  C   UNL     1      -4.204  -2.809   8.745  0.00  0.00    +0.000 A 
ATOM     28  C   UNL     1      -4.281  -1.517   9.231  0.00  0.00    +0.000 A 
ATOM     29  C   UNL     1      -5.204  -0.633   8.703  0.00  0.00    +0.000 A 
ATOM     30  C   UNL     1      -6.047  -1.041   7.686  0.00  0.00    +0.004 A 
ENDBRANCH  24  25
ENDBRANCH  23  24
ENDBRANCH   7  23
TORSDOF 6
