REMARK  Name = CHEMBL68572
REMARK  7 active torsions:
REMARK  status: ('A' for Active; 'I' for Inactive)
REMARK    1  A    between atoms: C_1  and  O_2
REMARK    2  A    between atoms: O_2  and  C_3
REMARK    3  A    between atoms: C_6  and  C_9
REMARK    4  A    between atoms: C_9  and  N_10
REMARK    5  A    between atoms: C_15  and  C_17
REMARK    6  A    between atoms: C_18  and  C_29
REMARK    7  A    between atoms: C_20  and  C_23
REMARK                            x       y       z     vdW  Elec       q    Type
REMARK                         _______ _______ _______ _____ _____    ______ ____
ROOT
ATOM      1  C   UNL     1       8.266  -4.288  -5.275  0.00  0.00    +0.093 A 
ATOM      2  C   UNL     1       9.024  -3.566  -4.367  0.00  0.00    +0.099 A 
ATOM      3  N   UNL     1      10.264  -4.077  -4.373  0.00  0.00    -0.227 NA
ATOM      4  C   UNL     1      10.327  -5.072  -5.229  0.00  0.00    +0.139 A 
ATOM      5  N   UNL     1       9.105  -5.243  -5.808  0.00  0.00    -0.336 N 
ATOM      6  H   UNL     1       8.870  -5.909  -6.472  0.00  0.00    +0.167 HD
ENDROOT
BRANCH   1  12
ATOM      7  N   UNL     1       3.923  -2.713  -4.080  0.00  0.00    -0.309 N 
ATOM      8  C   UNL     1       4.747  -3.316  -5.014  0.00  0.00    +0.216 A 
ATOM      9  N   UNL     1       4.237  -3.692  -6.178  0.00  0.00    -0.223 NA
ATOM     10  C   UNL     1       4.991  -4.272  -7.100  0.00  0.00    +0.116 A 
ATOM     11  C   UNL     1       6.331  -4.487  -6.840  0.00  0.00    +0.050 A 
ATOM     12  C   UNL     1       6.844  -4.080  -5.601  0.00  0.00    +0.094 A 
ATOM     13  N   UNL     1       6.025  -3.497  -4.724  0.00  0.00    -0.213 NA
ATOM     14  H   UNL     1       4.284  -2.430  -3.225  0.00  0.00    +0.149 HD
BRANCH   7  15
ATOM     15  C   UNL     1       2.505  -2.503  -4.381  0.00  0.00    +0.139 C 
BRANCH  15  19
ATOM     16  C   UNL     1       0.606  -0.607  -1.056  0.00  0.00    +0.120 A 
ATOM     17  C   UNL     1       1.173   0.161  -2.062  0.00  0.00    +0.046 A 
ATOM     18  C   UNL     1       1.786  -0.455  -3.136  0.00  0.00    +0.009 A 
ATOM     19  C   UNL     1       1.835  -1.835  -3.209  0.00  0.00    -0.030 A 
ATOM     20  C   UNL     1       1.270  -2.602  -2.207  0.00  0.00    +0.009 A 
ATOM     21  C   UNL     1       0.661  -1.992  -1.128  0.00  0.00    +0.046 A 
BRANCH  16  23
ATOM     22  C   UNL     1      -0.017   1.425   0.010  0.00  0.00    +0.277 C 
ATOM     23  O   UNL     1       0.002  -0.004   0.002  0.00  0.00    -0.495 OA
ENDBRANCH  16  23
ENDBRANCH  15  19
ENDBRANCH   7  15
ENDBRANCH   1  12
BRANCH   4  24
ATOM     24  C   UNL     1      11.530  -5.884  -5.513  0.00  0.00    +0.017 A 
ATOM     25  C   UNL     1      11.474  -6.915  -6.451  0.00  0.00    +0.011 A 
ATOM     26  C   UNL     1      12.600  -7.668  -6.712  0.00  0.00    +0.001 A 
ATOM     27  C   UNL     1      13.783  -7.402  -6.046  0.00  0.00    +0.000 A 
ATOM     28  C   UNL     1      13.845  -6.381  -5.114  0.00  0.00    +0.001 A 
ATOM     29  C   UNL     1      12.728  -5.617  -4.848  0.00  0.00    +0.011 A 
ENDBRANCH   4  24
BRANCH   2  30
ATOM     30  C   UNL     1       8.550  -2.433  -3.538  0.00  0.00    +0.003 A 
ATOM     31  C   UNL     1       7.601  -1.545  -4.044  0.00  0.00    +0.010 A 
ATOM     32  C   UNL     1       7.164  -0.491  -3.268  0.00  0.00    +0.001 A 
ATOM     33  C   UNL     1       7.664  -0.315  -1.990  0.00  0.00    +0.000 A 
ATOM     34  C   UNL     1       8.606  -1.193  -1.483  0.00  0.00    +0.001 A 
ATOM     35  C   UNL     1       9.046  -2.253  -2.248  0.00  0.00    +0.010 A 
ENDBRANCH   2  30
TORSDOF 6
