REMARK  Name = CHEMBL129748
REMARK  8 active torsions:
REMARK  status: ('A' for Active; 'I' for Inactive)
REMARK    1  A    between atoms: C_4  and  C_7
REMARK    2  A    between atoms: C_7  and  N_8
REMARK    3  A    between atoms: N_8  and  C_9
REMARK    4  A    between atoms: C_9  and  C_10
REMARK    5  A    between atoms: C_10  and  C_11
REMARK    6  A    between atoms: C_11  and  N_12
REMARK    7  A    between atoms: C_15  and  C_23
REMARK    8  A    between atoms: C_16  and  C_17
REMARK                            x       y       z     vdW  Elec       q    Type
REMARK                         _______ _______ _______ _____ _____    ______ ____
ROOT
ATOM      1  N   UNL     1       7.815  -3.156   4.067  0.00  0.00    -0.330 N 
ATOM      2  C   UNL     1       8.491  -2.354   4.916  0.00  0.00    +0.200 A 
ATOM      3  N   UNL     1       8.325  -2.774   6.139  0.00  0.00    -0.235 NA
ATOM      4  C   UNL     1       7.536  -3.864   6.138  0.00  0.00    +0.097 A 
ATOM      5  C   UNL     1       7.193  -4.124   4.823  0.00  0.00    +0.077 A 
ENDROOT
BRANCH   4   6
ATOM      6  C   UNL     1       7.109  -4.639   7.326  0.00  0.00    +0.003 A 
ATOM      7  C   UNL     1       5.842  -5.221   7.364  0.00  0.00    +0.013 A 
ATOM      8  C   UNL     1       5.450  -5.942   8.473  0.00  0.00    +0.039 A 
ATOM      9  C   UNL     1       6.312  -6.090   9.547  0.00  0.00    +0.123 A 
ATOM     10  C   UNL     1       7.572  -5.514   9.514  0.00  0.00    +0.039 A 
ATOM     11  C   UNL     1       7.976  -4.796   8.407  0.00  0.00    +0.013 A 
ATOM     12  F   UNL     1       5.923  -6.797  10.630  0.00  0.00    -0.205 F 
ENDBRANCH   4   6
BRANCH   5  13
ATOM     13  C   UNL     1       6.336  -5.219   4.331  0.00  0.00    +0.003 A 
ATOM     14  C   UNL     1       5.222  -4.955   3.522  0.00  0.00    +0.030 A 
ATOM     15  C   UNL     1       4.449  -6.009   3.084  0.00  0.00    +0.111 A 
ATOM     16  N   UNL     1       4.746  -7.252   3.417  0.00  0.00    -0.263 NA
ATOM     17  C   UNL     1       5.785  -7.545   4.176  0.00  0.00    +0.111 A 
ATOM     18  C   UNL     1       6.616  -6.554   4.654  0.00  0.00    +0.030 A 
ENDBRANCH   5  13
BRANCH   1  19
ATOM     19  C   UNL     1       7.749  -3.019   2.610  0.00  0.00    +0.121 C 
BRANCH  19  20
ATOM     20  C   UNL     1       8.783  -3.943   1.963  0.00  0.00    +0.003 C 
BRANCH  20  21
ATOM     21  C   UNL     1       8.737  -3.776   0.443  0.00  0.00    -0.080 C 
BRANCH  21  22
ATOM     22  N   UNL     1       9.729  -4.664  -0.177  0.00  0.00    +0.382 N 
ATOM     23  H   UNL     1       9.521  -5.621   0.062  0.00  0.00    -0.085 HD
ATOM     24  H   UNL     1      10.650  -4.425   0.159  0.00  0.00    -0.085 HD
BRANCH  22  25
ATOM     25  C   UNL     1       9.685  -4.504  -1.637  0.00  0.00    -0.047 C 
BRANCH  25  29
ATOM     26  C   UNL     1      12.571  -7.083  -3.443  0.00  0.00    +0.000 A 
ATOM     27  C   UNL     1      11.284  -7.535  -3.220  0.00  0.00    +0.000 A 
ATOM     28  C   UNL     1      10.350  -6.700  -2.636  0.00  0.00    +0.002 A 
ATOM     29  C   UNL     1      10.703  -5.414  -2.273  0.00  0.00    -0.064 A 
ATOM     30  C   UNL     1      11.991  -4.962  -2.496  0.00  0.00    +0.002 A 
ATOM     31  C   UNL     1      12.924  -5.796  -3.082  0.00  0.00    +0.000 A 
ENDBRANCH  25  29
ENDBRANCH  22  25
ENDBRANCH  21  22
ENDBRANCH  20  21
ENDBRANCH  19  20
ENDBRANCH   1  19
TORSDOF 8
