REMARK  Name = CHEMBL200040
REMARK  6 active torsions:
REMARK  status: ('A' for Active; 'I' for Inactive)
REMARK    1  A    between atoms: C_1  and  O_2
REMARK    2  A    between atoms: O_2  and  C_3
REMARK    3  A    between atoms: C_6  and  C_28
REMARK    4  A    between atoms: C_8  and  C_9
REMARK    5  A    between atoms: N_19  and  C_20
REMARK    6  A    between atoms: N_30  and  C_31
REMARK                            x       y       z     vdW  Elec       q    Type
REMARK                         _______ _______ _______ _____ _____    ______ ____
ROOT
ATOM      1  C   UNL     1       0.098  -2.685  -0.103  0.00  0.00    +0.079 A 
ATOM      2  C   UNL     1       1.058  -2.735   0.909  0.00  0.00    +0.046 A 
ATOM      3  C   UNL     1       1.293  -2.006   2.091  0.00  0.00    +0.017 A 
ATOM      4  C   UNL     1       2.364  -2.350   2.858  0.00  0.00    +0.044 A 
ATOM      5  C   UNL     1       3.207  -3.403   2.474  0.00  0.00    +0.125 A 
ATOM      6  N   UNL     1       3.009  -4.098   1.375  0.00  0.00    -0.211 NA
ATOM      7  C   UNL     1       1.976  -3.828   0.559  0.00  0.00    +0.183 A 
ATOM      8  N   UNL     1       1.542  -4.343  -0.577  0.00  0.00    -0.153 NA
ATOM      9  N   UNL     1       0.394  -3.658  -0.989  0.00  0.00    -0.274 N 
ATOM     10  H   UNL     1      -0.113  -3.853  -1.793  0.00  0.00    +0.189 HD
ATOM     11  N   UNL     1       4.288  -3.723   3.282  0.00  0.00    -0.297 N 
ATOM     12  H   UNL     1       4.397  -3.286   4.141  0.00  0.00    +0.154 HD
ENDROOT
BRANCH  11  13
ATOM     13  C   UNL     1       5.223  -4.675   2.857  0.00  0.00    +0.068 A 
ATOM     14  C   UNL     1       5.504  -4.818   1.505  0.00  0.00    +0.029 A 
ATOM     15  C   UNL     1       6.426  -5.758   1.087  0.00  0.00    +0.040 A 
ATOM     16  C   UNL     1       7.071  -6.559   2.016  0.00  0.00    +0.126 A 
ATOM     17  C   UNL     1       6.793  -6.419   3.365  0.00  0.00    +0.078 A 
ATOM     18  C   UNL     1       5.875  -5.476   3.788  0.00  0.00    +0.147 A 
ATOM     19  F   UNL     1       5.607  -5.335   5.105  0.00  0.00    -0.203 F 
ATOM     20  F   UNL     1       7.971  -7.477   1.604  0.00  0.00    -0.205 F 
ENDBRANCH  11  13
BRANCH   1  26
ATOM     21  C   UNL     1      -0.799  -0.370  -0.353  0.00  0.00    +0.129 A 
ATOM     22  C   UNL     1      -1.866   0.513  -0.436  0.00  0.00    +0.047 A 
ATOM     23  C   UNL     1      -3.160   0.047  -0.351  0.00  0.00    +0.016 A 
ATOM     24  C   UNL     1      -3.408  -1.319  -0.179  0.00  0.00    +0.038 A 
ATOM     25  C   UNL     1      -2.342  -2.214  -0.094  0.00  0.00    +0.026 A 
ATOM     26  C   UNL     1      -1.035  -1.744  -0.186  0.00  0.00    +0.043 A 
BRANCH  24  27
ATOM     27  C   UNL     1      -4.796  -1.812  -0.087  0.00  0.00    +0.244 C 
ATOM     28  O   UNL     1      -5.011  -2.999   0.062  0.00  0.00    -0.270 OA
ATOM     29  N   UNL     1      -5.826  -0.946  -0.169  0.00  0.00    -0.308 N 
ATOM     30  H   UNL     1      -5.654   0.001  -0.288  0.00  0.00    +0.149 HD
BRANCH  29  31
ATOM     31  C   UNL     1      -7.204  -1.436  -0.078  0.00  0.00    +0.078 C 
ATOM     32  C   UNL     1      -7.679  -1.888  -1.462  0.00  0.00    +0.050 C 
ATOM     33  C   UNL     1      -9.144  -2.323  -1.373  0.00  0.00    +0.161 C 
ATOM     34  O   UNL     1      -9.932  -1.241  -0.873  0.00  0.00    -0.380 OA
ATOM     35  C   UNL     1      -9.563  -0.807   0.438  0.00  0.00    +0.161 C 
ATOM     36  C   UNL     1      -8.115  -0.310   0.421  0.00  0.00    +0.050 C 
ENDBRANCH  29  31
ENDBRANCH  24  27
BRANCH  21  38
ATOM     37  C   UNL     1       0.639   1.503  -0.606  0.00  0.00    +0.277 C 
ATOM     38  O   UNL     1       0.473   0.094  -0.437  0.00  0.00    -0.494 OA
ENDBRANCH  21  38
ENDBRANCH   1  26
TORSDOF 5
