REMARK  Name = CHEMBL372301
REMARK  7 active torsions:
REMARK  status: ('A' for Active; 'I' for Inactive)
REMARK    1  A    between atoms: C_10  and  C_11
REMARK    2  A    between atoms: C_12  and  C_30
REMARK    3  A    between atoms: N_17  and  C_18
REMARK    4  A    between atoms: C_18  and  C_19
REMARK    5  A    between atoms: C_19  and  C_21
REMARK    6  A    between atoms: C_19  and  N_29
REMARK    7  A    between atoms: C_21  and  C_22
REMARK                            x       y       z     vdW  Elec       q    Type
REMARK                         _______ _______ _______ _____ _____    ______ ____
ROOT
ATOM      1  C   UNL     1       4.976   0.121  -0.271  0.00  0.00    +0.102 A 
ATOM      2  C   UNL     1       6.179  -0.546   0.040  0.00  0.00    +0.013 A 
ATOM      3  C   UNL     1       7.317   0.232   0.251  0.00  0.00    +0.056 A 
ATOM      4  C   UNL     1       7.191   1.615   0.140  0.00  0.00    +0.142 A 
ATOM      5  N   UNL     1       6.015   2.153  -0.157  0.00  0.00    -0.134 NA
ATOM      6  N   UNL     1       4.965   1.445  -0.357  0.00  0.00    -0.147 NA
ATOM      7  N   UNL     1       8.297   2.433   0.341  0.00  0.00    -0.329 N 
ATOM      8  H   UNL     1       8.209   3.395   0.264  0.00  0.00    +0.147 HD
ENDROOT
BRANCH   1  18
ATOM      9  C   UNL     1       0.212   0.234   1.578  0.00  0.00    +0.001 A 
ATOM     10  C   UNL     1       1.368   0.974   1.815  0.00  0.00    +0.001 A 
ATOM     11  C   UNL     1       2.523   0.702   1.147  0.00  0.00    +0.009 A 
ATOM     12  C   UNL     1       2.553  -0.338   0.207  0.00  0.00    -0.009 A 
ATOM     13  C   UNL     1       1.379  -1.091  -0.035  0.00  0.00    -0.017 A 
ATOM     14  C   UNL     1       0.204  -0.782   0.672  0.00  0.00    +0.008 A 
ATOM     15  C   UNL     1       1.407  -2.134  -0.977  0.00  0.00    +0.008 A 
ATOM     16  C   UNL     1       2.558  -2.416  -1.650  0.00  0.00    +0.001 A 
ATOM     17  C   UNL     1       3.720  -1.687  -1.424  0.00  0.00    +0.011 A 
ATOM     18  C   UNL     1       3.736  -0.650  -0.506  0.00  0.00    +0.010 A 
ENDBRANCH   1  18
BRANCH   2  19
ATOM     19  C   UNL     1       6.231  -2.025   0.140  0.00  0.00    -0.013 A 
ATOM     20  C   UNL     1       5.378  -2.717   1.005  0.00  0.00    +0.028 A 
ATOM     21  C   UNL     1       5.461  -4.093   1.067  0.00  0.00    +0.111 A 
ATOM     22  N   UNL     1       6.329  -4.753   0.325  0.00  0.00    -0.263 NA
ATOM     23  C   UNL     1       7.151  -4.139  -0.503  0.00  0.00    +0.111 A 
ATOM     24  C   UNL     1       7.131  -2.765  -0.632  0.00  0.00    +0.028 A 
ENDBRANCH   2  19
BRANCH   7  25
ATOM     25  C   UNL     1       9.596   1.839   0.670  0.00  0.00    +0.087 C 
BRANCH  25  26
ATOM     26  C   UNL     1      10.635   2.949   0.839  0.00  0.00    -0.053 C 
BRANCH  26  27
ATOM     27  N   UNL     1      10.163   3.915   1.840  0.00  0.00    +0.381 N 
ATOM     28  H   UNL     1      10.848   4.646   1.951  0.00  0.00    -0.090 HD
ATOM     29  H   UNL     1       9.289   4.316   1.533  0.00  0.00    -0.090 HD
ATOM     30  H   UNL     1      10.026   3.445   2.722  0.00  0.00    -0.090 HD
ENDBRANCH  26  27
BRANCH  26  31
ATOM     31  C   UNL     1      11.960   2.341   1.303  0.00  0.00    +0.020 C 
BRANCH  31  32
ATOM     32  C   UNL     1      13.017   3.414   1.351  0.00  0.00    -0.049 A 
ATOM     33  C   UNL     1      13.788   3.675   0.234  0.00  0.00    +0.006 A 
ATOM     34  C   UNL     1      14.756   4.660   0.277  0.00  0.00    +0.038 A 
ATOM     35  C   UNL     1      14.955   5.385   1.439  0.00  0.00    +0.123 A 
ATOM     36  C   UNL     1      14.182   5.123   2.558  0.00  0.00    +0.038 A 
ATOM     37  C   UNL     1      13.210   4.141   2.511  0.00  0.00    +0.006 A 
ATOM     38  F   UNL     1      15.902   6.347   1.483  0.00  0.00    -0.205 F 
ENDBRANCH  31  32
ENDBRANCH  26  31
ENDBRANCH  25  26
ENDBRANCH   7  25
TORSDOF 7
