REMARK  Name = CHEMBL493669
REMARK  9 active torsions:
REMARK  status: ('A' for Active; 'I' for Inactive)
REMARK    1  A    between atoms: C_1  and  C_2
REMARK    2  A    between atoms: C_2  and  C_3
REMARK    3  A    between atoms: C_2  and  N_11
REMARK    4  A    between atoms: C_3  and  C_4
REMARK    5  A    between atoms: C_4  and  C_5
REMARK    6  A    between atoms: C_14  and  C_18
REMARK    7  A    between atoms: C_19  and  C_26
REMARK    8  A    between atoms: C_21  and  S_24
REMARK    9  A    between atoms: S_24  and  C_25
REMARK                            x       y       z     vdW  Elec       q    Type
REMARK                         _______ _______ _______ _____ _____    ______ ____
ROOT
ATOM      1  N   UNL     1       0.688  -0.476  -1.203  0.00  0.00    -0.328 N 
ATOM      2  C   UNL     1       2.074  -0.591  -1.215  0.00  0.00    +0.097 A 
ATOM      3  C   UNL     1       2.800  -0.260  -0.079  0.00  0.00    +0.051 A 
ATOM      4  C   UNL     1       4.191  -0.380  -0.107  0.00  0.00    +0.007 A 
ATOM      5  C   UNL     1       4.793  -0.832  -1.290  0.00  0.00    +0.027 A 
ATOM      6  C   UNL     1       4.000  -1.139  -2.373  0.00  0.00    +0.085 A 
ATOM      7  N   UNL     1       2.686  -1.018  -2.309  0.00  0.00    -0.350 N 
ATOM      8  H   UNL     1       0.175  -0.710  -1.993  0.00  0.00    +0.148 HD
ATOM      9  H   UNL     1       2.155  -1.246  -3.088  0.00  0.00    +0.166 HD
ENDROOT
BRANCH   4  10
ATOM     10  C   UNL     1       5.007  -0.039   1.079  0.00  0.00    +0.098 A 
ATOM     11  C   UNL     1       6.171  -0.668   1.476  0.00  0.00    +0.075 A 
ATOM     12  N   UNL     1       6.588  -0.026   2.626  0.00  0.00    -0.332 N 
ATOM     13  C   UNL     1       5.682   0.958   2.889  0.00  0.00    +0.167 A 
ATOM     14  N   UNL     1       4.752   0.946   1.964  0.00  0.00    -0.221 NA
ATOM     15  H   UNL     1       7.377  -0.236   3.148  0.00  0.00    +0.168 HD
BRANCH  11  16
ATOM     16  C   UNL     1       6.836  -1.802   0.806  0.00  0.00    +0.001 A 
ATOM     17  C   UNL     1       6.084  -2.890   0.357  0.00  0.00    +0.013 A 
ATOM     18  C   UNL     1       6.711  -3.947  -0.269  0.00  0.00    +0.039 A 
ATOM     19  C   UNL     1       8.085  -3.931  -0.452  0.00  0.00    +0.123 A 
ATOM     20  C   UNL     1       8.836  -2.854  -0.009  0.00  0.00    +0.039 A 
ATOM     21  C   UNL     1       8.220  -1.789   0.614  0.00  0.00    +0.013 A 
ATOM     22  F   UNL     1       8.694  -4.970  -1.066  0.00  0.00    -0.205 F 
ENDBRANCH  11  16
BRANCH  13  23
ATOM     23  S   UNL     1       5.753   2.072   4.252  0.00  0.00    -0.091 S 
ATOM     24  C   UNL     1       4.285   3.117   4.041  0.00  0.00    +0.093 C 
ENDBRANCH  13  23
ENDBRANCH   4  10
BRANCH   1  26
ATOM     25  C   UNL     1      -0.019   1.526   0.010  0.00  0.00    +0.028 C 
ATOM     26  C   UNL     1       0.002  -0.004   0.002  0.00  0.00    +0.069 C 
BRANCH  26  27
ATOM     27  C   UNL     1      -1.433  -0.534   0.013  0.00  0.00    +0.026 C 
BRANCH  27  28
ATOM     28  C   UNL     1      -1.413  -2.059   0.130  0.00  0.00    +0.037 C 
BRANCH  28  29
ATOM     29  C   UNL     1      -2.827  -2.581   0.141  0.00  0.00    -0.047 A 
ATOM     30  C   UNL     1      -3.502  -2.723   1.339  0.00  0.00    +0.003 A 
ATOM     31  C   UNL     1      -4.799  -3.201   1.349  0.00  0.00    +0.000 A 
ATOM     32  C   UNL     1      -5.421  -3.537   0.161  0.00  0.00    +0.000 A 
ATOM     33  C   UNL     1      -4.746  -3.394  -1.037  0.00  0.00    +0.000 A 
ATOM     34  C   UNL     1      -3.451  -2.911  -1.048  0.00  0.00    +0.003 A 
ENDBRANCH  28  29
ENDBRANCH  27  28
ENDBRANCH  26  27
ENDBRANCH   1  26
TORSDOF 7
