REMARK  Name = CHEMBL333923
REMARK  5 active torsions:
REMARK  status: ('A' for Active; 'I' for Inactive)
REMARK    1  A    between atoms: C_1  and  C_2
REMARK    2  A    between atoms: C_2  and  C_4
REMARK    3  A    between atoms: C_2  and  N_10
REMARK    4  A    between atoms: C_13  and  C_17
REMARK    5  A    between atoms: C_18  and  C_27
REMARK                            x       y       z     vdW  Elec       q    Type
REMARK                         _______ _______ _______ _____ _____    ______ ____
ROOT
ATOM      1  C   UNL     1       5.006  -0.042   1.072  0.00  0.00    +0.083 A 
ATOM      2  C   UNL     1       4.868   1.074   1.883  0.00  0.00    +0.099 A 
ATOM      3  N   UNL     1       5.800   1.006   2.843  0.00  0.00    -0.210 NA
ATOM      4  C   UNL     1       6.524  -0.095   2.685  0.00  0.00    +0.238 A 
ATOM      5  N   UNL     1       6.053  -0.775   1.593  0.00  0.00    -0.283 N 
ATOM      6  C   UNL     1       6.627  -1.955   1.214  0.00  0.00    +0.098 A 
ATOM      7  C   UNL     1       7.663  -2.446   1.930  0.00  0.00    +0.061 A 
ATOM      8  C   UNL     1       8.126  -1.726   3.052  0.00  0.00    +0.121 A 
ATOM      9  N   UNL     1       7.554  -0.584   3.390  0.00  0.00    -0.197 NA
ATOM     10  N   UNL     1       9.183  -2.213   3.795  0.00  0.00    -0.343 N 
ATOM     11  H   UNL     1       9.607  -3.049   3.545  0.00  0.00    +0.144 HD
ATOM     12  H   UNL     1       9.502  -1.719   4.567  0.00  0.00    +0.144 HD
ENDROOT
BRANCH   1  16
ATOM     13  N   UNL     1       0.688  -0.476  -1.203  0.00  0.00    -0.322 N 
ATOM     14  C   UNL     1       2.074  -0.591  -1.215  0.00  0.00    +0.120 A 
ATOM     15  C   UNL     1       2.799  -0.260  -0.080  0.00  0.00    +0.053 A 
ATOM     16  C   UNL     1       4.193  -0.381  -0.109  0.00  0.00    +0.006 A 
ATOM     17  C   UNL     1       4.795  -0.834  -1.294  0.00  0.00    +0.030 A 
ATOM     18  C   UNL     1       4.001  -1.140  -2.375  0.00  0.00    +0.113 A 
ATOM     19  N   UNL     1       2.687  -1.019  -2.310  0.00  0.00    -0.240 NA
ATOM     20  H   UNL     1       0.175  -0.710  -1.993  0.00  0.00    +0.148 HD
BRANCH  13  22
ATOM     21  C   UNL     1      -0.019   1.526   0.010  0.00  0.00    +0.033 C 
ATOM     22  C   UNL     1       0.002  -0.004   0.002  0.00  0.00    +0.099 C 
BRANCH  22  23
ATOM     23  C   UNL     1      -1.412  -0.526   0.013  0.00  0.00    -0.028 A 
ATOM     24  C   UNL     1      -2.141  -0.569  -1.161  0.00  0.00    +0.005 A 
ATOM     25  C   UNL     1      -3.438  -1.047  -1.151  0.00  0.00    +0.000 A 
ATOM     26  C   UNL     1      -4.005  -1.483   0.032  0.00  0.00    +0.000 A 
ATOM     27  C   UNL     1      -3.275  -1.441   1.205  0.00  0.00    +0.000 A 
ATOM     28  C   UNL     1      -1.977  -0.966   1.195  0.00  0.00    +0.005 A 
ENDBRANCH  22  23
ENDBRANCH  13  22
ENDBRANCH   1  16
BRANCH   2  29
ATOM     29  C   UNL     1       3.866   2.153   1.717  0.00  0.00    +0.003 A 
ATOM     30  C   UNL     1       3.465   2.546   0.440  0.00  0.00    +0.010 A 
ATOM     31  C   UNL     1       2.532   3.551   0.292  0.00  0.00    +0.001 A 
ATOM     32  C   UNL     1       1.993   4.169   1.407  0.00  0.00    +0.000 A 
ATOM     33  C   UNL     1       2.387   3.783   2.676  0.00  0.00    +0.001 A 
ATOM     34  C   UNL     1       3.315   2.775   2.837  0.00  0.00    +0.010 A 
ENDBRANCH   2  29
TORSDOF 4
