REMARK  Name = CHEMBL319716
REMARK  5 active torsions:
REMARK  status: ('A' for Active; 'I' for Inactive)
REMARK    1  A    between atoms: C_1  and  N_2
REMARK    2  A    between atoms: C_7  and  C_9
REMARK    3  A    between atoms: C_10  and  C_21
REMARK    4  A    between atoms: N_13  and  C_14
REMARK    5  A    between atoms: C_17  and  O_20
REMARK                            x       y       z     vdW  Elec       q    Type
REMARK                         _______ _______ _______ _____ _____    ______ ____
ROOT
ATOM      1  C   UNL     1      -2.333  -4.237  -0.145  0.00  0.00    +0.095 A 
ATOM      2  C   UNL     1      -1.310  -5.032  -0.633  0.00  0.00    +0.098 A 
ATOM      3  N   UNL     1      -1.546  -6.288  -0.217  0.00  0.00    -0.235 NA
ATOM      4  C   UNL     1      -2.641  -6.317   0.491  0.00  0.00    +0.200 A 
ATOM      5  N   UNL     1      -3.161  -5.075   0.569  0.00  0.00    -0.325 N 
ENDROOT
BRANCH   1  12
ATOM      6  C   UNL     1      -0.623   1.597  -0.615  0.00  0.00    +0.128 C 
ATOM      7  N   UNL     1      -0.479   0.152  -0.426  0.00  0.00    -0.317 N 
ATOM      8  C   UNL     1      -1.593  -0.667  -0.477  0.00  0.00    +0.215 A 
ATOM      9  N   UNL     1      -2.782  -0.126  -0.704  0.00  0.00    -0.223 NA
ATOM     10  C   UNL     1      -3.874  -0.875  -0.761  0.00  0.00    +0.116 A 
ATOM     11  C   UNL     1      -3.768  -2.240  -0.581  0.00  0.00    +0.050 A 
ATOM     12  C   UNL     1      -2.499  -2.786  -0.344  0.00  0.00    +0.094 A 
ATOM     13  N   UNL     1      -1.444  -1.971  -0.305  0.00  0.00    -0.213 NA
ATOM     14  H   UNL     1       0.398  -0.232  -0.265  0.00  0.00    +0.149 HD
ENDBRANCH   1  12
BRANCH   2  15
ATOM     15  C   UNL     1      -0.167  -4.581  -1.461  0.00  0.00    +0.003 A 
ATOM     16  C   UNL     1      -0.340  -3.559  -2.395  0.00  0.00    +0.013 A 
ATOM     17  C   UNL     1       0.727  -3.143  -3.163  0.00  0.00    +0.039 A 
ATOM     18  C   UNL     1       1.969  -3.738  -3.009  0.00  0.00    +0.123 A 
ATOM     19  C   UNL     1       2.145  -4.753  -2.083  0.00  0.00    +0.039 A 
ATOM     20  C   UNL     1       1.086  -5.172  -1.305  0.00  0.00    +0.013 A 
ATOM     21  F   UNL     1       3.011  -3.327  -3.764  0.00  0.00    -0.205 F 
ENDBRANCH   2  15
BRANCH   5  22
ATOM     22  C   UNL     1      -4.383  -4.689   1.280  0.00  0.00    +0.089 C 
ATOM     23  C   UNL     1      -4.281  -5.125   2.743  0.00  0.00    +0.027 C 
ATOM     24  C   UNL     1      -5.556  -4.722   3.486  0.00  0.00    +0.033 C 
ATOM     25  C   UNL     1      -6.762  -5.402   2.834  0.00  0.00    +0.115 C 
ATOM     26  C   UNL     1      -6.864  -4.966   1.371  0.00  0.00    +0.033 C 
ATOM     27  C   UNL     1      -5.589  -5.369   0.628  0.00  0.00    +0.027 C 
BRANCH  25  28
ATOM     28  O   UNL     1      -7.954  -5.026   3.527  0.00  0.00    -0.392 OA
ATOM     29  H   UNL     1      -8.760  -5.420   3.167  0.00  0.00    +0.210 HD
ENDBRANCH  25  28
ENDBRANCH   5  22
TORSDOF 4
