REMARK  Name = CHEMBL273611
REMARK  5 active torsions:
REMARK  status: ('A' for Active; 'I' for Inactive)
REMARK    1  A    between atoms: C_6  and  C_7
REMARK    2  A    between atoms: C_8  and  C_18
REMARK    3  A    between atoms: N_9  and  C_12
REMARK    4  A    between atoms: C_22  and  O_24
REMARK    5  A    between atoms: O_24  and  C_25
REMARK                            x       y       z     vdW  Elec       q    Type
REMARK                         _______ _______ _______ _____ _____    ______ ____
ROOT
ATOM      1  C   UNL     1      -1.457  -0.918   0.660  0.00  0.00    +0.098 A 
ATOM      2  C   UNL     1      -1.992  -2.011   0.002  0.00  0.00    +0.095 A 
ATOM      3  N   UNL     1      -3.358  -1.925   0.164  0.00  0.00    -0.325 N 
ATOM      4  C   UNL     1      -3.607  -0.818   0.894  0.00  0.00    +0.200 A 
ATOM      5  N   UNL     1      -2.482  -0.228   1.190  0.00  0.00    -0.235 NA
ENDROOT
BRANCH   3   6
ATOM      6  C   UNL     1      -4.355  -2.862  -0.358  0.00  0.00    +0.085 C 
ATOM      7  C   UNL     1      -5.378  -2.101  -1.206  0.00  0.00    +0.006 C 
ATOM      8  C   UNL     1      -6.460  -3.072  -1.683  0.00  0.00    -0.081 C 
ATOM      9  N   UNL     1      -7.132  -3.670  -0.523  0.00  0.00    +0.379 N 
ATOM     10  C   UNL     1      -6.171  -4.461   0.256  0.00  0.00    -0.081 C 
ATOM     11  C   UNL     1      -5.078  -3.543   0.807  0.00  0.00    +0.006 C 
ATOM     12  H   UNL     1      -7.513  -2.938   0.058  0.00  0.00    -0.086 HD
ATOM     13  H   UNL     1      -7.880  -4.269  -0.840  0.00  0.00    -0.086 HD
ENDBRANCH   3   6
BRANCH   1  19
ATOM     14  C   UNL     1       0.383   0.760   0.774  0.00  0.00    +0.013 A 
ATOM     15  C   UNL     1       1.722   1.074   0.875  0.00  0.00    +0.039 A 
ATOM     16  C   UNL     1       2.668   0.065   0.969  0.00  0.00    +0.123 A 
ATOM     17  C   UNL     1       2.273  -1.263   0.962  0.00  0.00    +0.039 A 
ATOM     18  C   UNL     1       0.936  -1.587   0.862  0.00  0.00    +0.013 A 
ATOM     19  C   UNL     1      -0.019  -0.575   0.768  0.00  0.00    +0.003 A 
ATOM     20  F   UNL     1       3.978   0.378   1.066  0.00  0.00    -0.205 F 
ENDBRANCH   1  19
BRANCH   2  21
ATOM     21  C   UNL     1      -1.252  -3.056  -0.728  0.00  0.00    +0.096 A 
ATOM     22  C   UNL     1      -1.628  -4.402  -0.622  0.00  0.00    +0.050 A 
ATOM     23  C   UNL     1      -0.903  -5.344  -1.325  0.00  0.00    +0.118 A 
ATOM     24  N   UNL     1       0.118  -4.951  -2.073  0.00  0.00    -0.203 NA
ATOM     25  C   UNL     1       0.453  -3.673  -2.155  0.00  0.00    +0.324 A 
ATOM     26  N   UNL     1      -0.215  -2.736  -1.505  0.00  0.00    -0.193 NA
BRANCH  25  27
ATOM     27  O   UNL     1       1.504  -3.315  -2.931  0.00  0.00    -0.423 OA
BRANCH  27  28
ATOM     28  C   UNL     1       2.103  -4.280  -3.679  0.00  0.00    +0.136 A 
ATOM     29  C   UNL     1       1.444  -4.814  -4.777  0.00  0.00    +0.050 A 
ATOM     30  C   UNL     1       2.051  -5.795  -5.539  0.00  0.00    +0.053 A 
ATOM     31  C   UNL     1       3.318  -6.248  -5.208  0.00  0.00    +0.166 A 
ATOM     32  C   UNL     1       3.981  -5.713  -4.106  0.00  0.00    +0.170 A 
ATOM     33  C   UNL     1       3.373  -4.726  -3.347  0.00  0.00    +0.096 A 
ATOM     34  O   UNL     1       5.199  -6.319  -3.993  0.00  0.00    -0.452 OA
ATOM     35  C   UNL     1       5.109  -7.515  -4.789  0.00  0.00    +0.466 C 
ATOM     36  O   UNL     1       4.122  -7.189  -5.785  0.00  0.00    -0.453 OA
ENDBRANCH  27  28
ENDBRANCH  25  27
ENDBRANCH   2  21
TORSDOF 5
