REMARK  Name = CHEMBL452471
REMARK  6 active torsions:
REMARK  status: ('A' for Active; 'I' for Inactive)
REMARK    1  A    between atoms: C_1  and  S_2
REMARK    2  A    between atoms: S_2  and  C_3
REMARK    3  A    between atoms: C_6  and  C_16
REMARK    4  A    between atoms: C_7  and  C_9
REMARK    5  A    between atoms: N_22  and  C_23
REMARK    6  A    between atoms: C_23  and  C_24
REMARK                            x       y       z     vdW  Elec       q    Type
REMARK                         _______ _______ _______ _____ _____    ______ ____
ROOT
ATOM      1  C   UNL     1      -2.505   1.000  -1.304  0.00  0.00    +0.167 A 
ATOM      2  N   UNL     1      -2.913   0.235  -0.320  0.00  0.00    -0.221 NA
ATOM      3  H   UNL     1      -3.502   1.709  -2.998  0.00  0.00    +0.168 HD
ATOM      4  C   UNL     1      -4.202  -0.108  -0.519  0.00  0.00    +0.098 A 
ATOM      5  C   UNL     1      -4.615   0.480  -1.699  0.00  0.00    +0.075 A 
ATOM      6  N   UNL     1      -3.530   1.184  -2.183  0.00  0.00    -0.332 N 
ENDROOT
BRANCH   4   7
ATOM      7  C   UNL     1      -5.025  -0.962   0.366  0.00  0.00    +0.007 A 
ATOM      8  C   UNL     1      -6.395  -0.717   0.530  0.00  0.00    +0.030 A 
ATOM      9  C   UNL     1      -7.128  -1.534   1.363  0.00  0.00    +0.113 A 
ATOM     10  N   UNL     1      -6.558  -2.538   2.005  0.00  0.00    -0.240 NA
ATOM     11  C   UNL     1      -5.267  -2.806   1.881  0.00  0.00    +0.120 A 
ATOM     12  C   UNL     1      -4.458  -2.036   1.056  0.00  0.00    +0.053 A 
ATOM     13  N   UNL     1      -4.716  -3.875   2.579  0.00  0.00    -0.324 N 
ATOM     14  H   UNL     1      -5.277  -4.420   3.154  0.00  0.00    +0.148 HD
BRANCH  13  15
ATOM     15  C   UNL     1      -3.289  -4.180   2.447  0.00  0.00    +0.145 C 
BRANCH  15  16
ATOM     16  C   UNL     1      -2.950  -5.375   3.300  0.00  0.00    +0.007 A 
ATOM     17  C   UNL     1      -2.963  -6.690   2.971  0.00  0.00    +0.013 A 
ATOM     18  C   UNL     1      -2.609  -7.624   3.926  0.00  0.00    +0.008 A 
ATOM     19  C   UNL     1      -2.258  -7.197   5.164  0.00  0.00    +0.045 A 
ATOM     20  S   UNL     1      -2.418  -5.426   5.003  0.00  0.00    -0.100 S 
ENDBRANCH  15  16
ENDBRANCH  13  15
ENDBRANCH   4   7
BRANCH   5  21
ATOM     21  C   UNL     1      -5.952   0.380  -2.316  0.00  0.00    +0.001 A 
ATOM     22  C   UNL     1      -6.598  -0.856  -2.393  0.00  0.00    +0.013 A 
ATOM     23  C   UNL     1      -7.847  -0.942  -2.971  0.00  0.00    +0.039 A 
ATOM     24  C   UNL     1      -8.462   0.194  -3.474  0.00  0.00    +0.123 A 
ATOM     25  C   UNL     1      -7.825   1.423  -3.400  0.00  0.00    +0.039 A 
ATOM     26  C   UNL     1      -6.578   1.523  -2.820  0.00  0.00    +0.013 A 
ATOM     27  F   UNL     1      -9.686   0.102  -4.038  0.00  0.00    -0.205 F 
ENDBRANCH   5  21
BRANCH   1  29
ATOM     28  C   UNL     1      -0.013   1.086   0.008  0.00  0.00    +0.093 C 
ATOM     29  S   UNL     1      -0.890   1.687  -1.462  0.00  0.00    -0.091 S 
ENDBRANCH   1  29
TORSDOF 5
