REMARK  Name = CHEMBL269936
REMARK  9 active torsions:
REMARK  status: ('A' for Active; 'I' for Inactive)
REMARK    1  A    between atoms: C_1  and  C_2
REMARK    2  A    between atoms: C_5  and  C_21
REMARK    3  A    between atoms: C_7  and  N_8
REMARK    4  A    between atoms: C_9  and  C_11
REMARK    5  A    between atoms: C_16  and  N_17
REMARK    6  A    between atoms: N_17  and  C_18
REMARK    7  A    between atoms: N_19  and  C_20
REMARK    8  A    between atoms: N_23  and  C_24
REMARK    9  A    between atoms: C_28  and  C_31
REMARK                            x       y       z     vdW  Elec       q    Type
REMARK                         _______ _______ _______ _____ _____    ______ ____
ROOT
ATOM      1  C   UNL     1      -0.247   1.189  -1.055  0.00  0.00    +0.045 C 
ATOM      2  C   UNL     1      -0.142  -0.307  -0.906  0.00  0.00    -0.029 A 
ATOM      3  C   UNL     1      -0.115  -1.111  -2.031  0.00  0.00    +0.006 A 
ATOM      4  C   UNL     1      -0.019  -2.481  -1.903  0.00  0.00    +0.013 A 
ATOM      5  C   UNL     1       0.052  -3.061  -0.634  0.00  0.00    +0.039 A 
ATOM      6  C   UNL     1       0.025  -2.250   0.500  0.00  0.00    +0.036 A 
ATOM      7  C   UNL     1      -0.066  -0.873   0.361  0.00  0.00    +0.037 A 
ENDROOT
BRANCH   7   8
ATOM      8  N   UNL     1      -0.087  -0.055   1.495  0.00  0.00    -0.281 N 
ATOM      9  C   UNL     1      -0.695  -0.479   2.621  0.00  0.00    +0.253 C 
ATOM     10  O   UNL     1      -1.155  -1.604   2.677  0.00  0.00    -0.270 OA
ATOM     11  H   UNL     1       0.336   0.817   1.472  0.00  0.00    +0.155 HD
BRANCH   9  12
ATOM     12  C   UNL     1      -0.802   0.418   3.782  0.00  0.00    +0.095 A 
ATOM     13  C   UNL     1      -0.380   1.750   3.703  0.00  0.00    +0.131 A 
ATOM     14  N   UNL     1      -0.494   2.523   4.767  0.00  0.00    -0.222 NA
ATOM     15  C   UNL     1      -0.999   2.058   5.903  0.00  0.00    +0.217 A 
ATOM     16  N   UNL     1      -1.411   0.805   6.027  0.00  0.00    -0.199 NA
ATOM     17  C   UNL     1      -1.339  -0.039   5.005  0.00  0.00    +0.136 A 
ATOM     18  N   UNL     1      -1.096   2.905   6.987  0.00  0.00    -0.316 N 
ATOM     19  C   UNL     1      -0.646   4.294   6.875  0.00  0.00    +0.128 C 
ATOM     20  H   UNL     1      -1.463   2.580   7.825  0.00  0.00    +0.149 HD
BRANCH  17  21
ATOM     21  N   UNL     1      -1.774  -1.341   5.138  0.00  0.00    -0.331 N 
ATOM     22  C   UNL     1      -2.222  -1.834   6.442  0.00  0.00    +0.127 C 
ATOM     23  H   UNL     1      -1.785  -1.929   4.367  0.00  0.00    +0.147 HD
ENDBRANCH  17  21
ENDBRANCH   9  12
ENDBRANCH   7   8
BRANCH   5  24
ATOM     24  C   UNL     1       0.155  -4.529  -0.494  0.00  0.00    +0.248 C 
ATOM     25  O   UNL     1       0.217  -5.031   0.611  0.00  0.00    -0.270 OA
ATOM     26  N   UNL     1       0.180  -5.310  -1.592  0.00  0.00    -0.279 N 
ATOM     27  H   UNL     1       0.213  -4.907  -2.474  0.00  0.00    +0.155 HD
BRANCH  26  28
ATOM     28  C   UNL     1       0.158  -6.704  -1.460  0.00  0.00    +0.070 A 
ATOM     29  C   UNL     1      -0.556  -7.293  -0.425  0.00  0.00    +0.026 A 
ATOM     30  C   UNL     1      -0.577  -8.668  -0.298  0.00  0.00    +0.003 A 
ATOM     31  C   UNL     1       0.113  -9.459  -1.198  0.00  0.00    +0.015 A 
ATOM     32  C   UNL     1       0.826  -8.877  -2.230  0.00  0.00    +0.092 A 
ATOM     33  C   UNL     1       0.846  -7.501  -2.368  0.00  0.00    +0.156 A 
ATOM     34  F   UNL     1       1.538  -6.932  -3.379  0.00  0.00    -0.203 F 
BRANCH  32  35
ATOM     35  C   UNL     1       1.576  -9.742  -3.209  0.00  0.00    +0.420 C 
ATOM     36  F   UNL     1       1.403 -11.089  -2.870  0.00  0.00    -0.166 F 
ATOM     37  F   UNL     1       1.085  -9.520  -4.500  0.00  0.00    -0.166 F 
ATOM     38  F   UNL     1       2.938  -9.423  -3.167  0.00  0.00    -0.166 F 
ENDBRANCH  32  35
ENDBRANCH  26  28
ENDBRANCH   5  24
TORSDOF 6
