REMARK  Name = CHEMBL1093219
REMARK  6 active torsions:
REMARK  status: ('A' for Active; 'I' for Inactive)
REMARK    1  A    between atoms: C_1  and  C_2
REMARK    2  A    between atoms: C_2  and  N_3
REMARK    3  A    between atoms: N_10  and  C_11
REMARK    4  A    between atoms: C_11  and  C_13
REMARK    5  A    between atoms: C_11  and  C_14
REMARK    6  A    between atoms: C_20  and  C_22
REMARK                            x       y       z     vdW  Elec       q    Type
REMARK                         _______ _______ _______ _____ _____    ______ ____
ROOT
ATOM      1  N   UNL     1       0.518  -0.685  -1.210  0.00  0.00    -0.252 N 
ATOM      2  C   UNL     1       1.869  -1.004  -1.260  0.00  0.00    +0.133 A 
ATOM      3  C   UNL     1       2.596  -1.192  -0.083  0.00  0.00    +0.064 A 
ATOM      4  C   UNL     1       3.937  -1.509  -0.180  0.00  0.00    +0.118 A 
ATOM      5  N   UNL     1       4.490  -1.625  -1.378  0.00  0.00    -0.223 NA
ATOM      6  C   UNL     1       3.776  -1.442  -2.479  0.00  0.00    +0.217 A 
ATOM      7  N   UNL     1       2.487  -1.142  -2.428  0.00  0.00    -0.199 NA
ATOM      8  N   UNL     1       4.391  -1.573  -3.712  0.00  0.00    -0.307 N 
ATOM      9  C   UNL     1      -0.199  -0.611  -2.349  0.00  0.00    +0.252 C 
ATOM     10  O   UNL     1       0.315  -0.902  -3.411  0.00  0.00    -0.270 OA
ATOM     11  H   UNL     1       3.879  -1.441  -4.525  0.00  0.00    +0.149 HD
ENDROOT
BRANCH   9  12
ATOM     12  C   UNL     1      -1.610  -0.176  -2.307  0.00  0.00    +0.038 A 
ATOM     13  C   UNL     1      -2.011   0.815  -1.401  0.00  0.00    +0.017 A 
ATOM     14  C   UNL     1      -3.310   1.226  -1.349  0.00  0.00    +0.047 A 
ATOM     15  C   UNL     1      -4.258   0.665  -2.200  0.00  0.00    +0.135 A 
ATOM     16  C   UNL     1      -3.867  -0.330  -3.114  0.00  0.00    +0.021 A 
ATOM     17  C   UNL     1      -2.541  -0.746  -3.171  0.00  0.00    +0.024 A 
ATOM     18  C   UNL     1      -5.089  -0.697  -3.841  0.00  0.00    +0.049 A 
ATOM     19  C   UNL     1      -6.067   0.066  -3.335  0.00  0.00    +0.196 A 
ATOM     20  O   UNL     1      -5.580   0.866  -2.371  0.00  0.00    -0.463 OA
ENDBRANCH   9  12
BRANCH   1  22
ATOM     21  C   UNL     1       0.266   0.964   0.578  0.00  0.00    +0.025 C 
ATOM     22  C   UNL     1      -0.127  -0.428   0.080  0.00  0.00    +0.112 C 
ENDBRANCH   1  22
BRANCH   8  23
ATOM     23  C   UNL     1       5.814  -1.909  -3.789  0.00  0.00    +0.100 C 
ATOM     24  C   UNL     1       5.984  -3.428  -3.707  0.00  0.00    +0.033 C 
BRANCH  23  25
ATOM     25  C   UNL     1       6.379  -1.410  -5.094  0.00  0.00    -0.027 A 
ATOM     26  C   UNL     1       5.635  -1.515  -6.254  0.00  0.00    +0.005 A 
ATOM     27  C   UNL     1       6.153  -1.057  -7.451  0.00  0.00    +0.000 A 
ATOM     28  C   UNL     1       7.414  -0.493  -7.487  0.00  0.00    +0.000 A 
ATOM     29  C   UNL     1       8.158  -0.387  -6.327  0.00  0.00    +0.000 A 
ATOM     30  C   UNL     1       7.638  -0.841  -5.129  0.00  0.00    +0.005 A 
ENDBRANCH  23  25
ENDBRANCH   8  23
TORSDOF 4
