REMARK  Name = CHEMBL95365
REMARK  6 active torsions:
REMARK  status: ('A' for Active; 'I' for Inactive)
REMARK    1  A    between atoms: C_1  and  N_2
REMARK    2  A    between atoms: C_5  and  N_8
REMARK    3  A    between atoms: C_11  and  C_27
REMARK    4  A    between atoms: C_12  and  C_13
REMARK    5  A    between atoms: N_19  and  C_20
REMARK    6  A    between atoms: C_20  and  C_21
REMARK                            x       y       z     vdW  Elec       q    Type
REMARK                         _______ _______ _______ _____ _____    ______ ____
ROOT
ATOM      1  N   UNL     1      -0.538  -4.066   0.990  0.00  0.00    -0.327 N 
ATOM      2  C   UNL     1      -0.028  -4.755  -0.052  0.00  0.00    +0.175 A 
ATOM      3  N   UNL     1      -0.096  -6.034   0.194  0.00  0.00    -0.345 N 
ATOM      4  C   UNL     1      -0.652  -6.232   1.402  0.00  0.00    +0.073 A 
ATOM      5  C   UNL     1      -0.939  -4.986   1.934  0.00  0.00    +0.093 A 
ATOM      6  H   UNL     1       0.207  -6.735  -0.404  0.00  0.00    +0.167 HD
ENDROOT
BRANCH   1  11
ATOM      7  C   UNL     1      -0.424   1.452  -0.170  0.00  0.00    -0.096 C 
ATOM      8  N   UNL     1      -0.359  -0.015  -0.158  0.00  0.00    +0.378 N 
ATOM      9  C   UNL     1      -1.690  -0.560   0.134  0.00  0.00    -0.077 C 
ATOM     10  C   UNL     1      -1.646  -2.088   0.068  0.00  0.00    +0.006 C 
ATOM     11  C   UNL     1      -0.642  -2.609   1.100  0.00  0.00    +0.085 C 
ATOM     12  C   UNL     1       0.727  -1.977   0.830  0.00  0.00    +0.006 C 
ATOM     13  C   UNL     1       0.595  -0.453   0.868  0.00  0.00    -0.077 C 
ATOM     14  H   UNL     1      -0.054  -0.345  -1.062  0.00  0.00    -0.082 HD
ENDBRANCH   1  11
BRANCH   5  15
ATOM     15  C   UNL     1      -1.551  -4.702   3.244  0.00  0.00    +0.094 A 
ATOM     16  C   UNL     1      -2.323  -3.547   3.434  0.00  0.00    +0.050 A 
ATOM     17  C   UNL     1      -2.876  -3.324   4.680  0.00  0.00    +0.116 A 
ATOM     18  N   UNL     1      -2.663  -4.200   5.651  0.00  0.00    -0.223 NA
ATOM     19  C   UNL     1      -1.929  -5.285   5.445  0.00  0.00    +0.216 A 
ATOM     20  N   UNL     1      -1.384  -5.542   4.267  0.00  0.00    -0.213 NA
ATOM     21  N   UNL     1      -1.733  -6.173   6.488  0.00  0.00    -0.309 N 
ATOM     22  H   UNL     1      -1.198  -6.971   6.351  0.00  0.00    +0.149 HD
BRANCH  21  23
ATOM     23  C   UNL     1      -2.333  -5.910   7.798  0.00  0.00    +0.139 C 
BRANCH  23  24
ATOM     24  C   UNL     1      -1.970  -7.020   8.750  0.00  0.00    -0.030 A 
ATOM     25  C   UNL     1      -2.781  -8.134   8.854  0.00  0.00    +0.005 A 
ATOM     26  C   UNL     1      -2.448  -9.153   9.726  0.00  0.00    +0.000 A 
ATOM     27  C   UNL     1      -1.303  -9.058  10.495  0.00  0.00    +0.000 A 
ATOM     28  C   UNL     1      -0.491  -7.945  10.390  0.00  0.00    +0.000 A 
ATOM     29  C   UNL     1      -0.822  -6.928   9.514  0.00  0.00    +0.005 A 
ENDBRANCH  23  24
ENDBRANCH  21  23
ENDBRANCH   5  15
BRANCH   4  30
ATOM     30  C   UNL     1      -0.906  -7.541   2.048  0.00  0.00    +0.001 A 
ATOM     31  C   UNL     1      -2.132  -7.791   2.665  0.00  0.00    +0.013 A 
ATOM     32  C   UNL     1      -2.364  -9.012   3.264  0.00  0.00    +0.039 A 
ATOM     33  C   UNL     1      -1.381  -9.989   3.254  0.00  0.00    +0.123 A 
ATOM     34  C   UNL     1      -0.162  -9.745   2.643  0.00  0.00    +0.039 A 
ATOM     35  C   UNL     1       0.077  -8.530   2.035  0.00  0.00    +0.013 A 
ATOM     36  F   UNL     1      -1.612 -11.182   3.843  0.00  0.00    -0.205 F 
ENDBRANCH   4  30
TORSDOF 5
