REMARK  Name = CHEMBL552375
REMARK  4 active torsions:
REMARK  status: ('A' for Active; 'I' for Inactive)
REMARK    1  A    between atoms: C_3  and  C_10
REMARK    2  A    between atoms: C_11  and  N_27
REMARK    3  A    between atoms: C_12  and  C_17
REMARK    4  A    between atoms: C_17  and  C_19
REMARK                            x       y       z     vdW  Elec       q    Type
REMARK                         _______ _______ _______ _____ _____    ______ ____
ROOT
ATOM      1  C   UNL     1       3.610   2.254  -0.020  0.00  0.00    +0.117 A 
ATOM      2  C   UNL     1       4.191   2.625  -1.241  0.00  0.00    +0.063 A 
ATOM      3  C   UNL     1       5.441   3.270  -1.225  0.00  0.00    +0.047 A 
ATOM      4  C   UNL     1       6.045   3.510   0.017  0.00  0.00    +0.035 A 
ATOM      5  C   UNL     1       5.402   3.111   1.169  0.00  0.00    +0.135 A 
ATOM      6  N   UNL     1       4.226   2.511   1.125  0.00  0.00    -0.137 N 
ATOM      7  O   UNL     1       3.607   2.127   2.338  0.00  0.00    -0.164 OA
ENDROOT
BRANCH   1  10
ATOM      8  C   UNL     1      -0.105   1.686   0.061  0.00  0.00    +0.004 A 
ATOM      9  C   UNL     1       1.120   2.322   0.052  0.00  0.00    +0.014 A 
ATOM     10  C   UNL     1       2.294   1.573  -0.010  0.00  0.00    +0.049 A 
ATOM     11  C   UNL     1       2.225   0.179  -0.062  0.00  0.00    +0.175 A 
ATOM     12  C   UNL     1       0.986  -0.452  -0.052  0.00  0.00    +0.167 A 
ATOM     13  C   UNL     1      -0.174   0.305   0.010  0.00  0.00    +0.049 A 
ATOM     14  O   UNL     1       1.182  -1.801  -0.110  0.00  0.00    -0.453 OA
ATOM     15  C   UNL     1       2.537  -1.973  -0.566  0.00  0.00    +0.466 C 
ATOM     16  O   UNL     1       3.200  -0.773  -0.126  0.00  0.00    -0.452 OA
ENDBRANCH   1  10
BRANCH   2  17
ATOM     17  N   UNL     1       3.547   2.361  -2.440  0.00  0.00    -0.356 N 
ATOM     18  H   UNL     1       2.722   1.851  -2.445  0.00  0.00    +0.142 HD
ATOM     19  H   UNL     1       3.921   2.686  -3.274  0.00  0.00    +0.142 HD
ENDBRANCH   2  17
BRANCH   3  20
ATOM     20  C   UNL     1       6.097   3.681  -2.480  0.00  0.00    +0.198 C 
ATOM     21  O   UNL     1       7.036   3.041  -2.914  0.00  0.00    -0.286 OA
BRANCH  20  22
ATOM     22  C   UNL     1       5.615   4.869  -3.210  0.00  0.00    +0.058 A 
ATOM     23  C   UNL     1       4.610   5.671  -2.660  0.00  0.00    +0.017 A 
ATOM     24  C   UNL     1       4.164   6.779  -3.345  0.00  0.00    +0.039 A 
ATOM     25  C   UNL     1       4.708   7.102  -4.580  0.00  0.00    +0.126 A 
ATOM     26  C   UNL     1       5.703   6.312  -5.133  0.00  0.00    +0.077 A 
ATOM     27  C   UNL     1       6.165   5.202  -4.454  0.00  0.00    +0.137 A 
ATOM     28  F   UNL     1       7.140   4.436  -4.990  0.00  0.00    -0.205 F 
ATOM     29  F   UNL     1       4.265   8.190  -5.247  0.00  0.00    -0.205 F 
ENDBRANCH  20  22
ENDBRANCH   3  20
TORSDOF 4
