REMARK  Name = CHEMBL330282
REMARK  6 active torsions:
REMARK  status: ('A' for Active; 'I' for Inactive)
REMARK    1  A    between atoms: C_1  and  C_2
REMARK    2  A    between atoms: C_2  and  C_3
REMARK    3  A    between atoms: C_3  and  C_5
REMARK    4  A    between atoms: C_3  and  N_6
REMARK    5  A    between atoms: C_11  and  C_13
REMARK    6  A    between atoms: C_14  and  C_22
REMARK                            x       y       z     vdW  Elec       q    Type
REMARK                         _______ _______ _______ _____ _____    ______ ____
ROOT
ATOM      1  C   UNL     1      -6.063   0.938  -3.700  0.00  0.00    +0.097 A 
ATOM      2  C   UNL     1      -7.418   0.874  -3.952  0.00  0.00    +0.075 A 
ATOM      3  C   UNL     1      -7.596   1.161  -5.380  0.00  0.00    +0.276 A 
ATOM      4  O   UNL     1      -8.653   1.197  -5.984  0.00  0.00    -0.266 OA
ATOM      5  N   UNL     1      -6.367   1.377  -5.899  0.00  0.00    -0.249 N 
ATOM      6  N   UNL     1      -5.420   1.249  -4.879  0.00  0.00    -0.279 N 
ATOM      7  C   UNL     1      -4.069   1.489  -5.416  0.00  0.00    +0.144 C 
ATOM      8  C   UNL     1      -4.216   1.352  -6.946  0.00  0.00    +0.046 C 
ATOM      9  C   UNL     1      -5.699   1.704  -7.170  0.00  0.00    +0.147 C 
ENDROOT
BRANCH   1  15
ATOM     10  N   UNL     1      -6.359   0.149   1.000  0.00  0.00    -0.311 N 
ATOM     11  C   UNL     1      -5.567   0.337  -0.120  0.00  0.00    +0.216 A 
ATOM     12  N   UNL     1      -4.248   0.313   0.010  0.00  0.00    -0.223 NA
ATOM     13  C   UNL     1      -3.457   0.487  -1.035  0.00  0.00    +0.116 A 
ATOM     14  C   UNL     1      -4.019   0.698  -2.283  0.00  0.00    +0.050 A 
ATOM     15  C   UNL     1      -5.413   0.718  -2.390  0.00  0.00    +0.095 A 
ATOM     16  N   UNL     1      -6.147   0.529  -1.294  0.00  0.00    -0.213 NA
ATOM     17  H   UNL     1      -7.326   0.160   0.918  0.00  0.00    +0.149 HD
BRANCH  10  18
ATOM     18  C   UNL     1      -5.737  -0.065   2.309  0.00  0.00    +0.070 C 
ATOM     19  C   UNL     1      -5.411   1.286   2.946  0.00  0.00    +0.028 C 
BRANCH  18  21
ATOM     20  C   UNL     1      -6.932  -2.235   2.638  0.00  0.00    +0.005 C 
ATOM     21  C   UNL     1      -6.703  -0.835   3.212  0.00  0.00    +0.018 C 
ENDBRANCH  18  21
ENDBRANCH  10  18
ENDBRANCH   1  15
BRANCH   2  22
ATOM     22  C   UNL     1      -8.486   0.574  -2.972  0.00  0.00    -0.010 A 
ATOM     23  C   UNL     1      -8.568  -0.693  -2.392  0.00  0.00    +0.011 A 
ATOM     24  C   UNL     1      -9.565  -0.967  -1.479  0.00  0.00    +0.039 A 
ATOM     25  C   UNL     1     -10.484   0.012  -1.138  0.00  0.00    +0.123 A 
ATOM     26  C   UNL     1     -10.407   1.272  -1.711  0.00  0.00    +0.039 A 
ATOM     27  C   UNL     1      -9.411   1.558  -2.620  0.00  0.00    +0.011 A 
ATOM     28  F   UNL     1     -11.459  -0.262  -0.243  0.00  0.00    -0.205 F 
ENDBRANCH   2  22
TORSDOF 4
