REMARK  Name = CHEMBL381457
REMARK  9 active torsions:
REMARK  status: ('A' for Active; 'I' for Inactive)
REMARK    1  A    between atoms: C_1  and  N_2
REMARK    2  A    between atoms: N_5  and  C_8
REMARK    3  A    between atoms: C_8  and  C_9
REMARK    4  A    between atoms: C_9  and  C_10
REMARK    5  A    between atoms: C_10  and  C_11
REMARK    6  A    between atoms: C_14  and  O_36
REMARK    7  A    between atoms: C_15  and  C_17
REMARK    8  A    between atoms: N_27  and  C_28
REMARK    9  A    between atoms: O_36  and  C_37
REMARK                            x       y       z     vdW  Elec       q    Type
REMARK                         _______ _______ _______ _____ _____    ______ ____
ROOT
ATOM      1  C   UNL     1      -0.510  -7.742   6.896  0.00  0.00    +0.080 A 
ATOM      2  C   UNL     1      -0.488  -7.143   8.157  0.00  0.00    +0.064 A 
ATOM      3  C   UNL     1       0.354  -6.242   8.828  0.00  0.00    +0.128 A 
ATOM      4  N   UNL     1       0.045  -5.891  10.058  0.00  0.00    -0.222 NA
ATOM      5  C   UNL     1      -1.034  -6.361  10.682  0.00  0.00    +0.222 A 
ATOM      6  N   UNL     1      -1.878  -7.209  10.131  0.00  0.00    -0.193 NA
ATOM      7  C   UNL     1      -1.673  -7.644   8.875  0.00  0.00    +0.186 A 
ATOM      8  N   UNL     1      -2.299  -8.463   8.054  0.00  0.00    -0.153 NA
ATOM      9  N   UNL     1      -1.604  -8.527   6.841  0.00  0.00    -0.274 N 
ATOM     10  H   UNL     1      -1.869  -9.060   6.075  0.00  0.00    +0.189 HD
ATOM     11  N   UNL     1      -1.281  -5.937  11.976  0.00  0.00    -0.281 N 
ATOM     12  H   UNL     1      -2.010  -6.327  12.483  0.00  0.00    +0.155 HD
ENDROOT
BRANCH  11  13
ATOM     13  C   UNL     1      -0.478  -4.945  12.553  0.00  0.00    +0.069 A 
ATOM     14  C   UNL     1       0.022  -3.913  11.771  0.00  0.00    +0.029 A 
ATOM     15  C   UNL     1       0.814  -2.936  12.341  0.00  0.00    +0.040 A 
ATOM     16  C   UNL     1       1.109  -2.983  13.693  0.00  0.00    +0.126 A 
ATOM     17  C   UNL     1       0.612  -4.011  14.477  0.00  0.00    +0.078 A 
ATOM     18  C   UNL     1      -0.186  -4.989  13.912  0.00  0.00    +0.147 A 
ATOM     19  F   UNL     1      -0.676  -5.988  14.677  0.00  0.00    -0.203 F 
ATOM     20  F   UNL     1       1.884  -2.026  14.248  0.00  0.00    -0.205 F 
ENDBRANCH  11  13
BRANCH   1  25
ATOM     21  C   UNL     1       1.029  -6.749   3.620  0.00  0.00    -0.047 A 
ATOM     22  C   UNL     1       2.335  -7.175   3.793  0.00  0.00    +0.007 A 
ATOM     23  C   UNL     1       2.721  -7.785   4.972  0.00  0.00    +0.046 A 
ATOM     24  C   UNL     1       1.801  -7.974   5.990  0.00  0.00    +0.129 A 
ATOM     25  C   UNL     1       0.478  -7.545   5.819  0.00  0.00    +0.042 A 
ATOM     26  C   UNL     1       0.102  -6.925   4.625  0.00  0.00    +0.017 A 
BRANCH  24  27
ATOM     27  O   UNL     1       2.179  -8.573   7.148  0.00  0.00    -0.494 OA
ATOM     28  C   UNL     1       3.544  -8.985   7.250  0.00  0.00    +0.277 C 
ENDBRANCH  24  27
BRANCH  21  29
ATOM     29  C   UNL     1       0.621  -6.085   2.330  0.00  0.00    +0.033 C 
BRANCH  29  30
ATOM     30  C   UNL     1       0.836  -4.575   2.444  0.00  0.00    -0.014 C 
BRANCH  30  31
ATOM     31  C   UNL     1       0.421  -3.901   1.135  0.00  0.00    -0.078 C 
BRANCH  31  36
ATOM     32  C   UNL     1       1.983   1.462   0.393  0.00  0.00    +0.104 C 
ATOM     33  N   UNL     1       1.746   0.014   0.329  0.00  0.00    -0.309 NA
ATOM     34  C   UNL     1       0.316  -0.279   0.155  0.00  0.00    +0.065 C 
ATOM     35  C   UNL     1       0.119  -1.791   0.034  0.00  0.00    -0.063 C 
ATOM     36  N   UNL     1       0.627  -2.450   1.244  0.00  0.00    +0.381 N 
ATOM     37  C   UNL     1       2.061  -2.169   1.391  0.00  0.00    -0.063 C 
ATOM     38  C   UNL     1       2.275  -0.660   1.524  0.00  0.00    +0.065 C 
ATOM     39  H   UNL     1       0.132  -2.100   2.050  0.00  0.00    -0.082 HD
ENDBRANCH  31  36
ENDBRANCH  30  31
ENDBRANCH  29  30
ENDBRANCH  21  29
ENDBRANCH   1  25
TORSDOF 7
