REMARK  Name = CHEMBL96741
REMARK  4 active torsions:
REMARK  status: ('A' for Active; 'I' for Inactive)
REMARK    1  A    between atoms: C_6  and  C_7
REMARK    2  A    between atoms: C_8  and  C_16
REMARK    3  A    between atoms: N_9  and  C_12
REMARK    4  A    between atoms: C_12  and  C_13
REMARK                            x       y       z     vdW  Elec       q    Type
REMARK                         _______ _______ _______ _____ _____    ______ ____
ROOT
ATOM      1  C   UNL     1      -1.276  -0.754   0.026  0.00  0.00    +0.072 A 
ATOM      2  C   UNL     1      -1.529  -1.919   0.728  0.00  0.00    +0.074 A 
ATOM      3  N   UNL     1      -2.821  -2.280   0.418  0.00  0.00    -0.331 N 
ATOM      4  C   UNL     1      -3.303  -1.354  -0.438  0.00  0.00    +0.174 A 
ATOM      5  N   UNL     1      -2.390  -0.451  -0.664  0.00  0.00    -0.345 N 
ATOM      6  H   UNL     1      -2.498   0.320  -1.243  0.00  0.00    +0.167 HD
ENDROOT
BRANCH   1  12
ATOM      7  C   UNL     1      -0.042   1.404   0.204  0.00  0.00    +0.013 A 
ATOM      8  C   UNL     1       1.137   2.121   0.214  0.00  0.00    +0.039 A 
ATOM      9  C   UNL     1       2.349   1.467   0.057  0.00  0.00    +0.123 A 
ATOM     10  C   UNL     1       2.383   0.092  -0.111  0.00  0.00    +0.039 A 
ATOM     11  C   UNL     1       1.210  -0.633  -0.121  0.00  0.00    +0.013 A 
ATOM     12  C   UNL     1      -0.013   0.020   0.036  0.00  0.00    +0.001 A 
ATOM     13  F   UNL     1       3.501   2.173   0.066  0.00  0.00    -0.205 F 
ENDBRANCH   1  12
BRANCH   2  14
ATOM     14  C   UNL     1      -0.601  -2.631   1.627  0.00  0.00    +0.003 A 
ATOM     15  C   UNL     1      -0.313  -3.989   1.437  0.00  0.00    +0.030 A 
ATOM     16  C   UNL     1       0.560  -4.614   2.302  0.00  0.00    +0.111 A 
ATOM     17  N   UNL     1       1.119  -3.952   3.297  0.00  0.00    -0.263 NA
ATOM     18  C   UNL     1       0.876  -2.673   3.512  0.00  0.00    +0.111 A 
ATOM     19  C   UNL     1       0.021  -1.967   2.693  0.00  0.00    +0.030 A 
ENDBRANCH   2  14
BRANCH   3  20
ATOM     20  C   UNL     1      -3.539  -3.453   0.922  0.00  0.00    +0.126 C 
BRANCH  20  21
ATOM     21  C   UNL     1      -4.170  -3.121   2.276  0.00  0.00    +0.009 C 
ATOM     22  C   UNL     1      -5.697  -3.150   2.369  0.00  0.00    +0.005 C 
ATOM     23  C   UNL     1      -4.869  -4.256   3.027  0.00  0.00    +0.005 C 
ENDBRANCH  20  21
ENDBRANCH   3  20
TORSDOF 4
