REMARK  Name = CHEMBL519620
REMARK  6 active torsions:
REMARK  status: ('A' for Active; 'I' for Inactive)
REMARK    1  A    between atoms: C_3  and  C_10
REMARK    2  A    between atoms: C_5  and  C_7
REMARK    3  A    between atoms: C_10  and  C_11
REMARK    4  A    between atoms: C_14  and  C_24
REMARK    5  A    between atoms: C_15  and  C_17
REMARK    6  A    between atoms: N_30  and  C_31
REMARK                            x       y       z     vdW  Elec       q    Type
REMARK                         _______ _______ _______ _____ _____    ______ ____
ROOT
ATOM      1  C   UNL     1       4.113   2.456   1.397  0.00  0.00    +0.113 A 
ATOM      2  N   UNL     1       5.320   2.131   1.905  0.00  0.00    -0.340 N 
ATOM      3  H   UNL     1       6.046   1.699   1.428  0.00  0.00    +0.167 HD
ATOM      4  C   UNL     1       5.331   2.526   3.224  0.00  0.00    +0.093 A 
ATOM      5  C   UNL     1       4.090   3.092   3.466  0.00  0.00    +0.098 A 
ATOM      6  N   UNL     1       3.390   3.029   2.320  0.00  0.00    -0.231 NA
ENDROOT
BRANCH   4   7
ATOM      7  C   UNL     1       6.439   2.377   4.185  0.00  0.00    +0.094 A 
ATOM      8  C   UNL     1       7.404   1.377   4.008  0.00  0.00    +0.050 A 
ATOM      9  C   UNL     1       8.424   1.276   4.935  0.00  0.00    +0.116 A 
ATOM     10  N   UNL     1       8.459   2.122   5.955  0.00  0.00    -0.223 NA
ATOM     11  C   UNL     1       7.534   3.059   6.098  0.00  0.00    +0.216 A 
ATOM     12  N   UNL     1       6.542   3.196   5.233  0.00  0.00    -0.213 NA
ATOM     13  N   UNL     1       7.609   3.921   7.179  0.00  0.00    -0.311 N 
ATOM     14  H   UNL     1       6.939   4.612   7.296  0.00  0.00    +0.149 HD
BRANCH  13  15
ATOM     15  C   UNL     1       8.703   3.790   8.145  0.00  0.00    +0.073 C 
ATOM     16  C   UNL     1       8.349   3.893   9.630  0.00  0.00    +0.024 C 
ATOM     17  C   UNL     1       9.096   5.037   8.940  0.00  0.00    +0.024 C 
ENDBRANCH  13  15
ENDBRANCH   4   7
BRANCH   5  18
ATOM     18  C   UNL     1       3.623   3.666   4.749  0.00  0.00    +0.003 A 
ATOM     19  C   UNL     1       4.030   3.101   5.958  0.00  0.00    +0.013 A 
ATOM     20  C   UNL     1       3.592   3.639   7.150  0.00  0.00    +0.039 A 
ATOM     21  C   UNL     1       2.748   4.738   7.148  0.00  0.00    +0.123 A 
ATOM     22  C   UNL     1       2.340   5.303   5.950  0.00  0.00    +0.039 A 
ATOM     23  C   UNL     1       2.778   4.776   4.753  0.00  0.00    +0.013 A 
ATOM     24  F   UNL     1       2.320   5.261   8.319  0.00  0.00    -0.205 F 
ENDBRANCH   5  18
BRANCH   1  25
ATOM     25  C   UNL     1       3.671   2.203  -0.021  0.00  0.00    +0.109 C 
BRANCH  25  28
ATOM     26  C   UNL     1      -0.017   1.375   0.010  0.00  0.00    +0.001 A 
ATOM     27  C   UNL     1       1.170   2.086   0.002  0.00  0.00    +0.004 A 
ATOM     28  C   UNL     1       2.383   1.420  -0.013  0.00  0.00    -0.039 A 
ATOM     29  C   UNL     1       2.416   0.041  -0.021  0.00  0.00    +0.017 A 
ATOM     30  C   UNL     1       1.222  -0.682  -0.014  0.00  0.00    +0.037 A 
ATOM     31  C   UNL     1       0.002  -0.004   0.002  0.00  0.00    +0.013 A 
BRANCH  30  32
ATOM     32  C   UNL     1       1.250  -2.161  -0.023  0.00  0.00    +0.242 C 
ATOM     33  O   UNL     1       2.313  -2.748  -0.037  0.00  0.00    -0.270 OA
ATOM     34  N   UNL     1       0.095  -2.856  -0.016  0.00  0.00    -0.325 N 
ATOM     35  H   UNL     1      -0.754  -2.387  -0.004  0.00  0.00    +0.145 HD
ATOM     36  H   UNL     1       0.113  -3.826  -0.022  0.00  0.00    +0.145 HD
ENDBRANCH  30  32
ENDBRANCH  25  28
ENDBRANCH   1  25
TORSDOF 6
