REMARK  Name = CHEMBL292482
REMARK  6 active torsions:
REMARK  status: ('A' for Active; 'I' for Inactive)
REMARK    1  A    between atoms: C_1  and  C_2
REMARK    2  A    between atoms: C_2  and  C_3
REMARK    3  A    between atoms: C_2  and  C_4
REMARK    4  A    between atoms: C_2  and  C_5
REMARK    5  A    between atoms: C_7  and  N_10
REMARK    6  A    between atoms: N_13  and  C_14
REMARK                            x       y       z     vdW  Elec       q    Type
REMARK                         _______ _______ _______ _____ _____    ______ ____
ROOT
ATOM      1  N   UNL     1       3.572  -1.135  -3.288  0.00  0.00    -0.238 N 
ATOM      2  C   UNL     1       3.668  -1.678  -4.518  0.00  0.00    +0.310 C 
ATOM      3  O   UNL     1       2.664  -2.025  -5.109  0.00  0.00    -0.252 OA
ATOM      4  N   UNL     1       4.877  -1.837  -5.092  0.00  0.00    -0.268 N 
ATOM      5  H   UNL     1       4.373  -0.858  -2.816  0.00  0.00    +0.159 HD
ATOM      6  H   UNL     1       5.672  -1.501  -4.649  0.00  0.00    +0.156 HD
ENDROOT
BRANCH   4   7
ATOM      7  C   UNL     1       4.986  -2.486  -6.328  0.00  0.00    +0.055 A 
ATOM      8  C   UNL     1       3.986  -2.339  -7.281  0.00  0.00    +0.025 A 
ATOM      9  C   UNL     1       4.096  -2.981  -8.499  0.00  0.00    +0.003 A 
ATOM     10  C   UNL     1       5.199  -3.769  -8.772  0.00  0.00    +0.021 A 
ATOM     11  C   UNL     1       6.197  -3.918  -7.825  0.00  0.00    +0.061 A 
ATOM     12  C   UNL     1       6.096  -3.273  -6.605  0.00  0.00    +0.080 A 
ATOM     13 CL   UNL     1       7.352  -3.454  -5.420  0.00  0.00    -0.080 Cl
ATOM     14 CL   UNL     1       7.580  -4.908  -8.171  0.00  0.00    -0.082 Cl
ENDBRANCH   4   7
BRANCH   1  17
ATOM     15  C   UNL     1       0.703  -0.457  -1.254  0.00  0.00    +0.091 A 
ATOM     16  C   UNL     1       2.088  -0.442  -1.471  0.00  0.00    +0.093 A 
ATOM     17  C   UNL     1       2.328  -0.972  -2.697  0.00  0.00    +0.225 A 
ATOM     18  O   UNL     1       1.145  -1.310  -3.237  0.00  0.00    -0.339 OA
ATOM     19  N   UNL     1       0.132  -0.980  -2.304  0.00  0.00    -0.081 NA
BRANCH  15  21
ATOM     20  C   UNL     1      -0.023   1.569  -0.022  0.00  0.00    +0.017 C 
ATOM     21  C   UNL     1      -0.004   0.039  -0.019  0.00  0.00    +0.008 C 
ATOM     22  C   UNL     1       0.734  -0.459   1.225  0.00  0.00    +0.017 C 
ATOM     23  C   UNL     1      -1.439  -0.489  -0.006  0.00  0.00    +0.017 C 
ENDBRANCH  15  21
ENDBRANCH   1  17
TORSDOF 3
