REMARK  Name = CHEMBL270004
REMARK  10 active torsions:
REMARK  status: ('A' for Active; 'I' for Inactive)
REMARK    1  A    between atoms: C_1  and  C_2
REMARK    2  A    between atoms: C_2  and  C_3
REMARK    3  A    between atoms: C_2  and  C_4
REMARK    4  A    between atoms: C_2  and  N_36
REMARK    5  A    between atoms: N_6  and  C_7
REMARK    6  A    between atoms: C_7  and  C_8
REMARK    7  A    between atoms: C_8  and  O_9
REMARK    8  A    between atoms: O_9  and  C_10
REMARK    9  A    between atoms: C_12  and  C_29
REMARK   10  A    between atoms: N_18  and  C_21
REMARK                            x       y       z     vdW  Elec       q    Type
REMARK                         _______ _______ _______ _____ _____    ______ ____
ROOT
ATOM      1  C   UNL     1      -3.601  -2.338  -4.622  0.00  0.00    +0.123 A 
ATOM      2  C   UNL     1      -4.646  -1.590  -5.157  0.00  0.00    +0.055 A 
ATOM      3  C   UNL     1      -5.013  -1.752  -6.484  0.00  0.00    -0.004 A 
ATOM      4  C   UNL     1      -4.320  -2.682  -7.288  0.00  0.00    +0.007 A 
ATOM      5  C   UNL     1      -4.672  -2.870  -8.647  0.00  0.00    +0.016 A 
ATOM      6  C   UNL     1      -3.983  -3.773  -9.391  0.00  0.00    +0.071 A 
ATOM      7  C   UNL     1      -2.930  -4.513  -8.816  0.00  0.00    +0.256 A 
ATOM      8  O   UNL     1      -2.321  -5.319  -9.497  0.00  0.00    -0.267 OA
ATOM      9  N   UNL     1      -2.587  -4.342  -7.525  0.00  0.00    -0.274 N 
ATOM     10  C   UNL     1      -3.265  -3.433  -6.736  0.00  0.00    +0.061 A 
ATOM     11  C   UNL     1      -2.912  -3.249  -5.405  0.00  0.00    +0.072 A 
ENDROOT
BRANCH   9  12
ATOM     12  C   UNL     1      -1.537  -5.091  -6.979  0.00  0.00    +0.087 A 
ATOM     13  C   UNL     1      -1.793  -6.324  -6.392  0.00  0.00    +0.066 A 
ATOM     14  C   UNL     1      -0.754  -7.061  -5.854  0.00  0.00    +0.022 A 
ATOM     15  C   UNL     1       0.538  -6.572  -5.900  0.00  0.00    +0.003 A 
ATOM     16  C   UNL     1       0.797  -5.345  -6.484  0.00  0.00    +0.022 A 
ATOM     17  C   UNL     1      -0.236  -4.605  -7.028  0.00  0.00    +0.066 A 
ATOM     18 CL   UNL     1       0.090  -3.068  -7.766  0.00  0.00    -0.081 Cl
ATOM     19 CL   UNL     1      -3.416  -6.939  -6.333  0.00  0.00    -0.081 Cl
ENDBRANCH   9  12
BRANCH   3  20
ATOM     20  C   UNL     1      -6.126  -0.957  -7.053  0.00  0.00    +0.001 A 
ATOM     21  C   UNL     1      -6.009   0.428  -7.168  0.00  0.00    +0.010 A 
ATOM     22  C   UNL     1      -7.048   1.164  -7.699  0.00  0.00    +0.001 A 
ATOM     23  C   UNL     1      -8.206   0.531  -8.117  0.00  0.00    +0.001 A 
ATOM     24  C   UNL     1      -8.329  -0.842  -8.005  0.00  0.00    +0.020 A 
ATOM     25  C   UNL     1      -7.293  -1.591  -7.481  0.00  0.00    +0.049 A 
ATOM     26 CL   UNL     1      -7.446  -3.315  -7.347  0.00  0.00    -0.083 Cl
ENDBRANCH   3  20
BRANCH   1  27
ATOM     27  O   UNL     1      -3.251  -2.169  -3.321  0.00  0.00    -0.490 OA
BRANCH  27  28
ATOM     28  C   UNL     1      -4.000  -1.215  -2.566  0.00  0.00    +0.247 C 
BRANCH  28  29
ATOM     29  C   UNL     1      -3.465  -1.164  -1.134  0.00  0.00    +0.145 C 
BRANCH  29  32
ATOM     30  C   UNL     1      -1.412  -0.526   0.013  0.00  0.00    +0.201 C 
ATOM     31  O   UNL     1      -1.939  -0.827   1.062  0.00  0.00    -0.277 OA
ATOM     32  N   UNL     1      -2.090  -0.657  -1.144  0.00  0.00    -0.313 N 
ATOM     33  H   UNL     1      -1.669  -0.416  -1.984  0.00  0.00    +0.149 HD
BRANCH  30  35
ATOM     34  C   UNL     1      -0.019   1.526   0.010  0.00  0.00    -0.001 C 
ATOM     35  C   UNL     1       0.002  -0.004   0.002  0.00  0.00    +0.001 C 
ATOM     36  C   UNL     1       0.742  -0.511   1.242  0.00  0.00    -0.001 C 
BRANCH  35  37
ATOM     37  N   UNL     1       0.690  -0.478  -1.207  0.00  0.00    +0.387 N 
ATOM     38  H   UNL     1       1.636  -0.129  -1.214  0.00  0.00    -0.089 HD
ATOM     39  H   UNL     1       0.703  -1.487  -1.212  0.00  0.00    -0.089 HD
ATOM     40  H   UNL     1       0.202  -0.144  -2.024  0.00  0.00    -0.089 HD
ENDBRANCH  35  37
ENDBRANCH  30  35
ENDBRANCH  29  32
ENDBRANCH  28  29
ENDBRANCH  27  28
ENDBRANCH   1  27
TORSDOF 8
