REMARK  Name = CHEMBL519294
REMARK  5 active torsions:
REMARK  status: ('A' for Active; 'I' for Inactive)
REMARK    1  A    between atoms: C_3  and  C_9
REMARK    2  A    between atoms: C_5  and  C_7
REMARK    3  A    between atoms: C_9  and  C_10
REMARK    4  A    between atoms: C_13  and  C_23
REMARK    5  A    between atoms: C_14  and  C_16
REMARK                            x       y       z     vdW  Elec       q    Type
REMARK                         _______ _______ _______ _____ _____    ______ ____
ROOT
ATOM      1  C   UNL     1       4.114   2.458   1.395  0.00  0.00    +0.113 A 
ATOM      2  N   UNL     1       3.393   3.029   2.318  0.00  0.00    -0.230 NA
ATOM      3  H   UNL     1       6.048   1.682   1.437  0.00  0.00    +0.167 HD
ATOM      4  C   UNL     1       4.099   3.094   3.464  0.00  0.00    +0.115 A 
ATOM      5  C   UNL     1       5.336   2.523   3.223  0.00  0.00    +0.076 A 
ATOM      6  N   UNL     1       5.324   2.122   1.910  0.00  0.00    -0.341 N 
ENDROOT
BRANCH   4   7
ATOM      7  C   UNL     1       3.636   3.670   4.745  0.00  0.00    +0.096 A 
ATOM      8  C   UNL     1       2.631   4.645   4.764  0.00  0.00    +0.050 A 
ATOM      9  C   UNL     1       2.231   5.154   5.985  0.00  0.00    +0.116 A 
ATOM     10  N   UNL     1       2.805   4.709   7.093  0.00  0.00    -0.223 NA
ATOM     11  C   UNL     1       3.755   3.786   7.046  0.00  0.00    +0.213 A 
ATOM     12  N   UNL     1       4.165   3.267   5.900  0.00  0.00    -0.213 NA
ATOM     13  N   UNL     1       4.329   3.349   8.227  0.00  0.00    -0.327 N 
ATOM     14  H   UNL     1       4.035   3.719   9.075  0.00  0.00    +0.145 HD
ATOM     15  H   UNL     1       5.025   2.674   8.208  0.00  0.00    +0.145 HD
ENDBRANCH   4   7
BRANCH   5  16
ATOM     16  C   UNL     1       6.446   2.371   4.186  0.00  0.00    +0.001 A 
ATOM     17  C   UNL     1       6.801   3.435   5.019  0.00  0.00    +0.013 A 
ATOM     18  C   UNL     1       7.838   3.287   5.916  0.00  0.00    +0.039 A 
ATOM     19  C   UNL     1       8.526   2.087   5.993  0.00  0.00    +0.123 A 
ATOM     20  C   UNL     1       8.178   1.028   5.169  0.00  0.00    +0.039 A 
ATOM     21  C   UNL     1       7.139   1.162   4.272  0.00  0.00    +0.013 A 
ATOM     22  F   UNL     1       9.541   1.948   6.874  0.00  0.00    -0.205 F 
ENDBRANCH   5  16
BRANCH   1  23
ATOM     23  C   UNL     1       3.671   2.204  -0.023  0.00  0.00    +0.109 C 
BRANCH  23  26
ATOM     24  C   UNL     1      -0.017   1.375   0.010  0.00  0.00    +0.002 A 
ATOM     25  C   UNL     1       1.170   2.086   0.002  0.00  0.00    +0.004 A 
ATOM     26  C   UNL     1       2.383   1.421  -0.013  0.00  0.00    -0.039 A 
ATOM     27  C   UNL     1       2.416   0.041  -0.021  0.00  0.00    +0.023 A 
ATOM     28  C   UNL     1       1.223  -0.682  -0.013  0.00  0.00    +0.052 A 
ATOM     29  C   UNL     1       0.002  -0.004   0.002  0.00  0.00    +0.019 A 
BRANCH  28  30
ATOM     30  C   UNL     1       1.250  -2.114  -0.022  0.00  0.00    +0.099 C 
ATOM     31  N   UNL     1       1.271  -3.250  -0.029  0.00  0.00    -0.191 NA
ENDBRANCH  28  30
ENDBRANCH  23  26
ENDBRANCH   1  23
TORSDOF 5
