REMARK  Name = CHEMBL143207
REMARK  12 active torsions:
REMARK  status: ('A' for Active; 'I' for Inactive)
REMARK    1  A    between atoms: C_1  and  C_2
REMARK    2  A    between atoms: C_5  and  N_8
REMARK    3  A    between atoms: C_9  and  N_17
REMARK    4  A    between atoms: C_11  and  C_13
REMARK    5  A    between atoms: C_13  and  C_14
REMARK    6  A    between atoms: C_13  and  C_15
REMARK    7  A    between atoms: C_13  and  C_16
REMARK    8  A    between atoms: N_20  and  C_21
REMARK    9  A    between atoms: C_24  and  O_31
REMARK   10  A    between atoms: O_31  and  C_32
REMARK   11  A    between atoms: C_32  and  C_33
REMARK   12  A    between atoms: C_33  and  N_34
REMARK                            x       y       z     vdW  Elec       q    Type
REMARK                         _______ _______ _______ _____ _____    ______ ____
ROOT
ATOM      1  N   UNL     1       1.636  -3.871   2.649  0.00  0.00    -0.254 N 
ATOM      2  C   UNL     1       2.193  -4.869   3.364  0.00  0.00    +0.309 C 
ATOM      3  O   UNL     1       2.073  -6.021   2.996  0.00  0.00    -0.252 OA
ATOM      4  N   UNL     1       2.882  -4.588   4.488  0.00  0.00    -0.269 N 
ATOM      5  H   UNL     1       1.732  -2.952   2.942  0.00  0.00    +0.158 HD
ATOM      6  H   UNL     1       3.036  -3.666   4.745  0.00  0.00    +0.156 HD
ENDROOT
BRANCH   4   7
ATOM      7  C   UNL     1       3.375  -5.628   5.284  0.00  0.00    +0.043 A 
ATOM      8  C   UNL     1       3.812  -6.799   4.704  0.00  0.00    +0.027 A 
ATOM      9  C   UNL     1       4.305  -7.840   5.484  0.00  0.00    +0.048 A 
ATOM     10  C   UNL     1       4.370  -7.731   6.844  0.00  0.00    +0.128 A 
ATOM     11  C   UNL     1       3.932  -6.549   7.474  0.00  0.00    +0.026 A 
ATOM     12  C   UNL     1       3.434  -5.483   6.686  0.00  0.00    +0.007 A 
ATOM     13  C   UNL     1       3.003  -4.304   7.315  0.00  0.00    +0.010 A 
ATOM     14  C   UNL     1       3.074  -4.198   8.670  0.00  0.00    +0.001 A 
ATOM     15  C   UNL     1       3.569  -5.245   9.445  0.00  0.00    +0.001 A 
ATOM     16  C   UNL     1       3.985  -6.407   8.871  0.00  0.00    +0.012 A 
BRANCH  10  17
ATOM     17  O   UNL     1       4.854  -8.761   7.588  0.00  0.00    -0.493 OA
BRANCH  17  18
ATOM     18  C   UNL     1       5.279  -9.928   6.881  0.00  0.00    +0.210 C 
BRANCH  18  19
ATOM     19  C   UNL     1       5.788 -10.970   7.878  0.00  0.00    -0.037 C 
BRANCH  19  20
ATOM     20  N   UNL     1       4.683 -11.404   8.742  0.00  0.00    +0.383 N 
ATOM     21  C   UNL     1       5.214 -12.245   9.816  0.00  0.00    -0.068 C 
ATOM     22  C   UNL     1       4.165 -12.400  10.924  0.00  0.00    +0.050 C 
ATOM     23  S   UNL     1       2.709 -13.234  10.220  0.00  0.00    -0.164 S 
ATOM     24  C   UNL     1       2.385 -12.264   8.713  0.00  0.00    +0.050 C 
ATOM     25  C   UNL     1       3.700 -12.130   7.936  0.00  0.00    -0.068 C 
ATOM     26  H   UNL     1       4.242 -10.591   9.148  0.00  0.00    -0.082 HD
ENDBRANCH  19  20
ENDBRANCH  18  19
ENDBRANCH  17  18
ENDBRANCH  10  17
ENDBRANCH   4   7
BRANCH   1  28
ATOM     27  N   UNL     1       0.312  -3.260   0.670  0.00  0.00    -0.218 N 
ATOM     28  C   UNL     1       0.923  -4.162   1.486  0.00  0.00    +0.130 A 
ATOM     29  C   UNL     1       0.711  -5.398   0.959  0.00  0.00    +0.069 A 
ATOM     30  C   UNL     1      -0.048  -5.244  -0.205  0.00  0.00    +0.071 A 
ATOM     31  N   UNL     1      -0.291  -3.970  -0.376  0.00  0.00    -0.169 NA
BRANCH  27  36
ATOM     32  C   UNL     1       0.204   2.369   1.390  0.00  0.00    +0.044 C 
ATOM     33  C   UNL     1       0.233   0.874   1.199  0.00  0.00    -0.050 A 
ATOM     34  C   UNL     1       0.286   0.342  -0.077  0.00  0.00    +0.005 A 
ATOM     35  C   UNL     1       0.312  -1.027  -0.255  0.00  0.00    +0.028 A 
ATOM     36  C   UNL     1       0.286  -1.870   0.848  0.00  0.00    +0.067 A 
ATOM     37  C   UNL     1       0.233  -1.333   2.127  0.00  0.00    +0.028 A 
ATOM     38  C   UNL     1       0.212   0.037   2.299  0.00  0.00    +0.005 A 
ENDBRANCH  27  36
BRANCH  30  39
ATOM     39  C   UNL     1      -0.512  -6.358  -1.108  0.00  0.00    +0.006 C 
ATOM     40  C   UNL     1      -1.672  -7.102  -0.444  0.00  0.00    +0.017 C 
ATOM     41  C   UNL     1      -0.978  -5.773  -2.442  0.00  0.00    +0.017 C 
ATOM     42  C   UNL     1       0.644  -7.331  -1.353  0.00  0.00    +0.017 C 
ENDBRANCH  30  39
ENDBRANCH   1  28
TORSDOF 8
