REMARK  Name = CHEMBL348228
REMARK  9 active torsions:
REMARK  status: ('A' for Active; 'I' for Inactive)
REMARK    1  A    between atoms: C_1  and  C_2
REMARK    2  A    between atoms: C_2  and  C_8
REMARK    3  A    between atoms: C_10  and  N_19
REMARK    4  A    between atoms: N_11  and  C_13
REMARK    5  A    between atoms: N_22  and  C_23
REMARK    6  A    between atoms: C_26  and  O_33
REMARK    7  A    between atoms: O_33  and  C_34
REMARK    8  A    between atoms: C_34  and  C_35
REMARK    9  A    between atoms: C_35  and  N_36
REMARK                            x       y       z     vdW  Elec       q    Type
REMARK                         _______ _______ _______ _____ _____    ______ ____
ROOT
ATOM      1  N   UNL     1      -5.700  -0.692  -0.956  0.00  0.00    -0.254 N 
ATOM      2  C   UNL     1      -5.788   0.255  -1.912  0.00  0.00    +0.309 C 
ATOM      3  O   UNL     1      -4.788   0.839  -2.282  0.00  0.00    -0.252 OA
ATOM      4  N   UNL     1      -6.984   0.553  -2.456  0.00  0.00    -0.269 N 
ATOM      5  H   UNL     1      -6.498  -1.158  -0.661  0.00  0.00    +0.158 HD
ATOM      6  H   UNL     1      -7.770   0.041  -2.211  0.00  0.00    +0.156 HD
ENDROOT
BRANCH   4   7
ATOM      7  C   UNL     1      -7.091   1.601  -3.377  0.00  0.00    +0.043 A 
ATOM      8  C   UNL     1      -6.059   1.867  -4.249  0.00  0.00    +0.027 A 
ATOM      9  C   UNL     1      -6.153   2.906  -5.170  0.00  0.00    +0.048 A 
ATOM     10  C   UNL     1      -7.269   3.691  -5.234  0.00  0.00    +0.128 A 
ATOM     11  C   UNL     1      -8.346   3.450  -4.358  0.00  0.00    +0.026 A 
ATOM     12  C   UNL     1      -8.260   2.390  -3.422  0.00  0.00    +0.007 A 
ATOM     13  C   UNL     1      -9.336   2.148  -2.553  0.00  0.00    +0.010 A 
ATOM     14  C   UNL     1     -10.448   2.930  -2.624  0.00  0.00    +0.001 A 
ATOM     15  C   UNL     1     -10.536   3.969  -3.549  0.00  0.00    +0.001 A 
ATOM     16  C   UNL     1      -9.508   4.239  -4.399  0.00  0.00    +0.012 A 
BRANCH  10  17
ATOM     17  O   UNL     1      -7.341   4.702  -6.140  0.00  0.00    -0.493 OA
BRANCH  17  18
ATOM     18  C   UNL     1      -6.211   4.887  -6.995  0.00  0.00    +0.210 C 
BRANCH  18  19
ATOM     19  C   UNL     1      -6.474   6.062  -7.939  0.00  0.00    -0.037 C 
BRANCH  19  20
ATOM     20  N   UNL     1      -6.614   7.297  -7.157  0.00  0.00    +0.385 N 
ATOM     21  C   UNL     1      -7.009   8.399  -8.047  0.00  0.00    -0.050 C 
ATOM     22  C   UNL     1      -7.154   9.684  -7.229  0.00  0.00    +0.141 C 
ATOM     23  O   UNL     1      -5.919   9.963  -6.565  0.00  0.00    -0.383 OA
ATOM     24  C   UNL     1      -5.480   8.908  -5.704  0.00  0.00    +0.141 C 
ATOM     25  C   UNL     1      -5.331   7.621  -6.518  0.00  0.00    -0.050 C 
ATOM     26  H   UNL     1      -7.320   7.168  -6.448  0.00  0.00    -0.081 HD
ENDBRANCH  19  20
ENDBRANCH  18  19
ENDBRANCH  17  18
ENDBRANCH  10  17
ENDBRANCH   4   7
BRANCH   1  29
ATOM     27  C   UNL     1      -2.284  -1.025   0.086  0.00  0.00    +0.071 A 
ATOM     28  C   UNL     1      -3.268  -0.430  -0.709  0.00  0.00    +0.069 A 
ATOM     29  C   UNL     1      -4.463  -1.001  -0.392  0.00  0.00    +0.130 A 
ATOM     30  N   UNL     1      -4.228  -1.929   0.575  0.00  0.00    -0.218 N 
ATOM     31  N   UNL     1      -2.854  -1.923   0.848  0.00  0.00    -0.169 NA
BRANCH  27  33
ATOM     32  C   UNL     1      -0.635   0.827   0.055  0.00  0.00    +0.018 C 
ATOM     33  C   UNL     1      -0.815  -0.692   0.064  0.00  0.00    +0.012 C 
ATOM     34  C   UNL     1      -0.176  -1.288  -1.192  0.00  0.00    +0.013 C 
ATOM     35  C   UNL     1       1.316  -0.951  -1.215  0.00  0.00    +0.001 C 
ATOM     36  C   UNL     1       1.990  -1.537   0.028  0.00  0.00    +0.000 C 
ATOM     37  C   UNL     1       1.352  -0.941   1.284  0.00  0.00    +0.001 C 
ATOM     38  C   UNL     1      -0.141  -1.278   1.306  0.00  0.00    +0.013 C 
ENDBRANCH  27  33
BRANCH  30  39
ATOM     39  C   UNL     1      -5.188  -2.748   1.185  0.00  0.00    +0.067 A 
ATOM     40  C   UNL     1      -6.470  -2.265   1.413  0.00  0.00    +0.028 A 
ATOM     41  C   UNL     1      -7.414  -3.075   2.015  0.00  0.00    +0.002 A 
ATOM     42  C   UNL     1      -7.083  -4.364   2.390  0.00  0.00    +0.000 A 
ATOM     43  C   UNL     1      -5.807  -4.847   2.163  0.00  0.00    +0.002 A 
ATOM     44  C   UNL     1      -4.861  -4.045   1.557  0.00  0.00    +0.028 A 
ENDBRANCH  30  39
ENDBRANCH   1  29
TORSDOF 8
