REMARK  Name = CHEMBL254169
REMARK  8 active torsions:
REMARK  status: ('A' for Active; 'I' for Inactive)
REMARK    1  A    between atoms: C_1  and  C_2
REMARK    2  A    between atoms: C_2  and  N_3
REMARK    3  A    between atoms: C_4  and  C_6
REMARK    4  A    between atoms: C_9  and  C_25
REMARK    5  A    between atoms: C_10  and  N_12
REMARK    6  A    between atoms: N_19  and  C_20
REMARK    7  A    between atoms: C_20  and  C_21
REMARK    8  A    between atoms: C_20  and  C_22
REMARK                            x       y       z     vdW  Elec       q    Type
REMARK                         _______ _______ _______ _____ _____    ______ ____
ROOT
ATOM      1  N   UNL     1       2.452  -5.453  -4.260  0.00  0.00    -0.261 N 
ATOM      2  C   UNL     1       3.570  -6.291  -3.817  0.00  0.00    +0.170 C 
ATOM      3  C   UNL     1       3.277  -7.698  -4.314  0.00  0.00    +0.080 A 
ATOM      4  C   UNL     1       2.065  -7.589  -4.982  0.00  0.00    +0.100 A 
ATOM      5  S   UNL     1       1.796  -9.258  -5.526  0.00  0.00    -0.047 S 
ATOM      6  C   UNL     1       3.197  -9.936  -4.884  0.00  0.00    +0.159 A 
ATOM      7  N   UNL     1       3.796  -8.914  -4.303  0.00  0.00    -0.228 NA
ATOM      8  N   UNL     1       3.619 -11.247  -4.950  0.00  0.00    -0.321 N 
ATOM      9  C   UNL     1       1.583  -6.231  -4.932  0.00  0.00    +0.260 C 
ATOM     10  O   UNL     1       0.542  -5.842  -5.430  0.00  0.00    -0.269 OA
ATOM     11  H   UNL     1       4.455 -11.509  -4.533  0.00  0.00    +0.148 HD
ENDROOT
BRANCH   1  16
ATOM     12  C   UNL     1       1.519  -2.276  -2.642  0.00  0.00    +0.038 A 
ATOM     13  C   UNL     1       2.034  -1.358  -3.559  0.00  0.00    +0.013 A 
ATOM     14  C   UNL     1       2.679  -1.806  -4.694  0.00  0.00    +0.006 A 
ATOM     15  C   UNL     1       2.818  -3.161  -4.927  0.00  0.00    -0.029 A 
ATOM     16  C   UNL     1       2.309  -4.082  -4.019  0.00  0.00    +0.041 A 
ATOM     17  C   UNL     1       1.664  -3.643  -2.873  0.00  0.00    +0.036 A 
ATOM     18  C   UNL     1       3.524  -3.642  -6.168  0.00  0.00    +0.045 C 
BRANCH  12  20
ATOM     19  N   UNL     1       0.688  -0.476  -1.203  0.00  0.00    -0.312 N 
ATOM     20  C   UNL     1       0.827  -1.799  -1.425  0.00  0.00    +0.244 C 
ATOM     21  O   UNL     1       0.383  -2.599  -0.625  0.00  0.00    -0.270 OA
ATOM     22  H   UNL     1       1.042   0.162  -1.842  0.00  0.00    +0.149 HD
BRANCH  19  24
ATOM     23  C   UNL     1      -0.019   1.526   0.010  0.00  0.00    +0.024 C 
ATOM     24  C   UNL     1       0.002  -0.004   0.002  0.00  0.00    +0.101 C 
ENDBRANCH  19  24
ENDBRANCH  12  20
ENDBRANCH   1  16
BRANCH   8  25
ATOM     25  C   UNL     1       2.804 -12.244  -5.649  0.00  0.00    +0.066 C 
ATOM     26  C   UNL     1       3.698 -13.392  -6.122  0.00  0.00    +0.027 C 
ATOM     27  C   UNL     1       1.737 -12.788  -4.697  0.00  0.00    +0.027 C 
ENDBRANCH   8  25
TORSDOF 4
