REMARK  Name = CHEMBL378919
REMARK  5 active torsions:
REMARK  status: ('A' for Active; 'I' for Inactive)
REMARK    1  A    between atoms: C_1  and  O_2
REMARK    2  A    between atoms: O_2  and  C_3
REMARK    3  A    between atoms: C_8  and  C_9
REMARK    4  A    between atoms: C_15  and  C_18
REMARK    5  A    between atoms: C_19  and  C_23
REMARK                            x       y       z     vdW  Elec       q    Type
REMARK                         _______ _______ _______ _____ _____    ______ ____
ROOT
ATOM      1  C   UNL     1       0.246  -2.698  -0.348  0.00  0.00    +0.172 A 
ATOM      2  N   UNL     1      -0.347  -2.176   0.707  0.00  0.00    -0.128 NA
ATOM      3  N   UNL     1      -0.887  -3.103   1.417  0.00  0.00    -0.129 NA
ATOM      4  C   UNL     1      -0.669  -4.282   0.854  0.00  0.00    +0.161 A 
ATOM      5  N   UNL     1       0.056  -4.053  -0.290  0.00  0.00    -0.282 N 
ATOM      6  C   UNL     1       0.431  -5.087  -1.093  0.00  0.00    +0.106 A 
ATOM      7  C   UNL     1       0.087  -6.368  -0.773  0.00  0.00    +0.036 A 
ATOM      8  C   UNL     1      -0.663  -6.629   0.401  0.00  0.00    +0.017 A 
ATOM      9  C   UNL     1      -1.030  -5.598   1.205  0.00  0.00    +0.049 A 
ENDROOT
BRANCH   1  15
ATOM     10  C   UNL     1       1.911  -0.978  -1.049  0.00  0.00    +0.131 A 
ATOM     11  C   UNL     1       2.593  -0.294  -2.042  0.00  0.00    +0.046 A 
ATOM     12  C   UNL     1       2.347  -0.577  -3.372  0.00  0.00    +0.004 A 
ATOM     13  C   UNL     1       1.418  -1.542  -3.722  0.00  0.00    +0.001 A 
ATOM     14  C   UNL     1       0.730  -2.231  -2.746  0.00  0.00    +0.015 A 
ATOM     15  C   UNL     1       0.975  -1.959  -1.399  0.00  0.00    +0.061 A 
BRANCH  10  17
ATOM     16  C   UNL     1       3.120   0.313   0.540  0.00  0.00    +0.277 C 
ATOM     17  O   UNL     1       2.152  -0.701   0.259  0.00  0.00    -0.494 OA
ENDBRANCH  10  17
ENDBRANCH   1  15
BRANCH   7  18
ATOM     18  C   UNL     1       0.496  -7.483  -1.650  0.00  0.00    +0.164 A 
ATOM     19  C   UNL     1      -0.335  -8.384  -2.283  0.00  0.00    +0.117 A 
ATOM     20  N   UNL     1       0.455  -9.229  -2.978  0.00  0.00    -0.216 NA
ATOM     21  C   UNL     1       1.698  -8.889  -2.800  0.00  0.00    +0.309 A 
ATOM     22  O   UNL     1       1.759  -7.818  -1.995  0.00  0.00    -0.442 OA
BRANCH  19  23
ATOM     23  C   UNL     1      -1.814  -8.418  -2.211  0.00  0.00    +0.004 A 
ATOM     24  C   UNL     1      -2.545  -7.231  -2.258  0.00  0.00    +0.013 A 
ATOM     25  C   UNL     1      -3.922  -7.268  -2.191  0.00  0.00    +0.039 A 
ATOM     26  C   UNL     1      -4.580  -8.482  -2.077  0.00  0.00    +0.123 A 
ATOM     27  C   UNL     1      -3.859  -9.664  -2.030  0.00  0.00    +0.039 A 
ATOM     28  C   UNL     1      -2.482  -9.638  -2.103  0.00  0.00    +0.013 A 
ATOM     29  F   UNL     1      -5.929  -8.513  -2.011  0.00  0.00    -0.205 F 
ENDBRANCH  19  23
ENDBRANCH   7  18
TORSDOF 4
