REMARK  Name = CHEMBL562451
REMARK  9 active torsions:
REMARK  status: ('A' for Active; 'I' for Inactive)
REMARK    1  A    between atoms: C_1  and  C_2
REMARK    2  A    between atoms: C_4  and  O_26
REMARK    3  A    between atoms: C_7  and  C_8
REMARK    4  A    between atoms: C_9  and  N_25
REMARK    5  A    between atoms: C_10  and  C_15
REMARK    6  A    between atoms: C_15  and  C_17
REMARK    7  A    between atoms: O_26  and  C_27
REMARK    8  A    between atoms: C_27  and  C_28
REMARK    9  A    between atoms: C_28  and  N_29
REMARK                            x       y       z     vdW  Elec       q    Type
REMARK                         _______ _______ _______ _____ _____    ______ ____
ROOT
ATOM      1  C   UNL     1       0.371  -0.059   3.139  0.00  0.00    +0.113 A 
ATOM      2  C   UNL     1      -0.737   0.266   3.933  0.00  0.00    +0.063 A 
ATOM      3  C   UNL     1      -0.527   0.980   5.126  0.00  0.00    +0.047 A 
ATOM      4  C   UNL     1       0.788   1.332   5.463  0.00  0.00    +0.035 A 
ATOM      5  C   UNL     1       1.819   0.971   4.623  0.00  0.00    +0.135 A 
ATOM      6  N   UNL     1       1.593   0.296   3.511  0.00  0.00    -0.137 N 
ATOM      7  O   UNL     1       2.690  -0.055   2.687  0.00  0.00    -0.164 OA
ENDROOT
BRANCH   1  14
ATOM      8  C   UNL     1      -0.064   1.380   0.670  0.00  0.00    +0.044 C 
ATOM      9  C   UNL     1      -0.034  -0.127   0.681  0.00  0.00    -0.038 A 
ATOM     10  C   UNL     1      -0.210  -0.829  -0.492  0.00  0.00    +0.049 A 
ATOM     11  C   UNL     1      -0.183  -2.217  -0.482  0.00  0.00    +0.121 A 
ATOM     12  C   UNL     1       0.022  -2.902   0.708  0.00  0.00    +0.046 A 
ATOM     13  C   UNL     1       0.198  -2.206   1.885  0.00  0.00    +0.014 A 
ATOM     14  C   UNL     1       0.177  -0.811   1.877  0.00  0.00    +0.007 A 
BRANCH  11  15
ATOM     15  O   UNL     1      -0.357  -2.907  -1.640  0.00  0.00    -0.494 OA
BRANCH  15  16
ATOM     16  C   UNL     1      -0.318  -4.333  -1.558  0.00  0.00    +0.210 C 
BRANCH  16  17
ATOM     17  C   UNL     1      -0.531  -4.930  -2.950  0.00  0.00    -0.037 C 
BRANCH  17  18
ATOM     18  N   UNL     1       0.572  -4.526  -3.831  0.00  0.00    +0.385 N 
ATOM     19  C   UNL     1       0.294  -4.975  -5.203  0.00  0.00    -0.050 C 
ATOM     20  C   UNL     1       1.446  -4.553  -6.119  0.00  0.00    +0.141 C 
ATOM     21  O   UNL     1       2.669  -5.103  -5.623  0.00  0.00    -0.383 OA
ATOM     22  C   UNL     1       2.972  -4.714  -4.281  0.00  0.00    +0.141 C 
ATOM     23  C   UNL     1       1.823  -5.136  -3.361  0.00  0.00    -0.050 C 
ATOM     24  H   UNL     1       0.663  -3.521  -3.818  0.00  0.00    -0.081 HD
ENDBRANCH  17  18
ENDBRANCH  16  17
ENDBRANCH  15  16
ENDBRANCH  11  15
ENDBRANCH   1  14
BRANCH   2  25
ATOM     25  N   UNL     1      -2.016  -0.108   3.549  0.00  0.00    -0.356 N 
ATOM     26  H   UNL     1      -2.159  -0.535   2.690  0.00  0.00    +0.142 HD
ATOM     27  H   UNL     1      -2.768   0.057   4.139  0.00  0.00    +0.142 HD
ENDBRANCH   2  25
BRANCH   3  28
ATOM     28  C   UNL     1      -1.658   1.349   5.998  0.00  0.00    +0.198 C 
ATOM     29  O   UNL     1      -2.061   2.496   6.020  0.00  0.00    -0.286 OA
BRANCH  28  30
ATOM     30  C   UNL     1      -2.301   0.326   6.844  0.00  0.00    +0.058 A 
ATOM     31  C   UNL     1      -1.772  -0.967   6.907  0.00  0.00    +0.017 A 
ATOM     32  C   UNL     1      -2.376  -1.918   7.699  0.00  0.00    +0.039 A 
ATOM     33  C   UNL     1      -3.509  -1.597   8.434  0.00  0.00    +0.126 A 
ATOM     34  C   UNL     1      -4.040  -0.320   8.377  0.00  0.00    +0.077 A 
ATOM     35  C   UNL     1      -3.440   0.646   7.592  0.00  0.00    +0.137 A 
ATOM     36  F   UNL     1      -3.955   1.894   7.541  0.00  0.00    -0.205 F 
ATOM     37  F   UNL     1      -4.096  -2.536   9.208  0.00  0.00    -0.205 F 
ENDBRANCH  28  30
ENDBRANCH   3  28
TORSDOF 8
