REMARK  Name = CHEMBL13850
REMARK  7 active torsions:
REMARK  status: ('A' for Active; 'I' for Inactive)
REMARK    1  A    between atoms: C_1  and  C_2
REMARK    2  A    between atoms: C_5  and  O_9
REMARK    3  A    between atoms: C_6  and  C_8
REMARK    4  A    between atoms: O_9  and  C_10
REMARK    5  A    between atoms: C_14  and  C_16
REMARK    6  A    between atoms: C_17  and  C_27
REMARK    7  A    between atoms: N_20  and  C_21
REMARK                            x       y       z     vdW  Elec       q    Type
REMARK                         _______ _______ _______ _____ _____    ______ ____
ROOT
ATOM      1  C   UNL     1      -0.315  -8.201  -2.442  0.00  0.00    +0.095 A 
ATOM      2  C   UNL     1       0.039  -9.079  -1.431  0.00  0.00    +0.098 A 
ATOM      3  N   UNL     1      -0.249 -10.320  -1.860  0.00  0.00    -0.235 NA
ATOM      4  C   UNL     1      -0.754 -10.262  -3.061  0.00  0.00    +0.200 A 
ATOM      5  N   UNL     1      -0.821  -8.976  -3.462  0.00  0.00    -0.325 N 
ENDROOT
BRANCH   5   6
ATOM      6  C   UNL     1      -1.333  -8.493  -4.747  0.00  0.00    +0.085 C 
ATOM      7  C   UNL     1      -2.742  -9.047  -4.977  0.00  0.00    +0.006 C 
ATOM      8  C   UNL     1      -3.239  -8.604  -6.355  0.00  0.00    -0.081 C 
ATOM      9  N   UNL     1      -2.336  -9.115  -7.393  0.00  0.00    +0.379 N 
ATOM     10  C   UNL     1      -1.000  -8.532  -7.221  0.00  0.00    -0.081 C 
ATOM     11  C   UNL     1      -0.416  -8.972  -5.876  0.00  0.00    +0.006 C 
ATOM     12  H   UNL     1      -2.275 -10.119  -7.320  0.00  0.00    -0.086 HD
ATOM     13  H   UNL     1      -2.695  -8.866  -8.302  0.00  0.00    -0.086 HD
ENDBRANCH   5   6
BRANCH   2  14
ATOM     14  C   UNL     1       0.627  -8.717  -0.120  0.00  0.00    +0.003 A 
ATOM     15  C   UNL     1       1.510  -7.642  -0.022  0.00  0.00    +0.013 A 
ATOM     16  C   UNL     1       2.055  -7.309   1.200  0.00  0.00    +0.039 A 
ATOM     17  C   UNL     1       1.726  -8.041   2.330  0.00  0.00    +0.123 A 
ATOM     18  C   UNL     1       0.849  -9.110   2.238  0.00  0.00    +0.039 A 
ATOM     19  C   UNL     1       0.294  -9.447   1.021  0.00  0.00    +0.013 A 
ATOM     20  F   UNL     1       2.262  -7.711   3.526  0.00  0.00    -0.205 F 
ENDBRANCH   2  14
BRANCH   1  25
ATOM     21  C   UNL     1      -0.128  -4.742  -1.263  0.00  0.00    +0.324 A 
ATOM     22  N   UNL     1       0.057  -4.047  -2.374  0.00  0.00    -0.203 NA
ATOM     23  C   UNL     1       0.130  -4.648  -3.553  0.00  0.00    +0.118 A 
ATOM     24  C   UNL     1       0.012  -6.023  -3.619  0.00  0.00    +0.050 A 
ATOM     25  C   UNL     1      -0.183  -6.733  -2.426  0.00  0.00    +0.096 A 
ATOM     26  N   UNL     1      -0.241  -6.059  -1.276  0.00  0.00    -0.193 NA
BRANCH  21  27
ATOM     27  O   UNL     1      -0.196  -4.087  -0.079  0.00  0.00    -0.423 OA
BRANCH  27  32
ATOM     28  C   UNL     1      -0.132   1.545  -0.164  0.00  0.00    +0.044 C 
ATOM     29  C   UNL     1      -0.149   0.038  -0.142  0.00  0.00    -0.050 A 
ATOM     30  C   UNL     1      -1.355  -0.638  -0.110  0.00  0.00    +0.007 A 
ATOM     31  C   UNL     1      -1.373  -2.019  -0.088  0.00  0.00    +0.047 A 
ATOM     32  C   UNL     1      -0.181  -2.728  -0.100  0.00  0.00    +0.135 A 
ATOM     33  C   UNL     1       1.028  -2.047  -0.133  0.00  0.00    -0.008 A 
ATOM     34  C   UNL     1       1.040  -0.666  -0.159  0.00  0.00    +0.010 A 
ATOM     35  C   UNL     1       2.325  -2.814  -0.146  0.00  0.00    +0.047 C 
ENDBRANCH  27  32
ENDBRANCH  21  27
ENDBRANCH   1  25
TORSDOF 5
