REMARK  Name = CHEMBL119952
REMARK  6 active torsions:
REMARK  status: ('A' for Active; 'I' for Inactive)
REMARK    1  A    between atoms: C_1  and  C_2
REMARK    2  A    between atoms: C_2  and  C_4
REMARK    3  A    between atoms: C_2  and  N_10
REMARK    4  A    between atoms: C_15  and  N_17
REMARK    5  A    between atoms: C_25  and  C_26
REMARK    6  A    between atoms: N_36  and  C_39
REMARK                            x       y       z     vdW  Elec       q    Type
REMARK                         _______ _______ _______ _____ _____    ______ ____
ROOT
ATOM      1  N   UNL     1      -5.256  -1.898  -2.265  0.00  0.00    -0.275 N 
ATOM      2  C   UNL     1      -5.962  -2.288  -1.139  0.00  0.00    +0.094 A 
ATOM      3  C   UNL     1      -5.611  -2.541   0.182  0.00  0.00    +0.033 A 
ATOM      4  C   UNL     1      -6.605  -2.923   1.063  0.00  0.00    +0.046 A 
ATOM      5  C   UNL     1      -7.917  -3.042   0.606  0.00  0.00    +0.124 A 
ATOM      6  N   UNL     1      -8.228  -2.797  -0.654  0.00  0.00    -0.211 NA
ATOM      7  C   UNL     1      -7.302  -2.426  -1.540  0.00  0.00    +0.181 A 
ATOM      8  N   UNL     1      -7.357  -2.124  -2.854  0.00  0.00    -0.208 NA
ATOM      9  C   UNL     1      -6.162  -1.806  -3.291  0.00  0.00    +0.149 A 
ATOM     10  N   UNL     1      -8.917  -3.427   1.493  0.00  0.00    -0.313 N 
ATOM     11  C   UNL     1     -10.256  -3.793   1.008  0.00  0.00    +0.122 C 
ATOM     12  C   UNL     1     -10.637  -5.151   1.608  0.00  0.00    +0.103 C 
ATOM     13  N   UNL     1     -10.499  -5.093   3.069  0.00  0.00    -0.302 NA
ATOM     14  C   UNL     1      -9.106  -4.849   3.464  0.00  0.00    +0.103 C 
ATOM     15  C   UNL     1      -8.661  -3.484   2.940  0.00  0.00    +0.122 C 
ATOM     16  C   UNL     1     -11.018  -6.317   3.695  0.00  0.00    +0.105 C 
ENDROOT
BRANCH   1  22
ATOM     17  N   UNL     1      -1.078  -2.696  -4.256  0.00  0.00    -0.307 N 
ATOM     18  C   UNL     1      -1.835  -2.027  -3.310  0.00  0.00    +0.217 A 
ATOM     19  N   UNL     1      -1.242  -1.161  -2.501  0.00  0.00    -0.223 NA
ATOM     20  C   UNL     1      -1.933  -0.503  -1.585  0.00  0.00    +0.118 A 
ATOM     21  C   UNL     1      -3.294  -0.725  -1.475  0.00  0.00    +0.066 A 
ATOM     22  C   UNL     1      -3.890  -1.642  -2.340  0.00  0.00    +0.145 A 
ATOM     23  N   UNL     1      -3.136  -2.264  -3.240  0.00  0.00    -0.197 NA
ATOM     24  H   UNL     1      -1.501  -3.329  -4.857  0.00  0.00    +0.149 HD
BRANCH  17  26
ATOM     25  C   UNL     1       1.100  -3.335  -3.345  0.00  0.00    +0.033 C 
ATOM     26  C   UNL     1       0.363  -2.447  -4.350  0.00  0.00    +0.100 C 
BRANCH  26  27
ATOM     27  C   UNL     1       0.838  -2.764  -5.744  0.00  0.00    -0.027 A 
ATOM     28  C   UNL     1       0.336  -3.866  -6.411  0.00  0.00    +0.005 A 
ATOM     29  C   UNL     1       0.772  -4.158  -7.690  0.00  0.00    +0.000 A 
ATOM     30  C   UNL     1       1.709  -3.347  -8.303  0.00  0.00    +0.000 A 
ATOM     31  C   UNL     1       2.210  -2.244  -7.636  0.00  0.00    +0.000 A 
ATOM     32  C   UNL     1       1.771  -1.950  -6.359  0.00  0.00    +0.005 A 
ENDBRANCH  26  27
ENDBRANCH  17  26
ENDBRANCH   1  22
BRANCH   9  33
ATOM     33  C   UNL     1      -5.840  -1.412  -4.678  0.00  0.00    +0.018 A 
ATOM     34  C   UNL     1      -4.659  -0.720  -4.954  0.00  0.00    +0.014 A 
ATOM     35  C   UNL     1      -4.363  -0.355  -6.250  0.00  0.00    +0.039 A 
ATOM     36  C   UNL     1      -5.236  -0.674  -7.279  0.00  0.00    +0.123 A 
ATOM     37  C   UNL     1      -6.409  -1.361  -7.011  0.00  0.00    +0.039 A 
ATOM     38  C   UNL     1      -6.712  -1.737  -5.719  0.00  0.00    +0.014 A 
ATOM     39  F   UNL     1      -4.941  -0.314  -8.547  0.00  0.00    -0.205 F 
ENDBRANCH   9  33
TORSDOF 4
