REMARK  Name = CHEMBL494871
REMARK  5 active torsions:
REMARK  status: ('A' for Active; 'I' for Inactive)
REMARK    1  A    between atoms: C_1  and  S_2
REMARK    2  A    between atoms: S_2  and  C_3
REMARK    3  A    between atoms: C_6  and  C_16
REMARK    4  A    between atoms: C_7  and  C_9
REMARK    5  A    between atoms: N_22  and  C_23
REMARK                            x       y       z     vdW  Elec       q    Type
REMARK                         _______ _______ _______ _____ _____    ______ ____
ROOT
ATOM      1  C   UNL     1      -5.923   0.294  -2.353  0.00  0.00    +0.005 A 
ATOM      2  C   UNL     1      -7.101   0.331  -1.589  0.00  0.00    +0.027 A 
ATOM      3  C   UNL     1      -8.315   0.191  -2.223  0.00  0.00    +0.085 A 
ATOM      4  N   UNL     1      -8.385   0.024  -3.531  0.00  0.00    -0.350 N 
ATOM      5  C   UNL     1      -7.301  -0.017  -4.293  0.00  0.00    +0.097 A 
ATOM      6  C   UNL     1      -6.038   0.121  -3.737  0.00  0.00    +0.051 A 
ATOM      7  N   UNL     1      -7.432  -0.197  -5.666  0.00  0.00    -0.324 N 
ATOM      8  H   UNL     1      -8.313  -0.290  -6.061  0.00  0.00    +0.148 HD
ATOM      9  H   UNL     1      -9.256  -0.072  -3.947  0.00  0.00    +0.166 HD
ENDROOT
BRANCH   7  10
ATOM     10  C   UNL     1      -6.240  -0.243  -6.516  0.00  0.00    +0.102 C 
ATOM     11  C   UNL     1      -6.607   0.107  -7.973  0.00  0.00    +0.032 C 
ATOM     12  C   UNL     1      -6.881  -1.281  -8.589  0.00  0.00    +0.037 C 
ATOM     13  C   UNL     1      -6.059  -2.249  -7.765  0.00  0.00    -0.042 A 
ATOM     14  C   UNL     1      -5.691  -1.653  -6.573  0.00  0.00    -0.024 A 
ATOM     15  C   UNL     1      -4.930  -2.358  -5.656  0.00  0.00    +0.006 A 
ATOM     16  C   UNL     1      -4.538  -3.654  -5.928  0.00  0.00    +0.000 A 
ATOM     17  C   UNL     1      -4.907  -4.251  -7.119  0.00  0.00    +0.000 A 
ATOM     18  C   UNL     1      -5.666  -3.549  -8.036  0.00  0.00    +0.004 A 
ENDBRANCH   7  10
BRANCH   1  22
ATOM     19  C   UNL     1      -2.543   1.087  -1.250  0.00  0.00    +0.167 A 
ATOM     20  N   UNL     1      -3.571   1.268  -2.123  0.00  0.00    -0.332 N 
ATOM     21  H   UNL     1      -3.579   1.865  -2.887  0.00  0.00    +0.168 HD
ATOM     22  C   UNL     1      -4.603   0.441  -1.715  0.00  0.00    +0.075 A 
ATOM     23  C   UNL     1      -4.148  -0.221  -0.590  0.00  0.00    +0.098 A 
ATOM     24  N   UNL     1      -2.892   0.199  -0.348  0.00  0.00    -0.221 NA
BRANCH  23  25
ATOM     25  C   UNL     1      -4.904  -1.217   0.204  0.00  0.00    +0.003 A 
ATOM     26  C   UNL     1      -5.652  -2.203  -0.440  0.00  0.00    +0.013 A 
ATOM     27  C   UNL     1      -6.355  -3.128   0.304  0.00  0.00    +0.039 A 
ATOM     28  C   UNL     1      -6.319  -3.078   1.688  0.00  0.00    +0.123 A 
ATOM     29  C   UNL     1      -5.578  -2.100   2.332  0.00  0.00    +0.039 A 
ATOM     30  C   UNL     1      -4.867  -1.175   1.597  0.00  0.00    +0.013 A 
ATOM     31  F   UNL     1      -7.010  -3.986   2.412  0.00  0.00    -0.205 F 
ENDBRANCH  23  25
BRANCH  19  33
ATOM     32  C   UNL     1      -0.068   1.236   0.090  0.00  0.00    +0.093 C 
ATOM     33  S   UNL     1      -0.985   1.908  -1.323  0.00  0.00    -0.091 S 
ENDBRANCH  19  33
ENDBRANCH   1  22
TORSDOF 4
