REMARK  Name = CHEMBL521637
REMARK  9 active torsions:
REMARK  status: ('A' for Active; 'I' for Inactive)
REMARK    1  A    between atoms: C_1  and  C_2
REMARK    2  A    between atoms: C_2  and  C_3
REMARK    3  A    between atoms: C_2  and  N_4
REMARK    4  A    between atoms: C_7  and  C_11
REMARK    5  A    between atoms: C_12  and  C_21
REMARK    6  A    between atoms: C_14  and  S_17
REMARK    7  A    between atoms: S_17  and  C_18
REMARK    8  A    between atoms: C_18  and  C_19
REMARK    9  A    between atoms: C_19  and  O_20
REMARK                            x       y       z     vdW  Elec       q    Type
REMARK                         _______ _______ _______ _____ _____    ______ ____
ROOT
ATOM      1  C   UNL     1      -1.571  -0.098  -4.867  0.00  0.00    +0.075 A 
ATOM      2  C   UNL     1      -1.624  -0.836  -6.034  0.00  0.00    +0.098 A 
ATOM      3  N   UNL     1      -0.943  -0.160  -6.978  0.00  0.00    -0.221 NA
ATOM      4  C   UNL     1      -0.470   0.954  -6.468  0.00  0.00    +0.167 A 
ATOM      5  N   UNL     1      -0.839   1.040  -5.160  0.00  0.00    -0.332 N 
ATOM      6  H   UNL     1      -0.626   1.762  -4.548  0.00  0.00    +0.168 HD
ENDROOT
BRANCH   1  10
ATOM      7  N   UNL     1      -1.372  -0.511   0.012  0.00  0.00    -0.328 N 
ATOM      8  C   UNL     1      -2.072  -0.647  -1.181  0.00  0.00    +0.097 A 
ATOM      9  C   UNL     1      -1.460  -0.305  -2.378  0.00  0.00    +0.051 A 
ATOM     10  C   UNL     1      -2.178  -0.448  -3.571  0.00  0.00    +0.005 A 
ATOM     11  C   UNL     1      -3.494  -0.933  -3.498  0.00  0.00    +0.027 A 
ATOM     12  C   UNL     1      -4.025  -1.249  -2.269  0.00  0.00    +0.085 A 
ATOM     13  N   UNL     1      -3.316  -1.106  -1.163  0.00  0.00    -0.350 N 
ATOM     14  H   UNL     1      -1.794  -0.752   0.852  0.00  0.00    +0.148 HD
ATOM     15  H   UNL     1      -3.718  -1.341  -0.313  0.00  0.00    +0.166 HD
BRANCH   7  17
ATOM     16  C   UNL     1      -0.019   1.526   0.010  0.00  0.00    +0.027 C 
ATOM     17  C   UNL     1       0.002  -0.004   0.002  0.00  0.00    +0.065 C 
ATOM     18  C   UNL     1       0.742  -0.511   1.242  0.00  0.00    +0.027 C 
ENDBRANCH   7  17
ENDBRANCH   1  10
BRANCH   2  19
ATOM     19  C   UNL     1      -2.307  -2.139  -6.213  0.00  0.00    +0.003 A 
ATOM     20  C   UNL     1      -2.340  -3.061  -5.168  0.00  0.00    +0.013 A 
ATOM     21  C   UNL     1      -2.978  -4.272  -5.340  0.00  0.00    +0.039 A 
ATOM     22  C   UNL     1      -3.584  -4.573  -6.549  0.00  0.00    +0.123 A 
ATOM     23  C   UNL     1      -3.554  -3.660  -7.590  0.00  0.00    +0.039 A 
ATOM     24  C   UNL     1      -2.924  -2.443  -7.426  0.00  0.00    +0.013 A 
ATOM     25  F   UNL     1      -4.207  -5.761  -6.712  0.00  0.00    -0.205 F 
ENDBRANCH   2  19
BRANCH   4  26
ATOM     26  S   UNL     1       0.484   2.151  -7.340  0.00  0.00    -0.086 S 
BRANCH  26  27
ATOM     27  C   UNL     1       0.621   1.467  -9.015  0.00  0.00    +0.105 C 
BRANCH  27  28
ATOM     28  C   UNL     1       1.438   2.420  -9.890  0.00  0.00    +0.167 C 
BRANCH  28  29
ATOM     29  O   UNL     1       1.546   1.882 -11.209  0.00  0.00    -0.394 OA
ATOM     30  H   UNL     1       2.052   2.435 -11.819  0.00  0.00    +0.209 HD
ENDBRANCH  28  29
ENDBRANCH  27  28
ENDBRANCH  26  27
ENDBRANCH   4  26
TORSDOF 7
