REMARK  Name = CHEMBL187857
REMARK  7 active torsions:
REMARK  status: ('A' for Active; 'I' for Inactive)
REMARK    1  A    between atoms: C_1  and  C_2
REMARK    2  A    between atoms: C_5  and  N_17
REMARK    3  A    between atoms: C_7  and  N_8
REMARK    4  A    between atoms: C_13  and  S_15
REMARK    5  A    between atoms: S_15  and  C_16
REMARK    6  A    between atoms: C_18  and  C_20
REMARK    7  A    between atoms: C_22  and  N_27
REMARK                            x       y       z     vdW  Elec       q    Type
REMARK                         _______ _______ _______ _____ _____    ______ ____
ROOT
ATOM      1  C   UNL     1      -0.121   1.568   0.126  0.00  0.00    +0.045 C 
ATOM      2  C   UNL     1       0.069   0.119  -0.241  0.00  0.00    -0.029 A 
ATOM      3  C   UNL     1      -0.662  -0.432  -1.276  0.00  0.00    +0.007 A 
ATOM      4  C   UNL     1      -0.491  -1.760  -1.617  0.00  0.00    +0.024 A 
ATOM      5  C   UNL     1       0.418  -2.546  -0.918  0.00  0.00    +0.035 A 
ATOM      6  C   UNL     1       1.154  -1.996   0.121  0.00  0.00    +0.046 A 
ATOM      7  C   UNL     1       0.984  -0.660   0.457  0.00  0.00    +0.037 A 
ENDROOT
BRANCH   7   8
ATOM      8  N   UNL     1       1.727  -0.100   1.500  0.00  0.00    -0.299 N 
ATOM      9  C   UNL     1       2.195  -0.905   2.527  0.00  0.00    +0.127 A 
ATOM     10  C   UNL     1       3.054  -0.386   3.498  0.00  0.00    +0.063 A 
ATOM     11  C   UNL     1       3.496  -1.224   4.504  0.00  0.00    +0.117 A 
ATOM     12  N   UNL     1       3.095  -2.486   4.518  0.00  0.00    -0.230 NA
ATOM     13  C   UNL     1       2.279  -2.953   3.583  0.00  0.00    +0.190 A 
ATOM     14  N   UNL     1       1.829  -2.180   2.605  0.00  0.00    -0.207 NA
ATOM     15  H   UNL     1       1.916   0.852   1.505  0.00  0.00    +0.154 HD
BRANCH  13  16
ATOM     16  S   UNL     1       1.775  -4.640   3.646  0.00  0.00    -0.089 S 
ATOM     17  C   UNL     1       2.609  -5.293   5.118  0.00  0.00    +0.093 C 
ENDBRANCH  13  16
ENDBRANCH   7   8
BRANCH   5  18
ATOM     18  N   UNL     1       0.590  -3.890  -1.263  0.00  0.00    -0.281 N 
ATOM     19  C   UNL     1       0.568  -4.262  -2.558  0.00  0.00    +0.248 C 
ATOM     20  O   UNL     1       0.313  -3.445  -3.421  0.00  0.00    -0.270 OA
ATOM     21  H   UNL     1       0.725  -4.555  -0.569  0.00  0.00    +0.155 HD
BRANCH  19  22
ATOM     22  C   UNL     1       0.854  -5.664  -2.929  0.00  0.00    +0.041 A 
ATOM     23  C   UNL     1       0.838  -6.050  -4.270  0.00  0.00    +0.036 A 
ATOM     24  C   UNL     1       1.107  -7.367  -4.612  0.00  0.00    +0.033 A 
ATOM     25  C   UNL     1       1.392  -8.298  -3.620  0.00  0.00    +0.061 A 
ATOM     26  C   UNL     1       1.409  -7.916  -2.290  0.00  0.00    +0.126 A 
ATOM     27  C   UNL     1       1.147  -6.604  -1.940  0.00  0.00    +0.051 A 
ATOM     28  F   UNL     1       1.686  -8.827  -1.331  0.00  0.00    -0.205 F 
BRANCH  24  29
ATOM     29  N   UNL     1       1.092  -7.757  -5.953  0.00  0.00    -0.325 N 
ATOM     30  C   UNL     1       0.902  -6.769  -7.027  0.00  0.00    +0.133 C 
ATOM     31  C   UNL     1       2.011  -6.967  -8.067  0.00  0.00    +0.178 C 
ATOM     32  O   UNL     1       2.044  -8.340  -8.465  0.00  0.00    -0.377 OA
ATOM     33  C   UNL     1       2.356  -9.249  -7.407  0.00  0.00    +0.178 C 
ATOM     34  C   UNL     1       1.270  -9.167  -6.333  0.00  0.00    +0.133 C 
ENDBRANCH  24  29
ENDBRANCH  19  22
ENDBRANCH   5  18
TORSDOF 5
