REMARK  Name = CHEMBL1088750
REMARK  12 active torsions:
REMARK  status: ('A' for Active; 'I' for Inactive)
REMARK    1  A    between atoms: C_1  and  C_2
REMARK    2  A    between atoms: C_2  and  C_3
REMARK    3  A    between atoms: C_2  and  C_4
REMARK    4  A    between atoms: C_4  and  N_5
REMARK    5  A    between atoms: C_8  and  C_23
REMARK    6  A    between atoms: C_9  and  O_14
REMARK    7  A    between atoms: O_14  and  C_15
REMARK    8  A    between atoms: N_25  and  C_26
REMARK    9  A    between atoms: C_26  and  C_27
REMARK   10  A    between atoms: C_27  and  N_28
REMARK   11  A    between atoms: N_28  and  C_29
REMARK   12  A    between atoms: N_28  and  C_30
REMARK                            x       y       z     vdW  Elec       q    Type
REMARK                         _______ _______ _______ _____ _____    ______ ____
ROOT
ATOM      1  N   UNL     1      -1.745  -2.022  -0.097  0.00  0.00    -0.263 N 
ATOM      2  C   UNL     1      -1.730  -2.725  -1.277  0.00  0.00    +0.070 A 
ATOM      3  C   UNL     1      -1.904  -2.367  -2.607  0.00  0.00    +0.044 A 
ATOM      4  C   UNL     1      -1.827  -3.340  -3.599  0.00  0.00    +0.081 A 
ATOM      5  C   UNL     1      -1.575  -4.682  -3.256  0.00  0.00    +0.141 A 
ATOM      6  C   UNL     1      -1.403  -5.041  -1.948  0.00  0.00    +0.058 A 
ATOM      7  C   UNL     1      -1.477  -4.070  -0.940  0.00  0.00    +0.023 A 
ATOM      8  C   UNL     1      -1.346  -4.122   0.469  0.00  0.00    +0.143 A 
ATOM      9  N   UNL     1      -1.499  -2.921   0.947  0.00  0.00    -0.178 NA
ENDROOT
BRANCH   4  10
ATOM     10  C   UNL     1      -2.011  -2.965  -5.013  0.00  0.00    +0.248 C 
ATOM     11  O   UNL     1      -1.945  -3.814  -5.881  0.00  0.00    -0.270 OA
ATOM     12  N   UNL     1      -2.254  -1.681  -5.343  0.00  0.00    -0.313 N 
ATOM     13  H   UNL     1      -2.307  -1.004  -4.651  0.00  0.00    +0.149 HD
BRANCH  12  14
ATOM     14  C   UNL     1      -2.437  -1.308  -6.748  0.00  0.00    +0.086 C 
BRANCH  14  15
ATOM     15  C   UNL     1      -2.696   0.196  -6.847  0.00  0.00    -0.061 C 
BRANCH  15  16
ATOM     16  N   UNL     1      -2.880   0.570  -8.256  0.00  0.00    +0.377 N 
ATOM     17  C   UNL     1      -4.095  -0.069  -8.777  0.00  0.00    -0.097 C 
ATOM     18  C   UNL     1      -3.009   2.030  -8.362  0.00  0.00    -0.097 C 
ATOM     19  H   UNL     1      -2.082   0.263  -8.792  0.00  0.00    -0.083 HD
ENDBRANCH  15  16
ENDBRANCH  14  15
ENDBRANCH  12  14
ENDBRANCH   4  10
BRANCH   1  20
ATOM     20  C   UNL     1      -1.973  -0.581   0.044  0.00  0.00    +0.147 C 
BRANCH  20  22
ATOM     21  C   UNL     1      -0.883   1.666  -0.015  0.00  0.00    +0.009 C 
ATOM     22  C   UNL     1      -0.635   0.157  -0.037  0.00  0.00    +0.004 C 
ATOM     23  C   UNL     1       0.236  -0.234   1.159  0.00  0.00    +0.009 C 
ENDBRANCH  20  22
ENDBRANCH   1  20
BRANCH   5  24
ATOM     24  O   UNL     1      -1.502  -5.625  -4.229  0.00  0.00    -0.452 OA
BRANCH  24  25
ATOM     25  C   UNL     1      -1.366  -6.924  -3.851  0.00  0.00    +0.164 A 
ATOM     26  C   UNL     1      -0.106  -7.496  -3.771  0.00  0.00    +0.052 A 
ATOM     27  C   UNL     1       0.031  -8.816  -3.386  0.00  0.00    +0.042 A 
ATOM     28  C   UNL     1      -1.090  -9.570  -3.081  0.00  0.00    +0.126 A 
ATOM     29  C   UNL     1      -2.350  -9.002  -3.160  0.00  0.00    +0.080 A 
ATOM     30  C   UNL     1      -2.490  -7.679  -3.539  0.00  0.00    +0.168 A 
ATOM     31  F   UNL     1      -3.720  -7.122  -3.611  0.00  0.00    -0.202 F 
ATOM     32  F   UNL     1      -0.955 -10.860  -2.706  0.00  0.00    -0.205 F 
ENDBRANCH  24  25
ENDBRANCH   5  24
TORSDOF 8
