REMARK  Name = CHEMBL212091
REMARK  3 active torsions:
REMARK  status: ('A' for Active; 'I' for Inactive)
REMARK    1  A    between atoms: C_5  and  C_7
REMARK    2  A    between atoms: N_13  and  C_14
REMARK    3  A    between atoms: N_22  and  C_27
REMARK                            x       y       z     vdW  Elec       q    Type
REMARK                         _______ _______ _______ _____ _____    ______ ____
ROOT
ATOM      1  C   UNL     1       1.246  -2.165  -0.023  0.00  0.00    +0.084 A 
ATOM      2  C   UNL     1       0.074  -2.896   0.082  0.00  0.00    +0.036 A 
ATOM      3  C   UNL     1       0.131  -4.288   0.070  0.00  0.00    +0.144 A 
ATOM      4  N   UNL     1       1.316  -4.877  -0.043  0.00  0.00    -0.198 NA
ATOM      5  C   UNL     1       2.421  -4.152  -0.142  0.00  0.00    +0.218 A 
ATOM      6  N   UNL     1       2.401  -2.828  -0.138  0.00  0.00    -0.214 NA
ATOM      7  N   UNL     1       3.638  -4.801  -0.258  0.00  0.00    -0.312 N 
ATOM      8  N   UNL     1      -1.037  -5.026   0.176  0.00  0.00    -0.205 N 
ATOM      9  C   UNL     1      -2.248  -4.464   0.292  0.00  0.00    +0.312 C 
ATOM     10  O   UNL     1      -3.217  -5.192   0.380  0.00  0.00    -0.252 OA
ATOM     11  N   UNL     1      -2.442  -3.133   0.317  0.00  0.00    -0.294 N 
ATOM     12  C   UNL     1      -1.276  -2.237   0.211  0.00  0.00    +0.146 C 
ATOM     13  H   UNL     1       3.672  -5.770  -0.266  0.00  0.00    +0.149 HD
ATOM     14  H   UNL     1      -3.337  -2.768   0.402  0.00  0.00    +0.151 HD
ENDROOT
BRANCH   7  15
ATOM     15  C   UNL     1       4.875  -4.024  -0.370  0.00  0.00    +0.060 C 
ATOM     16  C   UNL     1       5.118  -3.653  -1.834  0.00  0.00    -0.056 C 
ATOM     17  N   UNL     1       6.392  -4.214  -2.290  0.00  0.00    +0.381 N 
ATOM     18  C   UNL     1       6.371  -5.676  -2.205  0.00  0.00    -0.078 C 
ATOM     19  C   UNL     1       6.170  -6.114  -0.753  0.00  0.00    -0.014 C 
ATOM     20  C   UNL     1       6.057  -4.865   0.130  0.00  0.00    +0.004 C 
ATOM     21  C   UNL     1       7.341  -4.040  -0.033  0.00  0.00    -0.014 C 
ATOM     22  C   UNL     1       7.504  -3.668  -1.508  0.00  0.00    -0.078 C 
ATOM     23  H   UNL     1       6.526  -3.959  -3.257  0.00  0.00    -0.082 HD
ENDBRANCH   7  15
BRANCH   8  24
ATOM     24  C   UNL     1      -0.948  -6.425   0.161  0.00  0.00    +0.081 A 
ATOM     25  C   UNL     1      -1.011  -7.113  -1.045  0.00  0.00    +0.064 A 
ATOM     26  C   UNL     1      -0.922  -8.493  -1.056  0.00  0.00    +0.022 A 
ATOM     27  C   UNL     1      -0.773  -9.188   0.130  0.00  0.00    +0.003 A 
ATOM     28  C   UNL     1      -0.711  -8.506   1.331  0.00  0.00    +0.022 A 
ATOM     29  C   UNL     1      -0.792  -7.126   1.350  0.00  0.00    +0.064 A 
ATOM     30 CL   UNL     1      -0.706  -6.271   2.858  0.00  0.00    -0.082 Cl
ATOM     31 CL   UNL     1      -1.199  -6.242  -2.534  0.00  0.00    -0.082 Cl
ENDBRANCH   8  24
BRANCH   1  36
ATOM     32  C   UNL     1       0.583   1.380   1.038  0.00  0.00    +0.001 A 
ATOM     33  C   UNL     1       1.169   2.087   0.003  0.00  0.00    +0.001 A 
ATOM     34  C   UNL     1       1.781   1.417  -1.040  0.00  0.00    +0.020 A 
ATOM     35  C   UNL     1       1.810   0.035  -1.054  0.00  0.00    +0.050 A 
ATOM     36  C   UNL     1       1.220  -0.682  -0.014  0.00  0.00    +0.019 A 
ATOM     37  C   UNL     1       0.605   0.000   1.035  0.00  0.00    +0.011 A 
ATOM     38 CL   UNL     1       2.577  -0.806  -2.365  0.00  0.00    -0.083 Cl
ENDBRANCH   1  36
TORSDOF 3
