REMARK  Name = CHEMBL483192
REMARK  12 active torsions:
REMARK  status: ('A' for Active; 'I' for Inactive)
REMARK    1  A    between atoms: C_1  and  C_2
REMARK    2  A    between atoms: C_3  and  C_11
REMARK    3  A    between atoms: C_5  and  C_7
REMARK    4  A    between atoms: C_7  and  C_8
REMARK    5  A    between atoms: C_7  and  C_9
REMARK    6  A    between atoms: C_7  and  C_10
REMARK    7  A    between atoms: C_11  and  C_13
REMARK    8  A    between atoms: N_15  and  C_16
REMARK    9  A    between atoms: C_19  and  O_26
REMARK   10  A    between atoms: O_26  and  C_27
REMARK   11  A    between atoms: C_27  and  C_28
REMARK   12  A    between atoms: C_28  and  N_29
REMARK                            x       y       z     vdW  Elec       q    Type
REMARK                         _______ _______ _______ _____ _____    ______ ____
ROOT
ATOM      1  C   UNL     1      -6.411  -1.683  -0.030  0.00  0.00    +0.042 A 
ATOM      2  C   UNL     1      -6.022  -3.002   0.060  0.00  0.00    +0.027 A 
ATOM      3  C   UNL     1      -6.953  -4.029  -0.060  0.00  0.00    +0.048 A 
ATOM      4  C   UNL     1      -8.285  -3.754  -0.273  0.00  0.00    +0.128 A 
ATOM      5  C   UNL     1      -8.716  -2.415  -0.370  0.00  0.00    +0.026 A 
ATOM      6  C   UNL     1      -7.771  -1.368  -0.241  0.00  0.00    +0.007 A 
ATOM      7  C   UNL     1      -8.203  -0.035  -0.332  0.00  0.00    +0.010 A 
ATOM      8  C   UNL     1      -9.522   0.233  -0.536  0.00  0.00    +0.001 A 
ATOM      9  C   UNL     1     -10.453  -0.797  -0.657  0.00  0.00    +0.001 A 
ATOM     10  C   UNL     1     -10.067  -2.101  -0.586  0.00  0.00    +0.012 A 
ENDROOT
BRANCH   1  13
ATOM     11  C   UNL     1      -4.216  -0.843  -0.377  0.00  0.00    +0.289 C 
ATOM     12  O   UNL     1      -3.887  -1.920  -0.832  0.00  0.00    -0.266 OA
ATOM     13  N   UNL     1      -5.466  -0.663   0.093  0.00  0.00    -0.278 N 
ATOM     14  H   UNL     1      -5.709   0.175   0.517  0.00  0.00    +0.155 HD
BRANCH  11  15
ATOM     15  C   UNL     1      -3.237   0.281  -0.340  0.00  0.00    +0.251 C 
ATOM     16  O   UNL     1      -3.566   1.358   0.115  0.00  0.00    -0.282 OA
BRANCH  15  19
ATOM     17  C   UNL     1      -0.935   2.439  -0.408  0.00  0.00    +0.087 C 
ATOM     18  C   UNL     1      -0.854   1.014  -0.891  0.00  0.00    +0.113 A 
ATOM     19  C   UNL     1      -1.875   0.085  -0.852  0.00  0.00    +0.068 A 
ATOM     20  C   UNL     1      -1.308  -1.142  -1.433  0.00  0.00    +0.057 A 
ATOM     21  C   UNL     1      -0.041  -0.847  -1.757  0.00  0.00    +0.111 A 
ATOM     22  O   UNL     1       0.217   0.431  -1.437  0.00  0.00    -0.464 OA
BRANCH  21  23
ATOM     23  C   UNL     1       0.941  -1.801  -2.387  0.00  0.00    +0.020 C 
ATOM     24  C   UNL     1       0.395  -2.277  -3.735  0.00  0.00    +0.019 C 
ATOM     25  C   UNL     1       2.278  -1.090  -2.600  0.00  0.00    +0.019 C 
ATOM     26  C   UNL     1       1.145  -3.006  -1.466  0.00  0.00    +0.019 C 
ENDBRANCH  21  23
ENDBRANCH  15  19
ENDBRANCH  11  15
ENDBRANCH   1  13
BRANCH   4  27
ATOM     27  O   UNL     1      -9.181  -4.769  -0.389  0.00  0.00    -0.493 OA
BRANCH  27  28
ATOM     28  C   UNL     1      -8.671  -6.100  -0.281  0.00  0.00    +0.210 C 
BRANCH  28  29
ATOM     29  C   UNL     1      -9.819  -7.099  -0.436  0.00  0.00    -0.037 C 
BRANCH  29  30
ATOM     30  N   UNL     1     -10.393  -6.980  -1.783  0.00  0.00    +0.385 N 
ATOM     31  C   UNL     1     -11.584  -7.835  -1.886  0.00  0.00    -0.050 C 
ATOM     32  C   UNL     1     -12.181  -7.708  -3.290  0.00  0.00    +0.141 C 
ATOM     33  O   UNL     1     -11.190  -8.068  -4.257  0.00  0.00    -0.383 OA
ATOM     34  C   UNL     1     -10.000  -7.279  -4.181  0.00  0.00    +0.141 C 
ATOM     35  C   UNL     1      -9.400  -7.404  -2.779  0.00  0.00    -0.050 C 
ATOM     36  H   UNL     1     -10.652  -6.020  -1.955  0.00  0.00    -0.081 HD
ENDBRANCH  29  30
ENDBRANCH  28  29
ENDBRANCH  27  28
ENDBRANCH   4  27
TORSDOF 8
