REMARK  Name = CHEMBL274257
REMARK  8 active torsions:
REMARK  status: ('A' for Active; 'I' for Inactive)
REMARK    1  A    between atoms: C_1  and  C_2
REMARK    2  A    between atoms: C_5  and  C_23
REMARK    3  A    between atoms: C_7  and  N_8
REMARK    4  A    between atoms: C_10  and  C_21
REMARK    5  A    between atoms: C_11  and  N_15
REMARK    6  A    between atoms: N_15  and  C_16
REMARK    7  A    between atoms: N_25  and  O_26
REMARK    8  A    between atoms: O_26  and  C_27
REMARK                            x       y       z     vdW  Elec       q    Type
REMARK                         _______ _______ _______ _____ _____    ______ ____
ROOT
ATOM      1  N   UNL     1       0.025  -0.008   2.417  0.00  0.00    -0.298 N 
ATOM      2  C   UNL     1      -0.059  -0.701   3.609  0.00  0.00    +0.146 A 
ATOM      3  C   UNL     1      -0.170  -0.011   4.832  0.00  0.00    +0.131 A 
ATOM      4  C   UNL     1      -0.252  -0.773   6.013  0.00  0.00    +0.142 A 
ATOM      5  N   UNL     1      -0.221  -2.100   5.923  0.00  0.00    -0.220 NA
ATOM      6  C   UNL     1      -0.116  -2.700   4.755  0.00  0.00    +0.225 A 
ATOM      7  N   UNL     1      -0.042  -2.031   3.622  0.00  0.00    -0.219 NA
ATOM      8  H   UNL     1      -0.086   0.955   2.406  0.00  0.00    +0.154 HD
ENDROOT
BRANCH   1  15
ATOM      9  C   UNL     1      -0.989   1.098   0.003  0.00  0.00    +0.045 C 
ATOM     10  C   UNL     1      -0.209  -0.192   0.020  0.00  0.00    -0.029 A 
ATOM     11  C   UNL     1       0.034  -0.866  -1.162  0.00  0.00    +0.006 A 
ATOM     12  C   UNL     1       0.747  -2.047  -1.154  0.00  0.00    +0.013 A 
ATOM     13  C   UNL     1       1.226  -2.565   0.050  0.00  0.00    +0.040 A 
ATOM     14  C   UNL     1       0.982  -1.886   1.243  0.00  0.00    +0.036 A 
ATOM     15  C   UNL     1       0.268  -0.697   1.224  0.00  0.00    +0.036 A 
BRANCH  13  16
ATOM     16  C   UNL     1       1.991  -3.831   0.061  0.00  0.00    +0.267 C 
ATOM     17  O   UNL     1       2.407  -4.280   1.111  0.00  0.00    -0.268 OA
ATOM     18  N   UNL     1       2.226  -4.487  -1.093  0.00  0.00    -0.191 N 
ATOM     19  H   UNL     1       1.893  -4.128  -1.930  0.00  0.00    +0.183 HD
BRANCH  18  20
ATOM     20  O   UNL     1       2.958  -5.699  -1.082  0.00  0.00    -0.283 OA
ATOM     21  C   UNL     1       3.131  -6.284  -2.374  0.00  0.00    +0.226 C 
ENDBRANCH  18  20
ENDBRANCH  13  16
ENDBRANCH   1  15
BRANCH   4  22
ATOM     22  N   UNL     1      -0.362  -0.155   7.242  0.00  0.00    -0.325 N 
ATOM     23  H   UNL     1      -0.383   0.813   7.298  0.00  0.00    +0.148 HD
BRANCH  22  24
ATOM     24  C   UNL     1      -0.446  -0.961   8.463  0.00  0.00    +0.072 C 
ATOM     25  C   UNL     1      -1.917  -1.322   8.757  0.00  0.00    +0.022 C 
ATOM     26  C   UNL     1      -2.023  -1.255  10.301  0.00  0.00    +0.002 C 
ATOM     27  C   UNL     1      -1.127  -0.041  10.652  0.00  0.00    +0.002 C 
ATOM     28  C   UNL     1       0.056  -0.146   9.668  0.00  0.00    +0.022 C 
ENDBRANCH  22  24
ENDBRANCH   4  22
BRANCH   3  29
ATOM     29  C   UNL     1      -0.198   1.420   4.873  0.00  0.00    +0.106 C 
ATOM     30  N   UNL     1      -0.221   2.555   4.906  0.00  0.00    -0.191 NA
ENDBRANCH   3  29
TORSDOF 6
