REMARK  Name = CHEMBL199136
REMARK  4 active torsions:
REMARK  status: ('A' for Active; 'I' for Inactive)
REMARK    1  A    between atoms: C_5  and  N_7
REMARK    2  A    between atoms: N_7  and  C_8
REMARK    3  A    between atoms: C_17  and  C_18
REMARK    4  A    between atoms: C_22  and  C_24
REMARK                            x       y       z     vdW  Elec       q    Type
REMARK                         _______ _______ _______ _____ _____    ______ ____
ROOT
ATOM      1  C   UNL     1       0.090  -2.874   0.036  0.00  0.00    +0.033 A 
ATOM      2  C   UNL     1      -1.170  -2.259   0.019  0.00  0.00    +0.024 A 
ATOM      3  C   UNL     1      -2.315  -2.985   0.073  0.00  0.00    +0.014 A 
ATOM      4  C   UNL     1      -2.248  -4.389   0.147  0.00  0.00    +0.027 A 
ATOM      5  C   UNL     1      -0.930  -5.039   0.165  0.00  0.00    +0.095 A 
ATOM      6  C   UNL     1       0.224  -4.229   0.102  0.00  0.00    +0.053 A 
ATOM      7  N   UNL     1      -1.143  -6.342   0.238  0.00  0.00    -0.173 NA
ATOM      8  N   UNL     1      -2.521  -6.583   0.269  0.00  0.00    -0.276 N 
ATOM      9  H   UNL     1      -2.932  -7.460   0.322  0.00  0.00    +0.189 HD
ATOM     10  C   UNL     1      -3.193  -5.414   0.214  0.00  0.00    +0.073 A 
ENDROOT
BRANCH  10  11
ATOM     11  C   UNL     1      -4.660  -5.250   0.225  0.00  0.00    +0.001 A 
ATOM     12  C   UNL     1      -5.250  -4.273   1.033  0.00  0.00    +0.010 A 
ATOM     13  C   UNL     1      -6.621  -4.119   1.044  0.00  0.00    +0.001 A 
ATOM     14  C   UNL     1      -7.420  -4.927   0.258  0.00  0.00    +0.013 A 
ATOM     15  C   UNL     1      -6.844  -5.906  -0.555  0.00  0.00    +0.037 A 
ATOM     16  C   UNL     1      -5.460  -6.064  -0.576  0.00  0.00    +0.023 A 
BRANCH  15  17
ATOM     17  C   UNL     1      -7.701  -6.770  -1.395  0.00  0.00    +0.242 C 
ATOM     18  O   UNL     1      -7.199  -7.622  -2.101  0.00  0.00    -0.270 OA
ATOM     19  N   UNL     1      -9.040  -6.612  -1.377  0.00  0.00    -0.325 N 
ATOM     20  H   UNL     1      -9.441  -5.932  -0.814  0.00  0.00    +0.145 HD
ATOM     21  H   UNL     1      -9.602  -7.179  -1.929  0.00  0.00    +0.145 HD
ENDBRANCH  15  17
ENDBRANCH  10  11
BRANCH   1  22
ATOM     22  N   UNL     1       1.238  -2.078  -0.021  0.00  0.00    -0.313 N 
ATOM     23  H   UNL     1       1.979  -2.337  -0.590  0.00  0.00    +0.152 HD
BRANCH  22  28
ATOM     24  C   UNL     1       0.408   0.538   2.424  0.00  0.00    +0.002 A 
ATOM     25  C   UNL     1       1.471   1.406   2.249  0.00  0.00    +0.002 A 
ATOM     26  C   UNL     1       2.456   1.121   1.322  0.00  0.00    +0.022 A 
ATOM     27  C   UNL     1       2.382  -0.035   0.567  0.00  0.00    +0.062 A 
ATOM     28  C   UNL     1       1.316  -0.909   0.741  0.00  0.00    +0.050 A 
ATOM     29  C   UNL     1       0.328  -0.618   1.673  0.00  0.00    +0.025 A 
ATOM     30 CL   UNL     1       3.620  -0.393  -0.597  0.00  0.00    -0.082 Cl
ENDBRANCH  22  28
ENDBRANCH   1  22
TORSDOF 4
