REMARK  Name = CHEMBL155508
REMARK  8 active torsions:
REMARK  status: ('A' for Active; 'I' for Inactive)
REMARK    1  A    between atoms: C_1  and  C_2
REMARK    2  A    between atoms: C_2  and  N_3
REMARK    3  A    between atoms: N_6  and  C_7
REMARK    4  A    between atoms: C_12  and  N_13
REMARK    5  A    between atoms: N_13  and  C_14
REMARK    6  A    between atoms: C_17  and  C_21
REMARK    7  A    between atoms: C_21  and  C_23
REMARK    8  A    between atoms: C_28  and  C_29
REMARK                            x       y       z     vdW  Elec       q    Type
REMARK                         _______ _______ _______ _____ _____    ______ ____
ROOT
ATOM      1  N   UNL     1      -5.539  -3.188   0.370  0.00  0.00    -0.313 N 
ATOM      2  H   UNL     1      -5.373  -2.471   1.001  0.00  0.00    +0.152 HD
ENDROOT
BRANCH   1   3
ATOM      3  C   UNL     1      -6.824  -3.693   0.214  0.00  0.00    +0.033 A 
ATOM      4  C   UNL     1      -7.022  -5.069   0.112  0.00  0.00    +0.024 A 
ATOM      5  C   UNL     1      -8.281  -5.573  -0.042  0.00  0.00    +0.015 A 
ATOM      6  C   UNL     1      -9.380  -4.708  -0.098  0.00  0.00    +0.041 A 
ATOM      7  C   UNL     1      -9.184  -3.325   0.005  0.00  0.00    +0.054 A 
ATOM      8  C   UNL     1      -7.911  -2.825   0.166  0.00  0.00    +0.044 A 
ATOM      9 CL   UNL     1     -10.542  -2.245  -0.064  0.00  0.00    -0.083 Cl
BRANCH   6  10
ATOM     10  C   UNL     1     -10.740  -5.251  -0.264  0.00  0.00    +0.195 C 
ATOM     11  O   UNL     1     -11.685  -4.496  -0.391  0.00  0.00    -0.287 OA
BRANCH  10  12
ATOM     12  C   UNL     1     -10.955  -6.713  -0.277  0.00  0.00    +0.025 A 
ATOM     13  C   UNL     1     -11.489  -7.353   0.843  0.00  0.00    +0.012 A 
ATOM     14  C   UNL     1     -11.688  -8.718   0.824  0.00  0.00    +0.001 A 
ATOM     15  C   UNL     1     -11.359  -9.453  -0.302  0.00  0.00    +0.000 A 
ATOM     16  C   UNL     1     -10.830  -8.824  -1.416  0.00  0.00    +0.004 A 
ATOM     17  C   UNL     1     -10.631  -7.459  -1.412  0.00  0.00    -0.040 A 
ATOM     18  C   UNL     1     -10.060  -6.776  -2.628  0.00  0.00    +0.044 C 
ENDBRANCH  10  12
ENDBRANCH   6  10
ENDBRANCH   1   3
BRANCH   1  24
ATOM     19  C   UNL     1      -3.174  -3.309  -0.132  0.00  0.00    +0.056 A 
ATOM     20  C   UNL     1      -2.132  -3.838  -0.879  0.00  0.00    +0.025 A 
ATOM     21  C   UNL     1      -2.396  -4.760  -1.876  0.00  0.00    +0.002 A 
ATOM     22  C   UNL     1      -3.695  -5.157  -2.130  0.00  0.00    +0.002 A 
ATOM     23  C   UNL     1      -4.739  -4.635  -1.391  0.00  0.00    +0.025 A 
ATOM     24  C   UNL     1      -4.484  -3.714  -0.385  0.00  0.00    +0.053 A 
BRANCH  19  28
ATOM     25  N   UNL     1      -1.392  -1.333   2.314  0.00  0.00    -0.299 N 
ATOM     26  C   UNL     1      -1.682  -2.310   1.432  0.00  0.00    +0.304 C 
ATOM     27  O   UNL     1      -0.837  -3.132   1.136  0.00  0.00    -0.253 OA
ATOM     28  N   UNL     1      -2.909  -2.374   0.878  0.00  0.00    -0.268 N 
ATOM     29  H   UNL     1      -2.066  -0.677   2.551  0.00  0.00    +0.150 HD
ATOM     30  H   UNL     1      -3.609  -1.774   1.179  0.00  0.00    +0.156 HD
BRANCH  25  32
ATOM     31  C   UNL     1       0.007  -0.071   3.874  0.00  0.00    +0.024 C 
ATOM     32  C   UNL     1      -0.058  -1.262   2.916  0.00  0.00    +0.102 C 
ENDBRANCH  25  32
ENDBRANCH  19  28
ENDBRANCH   1  24
TORSDOF 6
