REMARK  Name = CHEMBL524054
REMARK  3 active torsions:
REMARK  status: ('A' for Active; 'I' for Inactive)
REMARK    1  A    between atoms: C_1  and  C_2
REMARK    2  A    between atoms: C_7  and  C_8
REMARK    3  A    between atoms: C_23  and  C_25
REMARK                            x       y       z     vdW  Elec       q    Type
REMARK                         _______ _______ _______ _____ _____    ______ ____
ROOT
ATOM      1  C   UNL     1       0.658   0.515   2.507  0.00  0.00    -0.016 A 
ATOM      2  C   UNL     1      -0.494   1.264   2.793  0.00  0.00    +0.009 A 
ATOM      3  C   UNL     1      -0.695   1.793   4.031  0.00  0.00    +0.012 A 
ATOM      4  C   UNL     1       0.257   1.589   5.037  0.00  0.00    +0.025 A 
ATOM      5  C   UNL     1       1.426   0.832   4.760  0.00  0.00    +0.003 A 
ATOM      6  C   UNL     1       1.615   0.291   3.485  0.00  0.00    +0.018 A 
ATOM      7  C   UNL     1       2.354   0.653   5.805  0.00  0.00    +0.112 A 
ATOM      8  N   UNL     1       2.105   1.187   6.978  0.00  0.00    -0.282 N 
ATOM      9  N   UNL     1       1.053   1.871   7.234  0.00  0.00    -0.158 NA
ATOM     10  C   UNL     1       0.108   2.109   6.342  0.00  0.00    +0.150 A 
ATOM     11  N   UNL     1      -1.008   2.857   6.680  0.00  0.00    -0.306 N 
ATOM     12  C   UNL     1      -1.040   4.312   6.460  0.00  0.00    +0.135 C 
ATOM     13  C   UNL     1      -1.487   4.987   7.762  0.00  0.00    +0.179 C 
ATOM     14  O   UNL     1      -2.704   4.386   8.210  0.00  0.00    -0.376 OA
ATOM     15  C   UNL     1      -2.588   2.998   8.530  0.00  0.00    +0.182 C 
ATOM     16  C   UNL     1      -2.199   2.219   7.263  0.00  0.00    +0.097 C 
ATOM     17  C   UNL     1      -1.881   0.767   7.625  0.00  0.00    +0.030 C 
ATOM     18  H   UNL     1       2.752   1.056   7.689  0.00  0.00    +0.188 HD
ENDROOT
BRANCH   1  25
ATOM     19  C   UNL     1       1.001   2.290   0.238  0.00  0.00    +0.044 C 
ATOM     20  C   UNL     1       1.015   0.794   0.054  0.00  0.00    -0.042 A 
ATOM     21  C   UNL     1       1.198   0.249  -1.208  0.00  0.00    +0.005 A 
ATOM     22  C   UNL     1       1.216  -1.098  -1.409  0.00  0.00    +0.013 A 
ATOM     23  C   UNL     1       1.047  -1.990  -0.328  0.00  0.00    +0.031 A 
ATOM     24  C   UNL     1       0.861  -1.424   0.953  0.00  0.00    +0.049 A 
ATOM     25  C   UNL     1       0.850  -0.048   1.150  0.00  0.00    +0.001 A 
ATOM     26  S   UNL     1       0.693  -2.848   1.992  0.00  0.00    +0.014 S 
ATOM     27  N   UNL     1       0.852  -4.056   0.843  0.00  0.00    -0.195 NA
ATOM     28  C   UNL     1       1.027  -3.445  -0.292  0.00  0.00    +0.133 A 
ATOM     29  N   UNL     1       1.195  -4.179  -1.467  0.00  0.00    -0.342 N 
ATOM     30  H   UNL     1       1.325  -3.720  -2.311  0.00  0.00    +0.144 HD
ATOM     31  H   UNL     1       1.181  -5.149  -1.439  0.00  0.00    +0.144 HD
ENDBRANCH   1  25
TORSDOF 1
