REMARK  Name = CHEMBL271760
REMARK  8 active torsions:
REMARK  status: ('A' for Active; 'I' for Inactive)
REMARK    1  A    between atoms: C_1  and  C_2
REMARK    2  A    between atoms: C_5  and  N_31
REMARK    3  A    between atoms: C_7  and  C_8
REMARK    4  A    between atoms: N_10  and  C_11
REMARK    5  A    between atoms: N_17  and  C_18
REMARK    6  A    between atoms: C_21  and  N_24
REMARK    7  A    between atoms: N_27  and  C_30
REMARK    8  A    between atoms: C_32  and  C_34
REMARK                            x       y       z     vdW  Elec       q    Type
REMARK                         _______ _______ _______ _____ _____    ______ ____
ROOT
ATOM      1  C   UNL     1       0.355  -0.417   2.651  0.00  0.00    +0.249 C 
ATOM      2  O   UNL     1       0.773   0.719   2.756  0.00  0.00    -0.270 OA
ATOM      3  N   UNL     1      -0.133  -1.059   3.731  0.00  0.00    -0.279 N 
ATOM      4  H   UNL     1      -0.528  -1.940   3.635  0.00  0.00    +0.155 HD
ENDROOT
BRANCH   3   5
ATOM      5  C   UNL     1      -0.070  -0.454   4.993  0.00  0.00    +0.070 A 
ATOM      6  C   UNL     1      -0.218   0.924   5.131  0.00  0.00    +0.139 A 
ATOM      7  N   UNL     1      -0.152   1.460   6.338  0.00  0.00    -0.221 NA
ATOM      8  C   UNL     1       0.052   0.704   7.407  0.00  0.00    +0.220 A 
ATOM      9  N   UNL     1       0.197  -0.609   7.313  0.00  0.00    -0.221 NA
ATOM     10  C   UNL     1       0.137  -1.216   6.139  0.00  0.00    +0.139 A 
ATOM     11  N   UNL     1       0.114   1.303   8.656  0.00  0.00    -0.284 N 
ATOM     12  H   UNL     1      -0.071   2.251   8.749  0.00  0.00    +0.155 HD
BRANCH  11  13
ATOM     13  C   UNL     1       0.445   0.540   9.783  0.00  0.00    +0.034 A 
ATOM     14  C   UNL     1       1.356  -0.503   9.672  0.00  0.00    +0.025 A 
ATOM     15  C   UNL     1       1.682  -1.255  10.783  0.00  0.00    +0.025 A 
ATOM     16  C   UNL     1       1.099  -0.969  12.011  0.00  0.00    +0.030 A 
ATOM     17  C   UNL     1       0.189   0.074  12.121  0.00  0.00    +0.025 A 
ATOM     18  C   UNL     1      -0.133   0.829  11.012  0.00  0.00    +0.025 A 
BRANCH  16  19
ATOM     19  N   UNL     1       1.430  -1.732  13.137  0.00  0.00    -0.327 N 
ATOM     20  C   UNL     1       0.731  -1.532  14.416  0.00  0.00    +0.120 C 
ATOM     21  C   UNL     1       0.239  -2.893  14.920  0.00  0.00    +0.103 C 
ATOM     22  N   UNL     1       1.369  -3.831  14.969  0.00  0.00    -0.302 NA
ATOM     23  C   UNL     1       1.923  -4.068  13.630  0.00  0.00    +0.103 C 
ATOM     24  C   UNL     1       2.480  -2.760  13.071  0.00  0.00    +0.120 C 
ATOM     25  C   UNL     1       0.977  -5.094  15.608  0.00  0.00    +0.105 C 
ENDBRANCH  16  19
ENDBRANCH  11  13
ENDBRANCH   3   5
BRANCH   1  32
ATOM     26  C   UNL     1       1.565   0.907   0.384  0.00  0.00    +0.044 C 
ATOM     27  C   UNL     1       0.962  -0.466   0.235  0.00  0.00    -0.038 A 
ATOM     28  C   UNL     1       0.990  -1.104  -0.988  0.00  0.00    +0.006 A 
ATOM     29  C   UNL     1       0.439  -2.364  -1.129  0.00  0.00    +0.023 A 
ATOM     30  C   UNL     1      -0.147  -2.997  -0.039  0.00  0.00    +0.034 A 
ATOM     31  C   UNL     1      -0.180  -2.365   1.194  0.00  0.00    +0.036 A 
ATOM     32  C   UNL     1       0.381  -1.096   1.337  0.00  0.00    +0.042 A 
BRANCH  30  33
ATOM     33  N   UNL     1      -0.705  -4.271  -0.187  0.00  0.00    -0.281 N 
ATOM     34  C   UNL     1      -1.802  -4.613   0.516  0.00  0.00    +0.248 C 
ATOM     35  O   UNL     1      -2.363  -3.785   1.208  0.00  0.00    -0.270 OA
ATOM     36  H   UNL     1      -0.301  -4.909  -0.797  0.00  0.00    +0.155 HD
BRANCH  34  37
ATOM     37  C   UNL     1      -2.324  -5.994   0.448  0.00  0.00    +0.037 A 
ATOM     38  C   UNL     1      -1.679  -6.949  -0.341  0.00  0.00    +0.013 A 
ATOM     39  C   UNL     1      -2.172  -8.236  -0.401  0.00  0.00    +0.001 A 
ATOM     40  C   UNL     1      -3.302  -8.581   0.318  0.00  0.00    +0.000 A 
ATOM     41  C   UNL     1      -3.946  -7.640   1.101  0.00  0.00    +0.001 A 
ATOM     42  C   UNL     1      -3.461  -6.351   1.175  0.00  0.00    +0.013 A 
ENDBRANCH  34  37
ENDBRANCH  30  33
ENDBRANCH   1  32
TORSDOF 6
