REMARK  Name = CHEMBL67911
REMARK  11 active torsions:
REMARK  status: ('A' for Active; 'I' for Inactive)
REMARK    1  A    between atoms: C_1  and  C_2
REMARK    2  A    between atoms: C_2  and  C_32
REMARK    3  A    between atoms: C_5  and  C_8
REMARK    4  A    between atoms: C_11  and  C_21
REMARK    5  A    between atoms: C_12  and  C_14
REMARK    6  A    between atoms: N_27  and  C_28
REMARK    7  A    between atoms: C_28  and  C_29
REMARK    8  A    between atoms: C_29  and  O_30
REMARK    9  A    between atoms: O_30  and  C_31
REMARK   10  A    between atoms: N_34  and  C_35
REMARK   11  A    between atoms: C_35  and  C_36
REMARK                            x       y       z     vdW  Elec       q    Type
REMARK                         _______ _______ _______ _____ _____    ______ ____
ROOT
ATOM      1  C   UNL     1      -0.702  -3.928   1.338  0.00  0.00    +0.165 A 
ATOM      2  N   UNL     1       0.261  -4.695   1.890  0.00  0.00    -0.336 N 
ATOM      3  H   UNL     1       1.061  -4.380   2.338  0.00  0.00    +0.167 HD
ATOM      4  C   UNL     1      -0.104  -6.010   1.701  0.00  0.00    +0.093 A 
ATOM      5  C   UNL     1      -1.309  -5.981   1.021  0.00  0.00    +0.098 A 
ATOM      6  N   UNL     1      -1.631  -4.690   0.830  0.00  0.00    -0.227 NA
ENDROOT
BRANCH   4   7
ATOM      7  C   UNL     1       0.640  -7.207   2.135  0.00  0.00    +0.094 A 
ATOM      8  C   UNL     1       2.026  -7.150   2.336  0.00  0.00    +0.050 A 
ATOM      9  C   UNL     1       2.679  -8.297   2.743  0.00  0.00    +0.116 A 
ATOM     10  N   UNL     1       1.983  -9.409   2.929  0.00  0.00    -0.223 NA
ATOM     11  C   UNL     1       0.672  -9.436   2.731  0.00  0.00    +0.216 A 
ATOM     12  N   UNL     1       0.004  -8.360   2.347  0.00  0.00    -0.213 NA
ATOM     13  N   UNL     1      -0.016 -10.619   2.938  0.00  0.00    -0.311 N 
ATOM     14  H   UNL     1      -0.975 -10.653   2.797  0.00  0.00    +0.149 HD
BRANCH  13  15
ATOM     15  C   UNL     1       0.704 -11.820   3.369  0.00  0.00    +0.132 C 
BRANCH  15  16
ATOM     16  C   UNL     1      -0.283 -12.979   3.522  0.00  0.00    +0.178 C 
BRANCH  16  17
ATOM     17  O   UNL     1      -0.834 -13.307   2.245  0.00  0.00    -0.381 OA
ATOM     18  C   UNL     1      -1.774 -14.383   2.277  0.00  0.00    +0.194 C 
ENDBRANCH  16  17
ENDBRANCH  15  16
ENDBRANCH  13  15
ENDBRANCH   4   7
BRANCH   1  23
ATOM     19  C   UNL     1      -0.019   1.526   0.010  0.00  0.00    +0.025 C 
ATOM     20  C   UNL     1       0.002  -0.004   0.002  0.00  0.00    +0.091 C 
ATOM     21  C   UNL     1      -1.435  -0.537   0.029  0.00  0.00    +0.181 C 
ATOM     22  O   UNL     1      -1.399  -1.962   0.154  0.00  0.00    -0.344 OA
ATOM     23  C   UNL     1      -0.706  -2.421   1.318  0.00  0.00    +0.318 C 
ATOM     24  O   UNL     1       0.640  -1.941   1.291  0.00  0.00    -0.344 OA
ATOM     25  C   UNL     1       0.743  -0.514   1.243  0.00  0.00    +0.181 C 
BRANCH  20  26
ATOM     26  C   UNL     1       0.702  -0.493  -1.240  0.00  0.00    +0.223 C 
ATOM     27  O   UNL     1       1.698  -1.178  -1.145  0.00  0.00    -0.275 OA
ATOM     28  N   UNL     1       0.220  -0.168  -2.457  0.00  0.00    -0.314 N 
ATOM     29  H   UNL     1      -0.577   0.380  -2.532  0.00  0.00    +0.149 HD
BRANCH  28  30
ATOM     30  C   UNL     1       0.900  -0.643  -3.664  0.00  0.00    +0.107 C 
BRANCH  30  31
ATOM     31  C   UNL     1       0.155  -0.138  -4.901  0.00  0.00    +0.006 C 
ATOM     32  C   UNL     1      -0.478  -1.184  -5.821  0.00  0.00    +0.005 C 
ATOM     33  C   UNL     1       0.776  -0.430  -6.268  0.00  0.00    +0.005 C 
ENDBRANCH  30  31
ENDBRANCH  28  30
ENDBRANCH  20  26
ENDBRANCH   1  23
BRANCH   5  34
ATOM     34  C   UNL     1      -2.101  -7.156   0.588  0.00  0.00    +0.003 A 
ATOM     35  C   UNL     1      -1.456  -8.322   0.176  0.00  0.00    +0.013 A 
ATOM     36  C   UNL     1      -2.197  -9.413  -0.227  0.00  0.00    +0.039 A 
ATOM     37  C   UNL     1      -3.582  -9.352  -0.223  0.00  0.00    +0.123 A 
ATOM     38  C   UNL     1      -4.228  -8.196   0.186  0.00  0.00    +0.039 A 
ATOM     39  C   UNL     1      -3.495  -7.102   0.596  0.00  0.00    +0.013 A 
ATOM     40  F   UNL     1      -4.304 -10.423  -0.618  0.00  0.00    -0.205 F 
ENDBRANCH   5  34
TORSDOF 9
