REMARK  Name = CHEMBL336681
REMARK  12 active torsions:
REMARK  status: ('A' for Active; 'I' for Inactive)
REMARK    1  A    between atoms: C_1  and  C_2
REMARK    2  A    between atoms: C_5  and  N_8
REMARK    3  A    between atoms: C_9  and  N_17
REMARK    4  A    between atoms: C_11  and  C_13
REMARK    5  A    between atoms: C_13  and  C_14
REMARK    6  A    between atoms: C_13  and  C_15
REMARK    7  A    between atoms: C_13  and  C_16
REMARK    8  A    between atoms: N_20  and  C_21
REMARK    9  A    between atoms: C_24  and  O_31
REMARK   10  A    between atoms: O_31  and  C_32
REMARK   11  A    between atoms: C_32  and  C_33
REMARK   12  A    between atoms: C_33  and  N_34
REMARK                            x       y       z     vdW  Elec       q    Type
REMARK                         _______ _______ _______ _____ _____    ______ ____
ROOT
ATOM      1  N   UNL     1       1.049  -4.444   2.372  0.00  0.00    -0.254 N 
ATOM      2  C   UNL     1       1.627  -5.346   3.190  0.00  0.00    +0.309 C 
ATOM      3  O   UNL     1       1.115  -6.438   3.351  0.00  0.00    -0.252 OA
ATOM      4  N   UNL     1       2.773  -5.038   3.830  0.00  0.00    -0.269 N 
ATOM      5  H   UNL     1       1.457  -3.574   2.244  0.00  0.00    +0.158 HD
ATOM      6  H   UNL     1       3.216  -4.194   3.652  0.00  0.00    +0.156 HD
ENDROOT
BRANCH   4   7
ATOM      7  C   UNL     1       3.323  -5.936   4.751  0.00  0.00    +0.043 A 
ATOM      8  C   UNL     1       3.215  -7.294   4.545  0.00  0.00    +0.027 A 
ATOM      9  C   UNL     1       3.758  -8.199   5.453  0.00  0.00    +0.048 A 
ATOM     10  C   UNL     1       4.411  -7.766   6.572  0.00  0.00    +0.128 A 
ATOM     11  C   UNL     1       4.542  -6.385   6.817  0.00  0.00    +0.026 A 
ATOM     12  C   UNL     1       3.997  -5.458   5.894  0.00  0.00    +0.007 A 
ATOM     13  C   UNL     1       4.132  -4.082   6.137  0.00  0.00    +0.010 A 
ATOM     14  C   UNL     1       4.789  -3.656   7.251  0.00  0.00    +0.001 A 
ATOM     15  C   UNL     1       5.330  -4.567   8.156  0.00  0.00    +0.001 A 
ATOM     16  C   UNL     1       5.208  -5.908   7.958  0.00  0.00    +0.012 A 
BRANCH  10  17
ATOM     17  O   UNL     1       4.934  -8.666   7.447  0.00  0.00    -0.490 OA
BRANCH  17  18
ATOM     18  C   UNL     1       4.762 -10.049   7.133  0.00  0.00    +0.244 C 
BRANCH  18  19
ATOM     19  C   UNL     1       5.412 -10.903   8.225  0.00  0.00    +0.125 C 
BRANCH  19  20
ATOM     20  N   UNL     1       4.699 -10.701   9.493  0.00  0.00    -0.303 NA
ATOM     21  C   UNL     1       3.328 -11.224   9.417  0.00  0.00    +0.065 C 
ATOM     22  C   UNL     1       2.603 -10.941  10.735  0.00  0.00    -0.067 C 
ATOM     23  N   UNL     1       3.329 -11.580  11.840  0.00  0.00    +0.381 N 
ATOM     24  C   UNL     1       4.688 -11.030  11.919  0.00  0.00    -0.067 C 
ATOM     25  C   UNL     1       5.431 -11.314  10.611  0.00  0.00    +0.065 C 
ATOM     26  H   UNL     1       2.844 -11.404  12.707  0.00  0.00    -0.086 HD
ATOM     27  H   UNL     1       3.378 -12.575  11.679  0.00  0.00    -0.086 HD
ENDBRANCH  19  20
ENDBRANCH  18  19
ENDBRANCH  17  18
ENDBRANCH  10  17
ENDBRANCH   4   7
BRANCH   1  29
ATOM     28  N   UNL     1      -0.826  -3.955   0.860  0.00  0.00    -0.218 N 
ATOM     29  C   UNL     1      -0.137  -4.763   1.710  0.00  0.00    +0.130 A 
ATOM     30  C   UNL     1      -0.816  -5.940   1.796  0.00  0.00    +0.069 A 
ATOM     31  C   UNL     1      -1.945  -5.844   0.978  0.00  0.00    +0.071 A 
ATOM     32  N   UNL     1      -1.956  -4.658   0.423  0.00  0.00    -0.169 NA
BRANCH  28  37
ATOM     33  C   UNL     1       0.605   1.331  -0.630  0.00  0.00    +0.044 C 
ATOM     34  C   UNL     1       0.225  -0.072  -0.234  0.00  0.00    -0.050 A 
ATOM     35  C   UNL     1      -0.388  -0.906  -1.152  0.00  0.00    +0.005 A 
ATOM     36  C   UNL     1      -0.738  -2.193  -0.792  0.00  0.00    +0.028 A 
ATOM     37  C   UNL     1      -0.472  -2.649   0.492  0.00  0.00    +0.067 A 
ATOM     38  C   UNL     1       0.144  -1.810   1.411  0.00  0.00    +0.028 A 
ATOM     39  C   UNL     1       0.495  -0.526   1.044  0.00  0.00    +0.005 A 
ENDBRANCH  28  37
BRANCH  31  40
ATOM     40  C   UNL     1      -2.978  -6.921   0.773  0.00  0.00    +0.006 C 
ATOM     41  C   UNL     1      -3.876  -7.008   2.010  0.00  0.00    +0.017 C 
ATOM     42  C   UNL     1      -3.830  -6.585  -0.452  0.00  0.00    +0.017 C 
ATOM     43  C   UNL     1      -2.279  -8.264   0.555  0.00  0.00    +0.017 C 
ENDBRANCH  31  40
ENDBRANCH   1  29
TORSDOF 8
