REMARK  Name = CHEMBL600583
REMARK  9 active torsions:
REMARK  status: ('A' for Active; 'I' for Inactive)
REMARK    1  A    between atoms: C_1  and  C_2
REMARK    2  A    between atoms: N_5  and  C_31
REMARK    3  A    between atoms: C_6  and  C_30
REMARK    4  A    between atoms: C_10  and  C_12
REMARK    5  A    between atoms: N_19  and  C_29
REMARK    6  A    between atoms: C_21  and  C_22
REMARK    7  A    between atoms: C_22  and  C_24
REMARK    8  A    between atoms: N_26  and  C_27
REMARK    9  A    between atoms: N_26  and  C_28
REMARK                            x       y       z     vdW  Elec       q    Type
REMARK                         _______ _______ _______ _____ _____    ______ ____
ROOT
ATOM      1  C   UNL     1      -1.563   2.297   1.645  0.00  0.00    +0.029 C 
ATOM      2  C   UNL     1      -1.835   0.800   1.484  0.00  0.00    +0.087 C 
ATOM      3  C   UNL     1      -3.212   0.462   2.067  0.00  0.00    +0.107 C 
ATOM      4  N   UNL     1      -3.192   0.679   3.519  0.00  0.00    -0.290 NA
ATOM      5  C   UNL     1      -2.237  -0.220   4.180  0.00  0.00    +0.072 C 
ATOM      6  C   UNL     1      -0.821   0.090   3.684  0.00  0.00    +0.127 C 
ATOM      7  N   UNL     1      -0.814   0.030   2.211  0.00  0.00    -0.292 N 
ATOM      8  C   UNL     1       0.097  -0.709   1.548  0.00  0.00    +0.248 C 
ATOM      9  O   UNL     1       0.135  -0.680   0.333  0.00  0.00    -0.270 OA
ATOM     10  C   UNL     1      -2.588  -1.671   3.847  0.00  0.00    +0.026 C 
ENDROOT
BRANCH   8  11
ATOM     11  C   UNL     1       1.048  -1.554   2.296  0.00  0.00    +0.056 A 
ATOM     12  C   UNL     1       1.931  -0.974   3.205  0.00  0.00    +0.025 A 
ATOM     13  C   UNL     1       2.821  -1.777   3.904  0.00  0.00    +0.012 A 
ATOM     14  C   UNL     1       2.834  -3.168   3.699  0.00  0.00    +0.051 A 
ATOM     15  C   UNL     1       1.946  -3.737   2.788  0.00  0.00    +0.047 A 
ATOM     16  C   UNL     1       1.060  -2.942   2.099  0.00  0.00    +0.055 A 
ATOM     17 CL   UNL     1      -0.047  -3.661   0.971  0.00  0.00    -0.083 Cl
ATOM     18  N   UNL     1       3.806  -3.702   4.517  0.00  0.00    -0.349 N 
ATOM     19  C   UNL     1       4.414  -2.737   5.231  0.00  0.00    +0.098 A 
ATOM     20  C   UNL     1       3.865  -1.509   4.913  0.00  0.00    +0.052 A 
ATOM     21  C   UNL     1       4.133  -5.128   4.598  0.00  0.00    +0.149 C 
BRANCH  20  22
ATOM     22  C   UNL     1       4.242  -0.209   5.464  0.00  0.00    +0.249 C 
ATOM     23  O   UNL     1       3.672   0.798   5.091  0.00  0.00    -0.282 OA
BRANCH  22  24
ATOM     24  C   UNL     1       5.327  -0.117   6.484  0.00  0.00    +0.287 C 
ATOM     25  O   UNL     1       5.947  -1.111   6.802  0.00  0.00    -0.266 OA
ATOM     26  N   UNL     1       5.619   1.070   7.053  0.00  0.00    -0.301 N 
ATOM     27  C   UNL     1       6.723   1.172   8.010  0.00  0.00    +0.132 C 
ATOM     28  C   UNL     1       4.831   2.258   6.713  0.00  0.00    +0.132 C 
ENDBRANCH  22  24
ENDBRANCH  20  22
ENDBRANCH   8  11
BRANCH   4  29
ATOM     29  C   UNL     1      -4.537   0.532   4.092  0.00  0.00    +0.088 C 
ATOM     30  C   UNL     1      -4.458   0.454   5.631  0.00  0.00    +0.028 C 
ATOM     31  C   UNL     1      -5.747   1.182   6.067  0.00  0.00    +0.037 C 
ATOM     32  C   UNL     1      -6.065   2.136   4.935  0.00  0.00    -0.043 A 
ATOM     33  C   UNL     1      -5.369   1.762   3.800  0.00  0.00    -0.027 A 
ATOM     34  C   UNL     1      -5.508   2.497   2.635  0.00  0.00    +0.005 A 
ATOM     35  C   UNL     1      -6.338   3.600   2.603  0.00  0.00    +0.000 A 
ATOM     36  C   UNL     1      -7.033   3.974   3.737  0.00  0.00    +0.000 A 
ATOM     37  C   UNL     1      -6.896   3.242   4.901  0.00  0.00    +0.004 A 
ENDBRANCH   4  29
TORSDOF 4
