REMARK  Name = CHEMBL23828
REMARK  4 active torsions:
REMARK  status: ('A' for Active; 'I' for Inactive)
REMARK    1  A    between atoms: C_6  and  C_7
REMARK    2  A    between atoms: C_8  and  C_19
REMARK    3  A    between atoms: C_11  and  C_13
REMARK    4  A    between atoms: C_13  and  O_18
REMARK                            x       y       z     vdW  Elec       q    Type
REMARK                         _______ _______ _______ _____ _____    ______ ____
ROOT
ATOM      1  C   UNL     1      -1.289  -0.733   0.056  0.00  0.00    +0.072 A 
ATOM      2  C   UNL     1      -1.529  -1.919   0.728  0.00  0.00    +0.072 A 
ATOM      3  N   UNL     1      -2.807  -2.300   0.387  0.00  0.00    -0.341 N 
ATOM      4  H   UNL     1      -3.271  -3.094   0.697  0.00  0.00    +0.167 HD
ATOM      5  C   UNL     1      -3.295  -1.366  -0.456  0.00  0.00    +0.118 A 
ATOM      6  N   UNL     1      -2.399  -0.439  -0.646  0.00  0.00    -0.341 N 
ATOM      7  H   UNL     1      -2.513   0.343  -1.210  0.00  0.00    +0.167 HD
ENDROOT
BRANCH   1  13
ATOM      8  C   UNL     1      -0.106   1.446   0.307  0.00  0.00    +0.013 A 
ATOM      9  C   UNL     1       1.057   2.187   0.353  0.00  0.00    +0.039 A 
ATOM     10  C   UNL     1       2.285   1.564   0.199  0.00  0.00    +0.123 A 
ATOM     11  C   UNL     1       2.352   0.194  -0.002  0.00  0.00    +0.039 A 
ATOM     12  C   UNL     1       1.195  -0.556  -0.049  0.00  0.00    +0.013 A 
ATOM     13  C   UNL     1      -0.044   0.067   0.106  0.00  0.00    +0.001 A 
ATOM     14  F   UNL     1       3.421   2.294   0.244  0.00  0.00    -0.205 F 
ENDBRANCH   1  13
BRANCH   2  15
ATOM     15  C   UNL     1      -0.601  -2.631   1.627  0.00  0.00    +0.003 A 
ATOM     16  C   UNL     1       0.096  -1.946   2.632  0.00  0.00    +0.030 A 
ATOM     17  C   UNL     1       0.953  -2.651   3.450  0.00  0.00    +0.111 A 
ATOM     18  N   UNL     1       1.120  -3.952   3.296  0.00  0.00    -0.263 NA
ATOM     19  C   UNL     1       0.484  -4.635   2.363  0.00  0.00    +0.111 A 
ATOM     20  C   UNL     1      -0.397  -4.012   1.505  0.00  0.00    +0.030 A 
ENDBRANCH   2  15
BRANCH   5  21
ATOM     21  C   UNL     1      -4.668  -1.389  -1.077  0.00  0.00    +0.121 C 
ATOM     22  C   UNL     1      -5.746  -1.444   0.025  0.00  0.00    +0.042 C 
ATOM     23  C   UNL     1      -6.843  -2.366  -0.563  0.00  0.00    +0.003 C 
ATOM     24  C   UNL     1      -6.019  -3.444  -1.310  0.00  0.00    +0.003 C 
ATOM     25  C   UNL     1      -4.842  -2.660  -1.926  0.00  0.00    +0.042 C 
BRANCH  21  26
ATOM     26  O   UNL     1      -4.856  -0.228  -1.890  0.00  0.00    -0.381 OA
ATOM     27  H   UNL     1      -4.770   0.607  -1.409  0.00  0.00    +0.211 HD
ENDBRANCH  21  26
ENDBRANCH   5  21
TORSDOF 4
