REMARK  Name = CHEMBL192848
REMARK  6 active torsions:
REMARK  status: ('A' for Active; 'I' for Inactive)
REMARK    1  A    between atoms: C_1  and  C_2
REMARK    2  A    between atoms: C_2  and  C_3
REMARK    3  A    between atoms: C_2  and  S_4
REMARK    4  A    between atoms: S_4  and  N_7
REMARK    5  A    between atoms: C_10  and  C_17
REMARK    6  A    between atoms: C_18  and  C_23
REMARK                            x       y       z     vdW  Elec       q    Type
REMARK                         _______ _______ _______ _____ _____    ______ ____
ROOT
ATOM      1  N   UNL     1      -2.071  -2.163   0.062  0.00  0.00    -0.183 N 
ATOM      2  C   UNL     1      -1.793  -3.071  -0.947  0.00  0.00    +0.094 A 
ATOM      3  C   UNL     1      -1.725  -2.979  -2.326  0.00  0.00    +0.039 A 
ATOM      4  C   UNL     1      -1.410  -4.112  -3.077  0.00  0.00    +0.002 A 
ATOM      5  C   UNL     1      -1.166  -5.333  -2.436  0.00  0.00    +0.012 A 
ATOM      6  C   UNL     1      -1.232  -5.427  -1.077  0.00  0.00    +0.030 A 
ATOM      7  C   UNL     1      -1.546  -4.300  -0.311  0.00  0.00    +0.093 A 
ATOM      8  N   UNL     1      -1.681  -4.091   1.025  0.00  0.00    -0.213 NA
ATOM      9  C   UNL     1      -1.983  -2.837   1.247  0.00  0.00    +0.214 A 
ATOM     10  N   UNL     1      -2.187  -2.279   2.492  0.00  0.00    -0.328 N 
ATOM     11  H   UNL     1      -2.412  -1.339   2.571  0.00  0.00    +0.145 HD
ATOM     12  H   UNL     1      -2.106  -2.828   3.288  0.00  0.00    +0.145 HD
ENDROOT
BRANCH   4  13
ATOM     13  C   UNL     1      -1.336  -4.023  -4.548  0.00  0.00    +0.072 A 
ATOM     14  C   UNL     1      -1.912  -4.887  -5.462  0.00  0.00    +0.072 A 
ATOM     15  N   UNL     1      -1.598  -4.441  -6.694  0.00  0.00    -0.345 N 
ATOM     16  C   UNL     1      -0.870  -3.364  -6.596  0.00  0.00    +0.171 A 
ATOM     17  N   UNL     1      -0.684  -3.062  -5.286  0.00  0.00    -0.345 N 
ATOM     18  H   UNL     1      -0.184  -2.309  -4.935  0.00  0.00    +0.167 HD
ATOM     19  H   UNL     1      -1.872  -4.858  -7.526  0.00  0.00    +0.167 HD
BRANCH  14  20
ATOM     20  C   UNL     1      -2.724  -6.084  -5.145  0.00  0.00    +0.000 A 
ATOM     21  C   UNL     1      -3.750  -6.005  -4.203  0.00  0.00    +0.010 A 
ATOM     22  C   UNL     1      -4.503  -7.123  -3.911  0.00  0.00    +0.001 A 
ATOM     23  C   UNL     1      -4.242  -8.322  -4.551  0.00  0.00    +0.000 A 
ATOM     24  C   UNL     1      -3.226  -8.407  -5.486  0.00  0.00    +0.001 A 
ATOM     25  C   UNL     1      -2.470  -7.294  -5.790  0.00  0.00    +0.010 A 
ENDBRANCH  14  20
ENDBRANCH   4  13
BRANCH   1  26
ATOM     26  S   UNL     1      -2.435  -0.559  -0.131  0.00  0.00    +0.060 S 
ATOM     27  O   UNL     1      -3.202  -0.220   1.016  0.00  0.00    -0.153 OA
ATOM     28  O   UNL     1      -2.998  -0.470  -1.433  0.00  0.00    -0.153 OA
BRANCH  26  30
ATOM     29  C   UNL     1      -1.057   1.804  -0.131  0.00  0.00    +0.033 C 
ATOM     30  C   UNL     1      -0.833   0.291  -0.085  0.00  0.00    +0.148 C 
ATOM     31  C   UNL     1      -0.098  -0.076   1.206  0.00  0.00    +0.033 C 
ENDBRANCH  26  30
ENDBRANCH   1  26
TORSDOF 4
