REMARK  Name = CHEMBL122061
REMARK  3 active torsions:
REMARK  status: ('A' for Active; 'I' for Inactive)
REMARK    1  A    between atoms: C_4  and  C_7
REMARK    2  A    between atoms: C_8  and  C_17
REMARK    3  A    between atoms: N_23  and  C_24
REMARK                            x       y       z     vdW  Elec       q    Type
REMARK                         _______ _______ _______ _____ _____    ______ ____
ROOT
ATOM      1  C   UNL     1       3.697  -0.687  -0.038  0.00  0.00    +0.099 A 
ATOM      2  C   UNL     1       3.968  -1.892   0.591  0.00  0.00    +0.083 A 
ATOM      3  N   UNL     1       5.286  -2.190   0.312  0.00  0.00    -0.283 N 
ATOM      4  C   UNL     1       6.086  -3.241   0.665  0.00  0.00    +0.098 A 
ATOM      5  C   UNL     1       7.367  -3.268   0.236  0.00  0.00    +0.061 A 
ATOM      6  C   UNL     1       7.847  -2.210  -0.566  0.00  0.00    +0.121 A 
ATOM      7  N   UNL     1       7.050  -1.209  -0.890  0.00  0.00    -0.197 NA
ATOM      8  C   UNL     1       5.778  -1.177  -0.467  0.00  0.00    +0.238 A 
ATOM      9  N   UNL     1       4.811  -0.291  -0.670  0.00  0.00    -0.210 NA
ATOM     10  N   UNL     1       9.155  -2.223  -1.012  0.00  0.00    -0.343 N 
ATOM     11  H   UNL     1       9.741  -2.958  -0.775  0.00  0.00    +0.144 HD
ATOM     12  H   UNL     1       9.486  -1.496  -1.563  0.00  0.00    +0.144 HD
ENDROOT
BRANCH   2  13
ATOM     13  C   UNL     1       3.034  -2.696   1.399  0.00  0.00    +0.006 A 
ATOM     14  C   UNL     1       2.949  -4.088   1.232  0.00  0.00    +0.030 A 
ATOM     15  C   UNL     1       2.064  -4.802   2.006  0.00  0.00    +0.113 A 
ATOM     16  N   UNL     1       1.298  -4.199   2.897  0.00  0.00    -0.240 NA
ATOM     17  C   UNL     1       1.342  -2.889   3.090  0.00  0.00    +0.120 A 
ATOM     18  C   UNL     1       2.210  -2.093   2.356  0.00  0.00    +0.053 A 
ATOM     19  N   UNL     1       0.513  -2.305   4.041  0.00  0.00    -0.322 N 
ATOM     20  H   UNL     1      -0.094  -2.857   4.560  0.00  0.00    +0.148 HD
BRANCH  19  21
ATOM     21  C   UNL     1       0.555  -0.857   4.261  0.00  0.00    +0.102 C 
ATOM     22  C   UNL     1      -0.788  -0.393   4.820  0.00  0.00    +0.027 C 
ATOM     23  C   UNL     1      -0.654   1.074   5.246  0.00  0.00    +0.007 C 
ATOM     24  C   UNL     1       0.245   1.137   6.479  0.00  0.00    +0.035 C 
ATOM     25  C   UNL     1       1.528   0.386   6.237  0.00  0.00    -0.042 A 
ATOM     26  C   UNL     1       1.669  -0.533   5.222  0.00  0.00    -0.024 A 
ATOM     27  C   UNL     1       2.877  -1.196   5.059  0.00  0.00    +0.006 A 
ATOM     28  C   UNL     1       3.938  -0.940   5.904  0.00  0.00    +0.000 A 
ATOM     29  C   UNL     1       3.797  -0.015   6.921  0.00  0.00    +0.000 A 
ATOM     30  C   UNL     1       2.597   0.644   7.085  0.00  0.00    +0.004 A 
ENDBRANCH  19  21
ENDBRANCH   2  13
BRANCH   1  34
ATOM     31  C   UNL     1      -0.017   1.379   0.010  0.00  0.00    +0.000 A 
ATOM     32  C   UNL     1       1.169   2.093   0.002  0.00  0.00    +0.001 A 
ATOM     33  C   UNL     1       2.377   1.427  -0.013  0.00  0.00    +0.010 A 
ATOM     34  C   UNL     1       2.403   0.033  -0.021  0.00  0.00    +0.003 A 
ATOM     35  C   UNL     1       1.205  -0.680  -0.013  0.00  0.00    +0.010 A 
ATOM     36  C   UNL     1       0.002  -0.004   0.002  0.00  0.00    +0.001 A 
ENDBRANCH   1  34
TORSDOF 3
