REMARK  Name = CHEMBL109732
REMARK  10 active torsions:
REMARK  status: ('A' for Active; 'I' for Inactive)
REMARK    1  A    between atoms: C_1  and  C_2
REMARK    2  A    between atoms: C_2  and  C_3
REMARK    3  A    between atoms: C_2  and  N_9
REMARK    4  A    between atoms: C_12  and  C_16
REMARK    5  A    between atoms: C_17  and  C_33
REMARK    6  A    between atoms: C_19  and  S_22
REMARK    7  A    between atoms: S_22  and  C_23
REMARK    8  A    between atoms: C_23  and  C_24
REMARK    9  A    between atoms: C_27  and  S_30
REMARK   10  A    between atoms: S_30  and  C_32
REMARK                            x       y       z     vdW  Elec       q    Type
REMARK                         _______ _______ _______ _____ _____    ______ ____
ROOT
ATOM      1  C   UNL     1      -3.498  -0.107  -3.733  0.00  0.00    +0.098 A 
ATOM      2  C   UNL     1      -4.141   0.442  -4.825  0.00  0.00    +0.075 A 
ATOM      3  N   UNL     1      -5.468   0.576  -4.469  0.00  0.00    -0.332 N 
ATOM      4  C   UNL     1      -5.592   0.112  -3.193  0.00  0.00    +0.168 A 
ATOM      5  N   UNL     1      -4.420  -0.296  -2.767  0.00  0.00    -0.221 NA
ATOM      6  H   UNL     1      -6.180   0.933  -5.023  0.00  0.00    +0.168 HD
ENDROOT
BRANCH   1  10
ATOM      7  N   UNL     1       0.688  -0.476  -1.203  0.00  0.00    -0.324 N 
ATOM      8  C   UNL     1      -0.015  -0.612  -2.395  0.00  0.00    +0.097 A 
ATOM      9  C   UNL     1      -1.366  -0.293  -2.436  0.00  0.00    +0.051 A 
ATOM     10  C   UNL     1      -2.058  -0.435  -3.641  0.00  0.00    +0.007 A 
ATOM     11  C   UNL     1      -1.352  -0.896  -4.760  0.00  0.00    +0.027 A 
ATOM     12  C   UNL     1      -0.013  -1.191  -4.635  0.00  0.00    +0.085 A 
ATOM     13  N   UNL     1       0.612  -1.040  -3.481  0.00  0.00    -0.350 N 
ATOM     14  H   UNL     1       1.632  -0.695  -1.170  0.00  0.00    +0.148 HD
ATOM     15  H   UNL     1       1.557  -1.253  -3.426  0.00  0.00    +0.166 HD
BRANCH   7  17
ATOM     16  C   UNL     1      -0.019   1.526   0.010  0.00  0.00    +0.033 C 
ATOM     17  C   UNL     1       0.002  -0.004   0.002  0.00  0.00    +0.099 C 
BRANCH  17  18
ATOM     18  C   UNL     1       0.731  -0.503   1.223  0.00  0.00    -0.028 A 
ATOM     19  C   UNL     1       2.113  -0.514   1.247  0.00  0.00    +0.005 A 
ATOM     20  C   UNL     1       2.782  -0.972   2.366  0.00  0.00    +0.000 A 
ATOM     21  C   UNL     1       2.068  -1.419   3.463  0.00  0.00    +0.000 A 
ATOM     22  C   UNL     1       0.686  -1.407   3.439  0.00  0.00    +0.000 A 
ATOM     23  C   UNL     1       0.017  -0.945   2.321  0.00  0.00    +0.005 A 
ENDBRANCH  17  18
ENDBRANCH   7  17
ENDBRANCH   1  10
BRANCH   2  24
ATOM     24  C   UNL     1      -3.530   0.814  -6.116  0.00  0.00    +0.001 A 
ATOM     25  C   UNL     1      -2.317   1.505  -6.145  0.00  0.00    +0.013 A 
ATOM     26  C   UNL     1      -1.751   1.849  -7.355  0.00  0.00    +0.039 A 
ATOM     27  C   UNL     1      -2.384   1.510  -8.540  0.00  0.00    +0.123 A 
ATOM     28  C   UNL     1      -3.587   0.823  -8.518  0.00  0.00    +0.039 A 
ATOM     29  C   UNL     1      -4.160   0.469  -7.315  0.00  0.00    +0.013 A 
ATOM     30  F   UNL     1      -1.825   1.850  -9.723  0.00  0.00    -0.205 F 
ENDBRANCH   2  24
BRANCH   4  31
ATOM     31  S   UNL     1      -7.089   0.062  -2.266  0.00  0.00    -0.083 S 
BRANCH  31  32
ATOM     32  C   UNL     1      -6.595  -0.650  -0.672  0.00  0.00    +0.112 C 
BRANCH  32  33
ATOM     33  C   UNL     1      -7.799  -0.750   0.228  0.00  0.00    -0.037 A 
ATOM     34  C   UNL     1      -8.131   0.305   1.058  0.00  0.00    +0.005 A 
ATOM     35  C   UNL     1      -9.235   0.213   1.884  0.00  0.00    +0.017 A 
ATOM     36  C   UNL     1     -10.008  -0.933   1.880  0.00  0.00    +0.039 A 
ATOM     37  C   UNL     1      -9.677  -1.987   1.050  0.00  0.00    +0.017 A 
ATOM     38  C   UNL     1      -8.575  -1.894   0.221  0.00  0.00    +0.005 A 
BRANCH  36  39
ATOM     39  S   UNL     1     -11.415  -1.050   2.934  0.00  0.00    +0.051 S 
ATOM     40  O   UNL     1     -11.592  -2.448   3.117  0.00  0.00    -0.252 OA
ATOM     41  C   UNL     1     -12.774  -0.395   1.927  0.00  0.00    +0.127 C 
ENDBRANCH  36  39
ENDBRANCH  32  33
ENDBRANCH  31  32
ENDBRANCH   4  31
TORSDOF 8
