REMARK  Name = CHEMBL364572
REMARK  7 active torsions:
REMARK  status: ('A' for Active; 'I' for Inactive)
REMARK    1  A    between atoms: C_1  and  C_2
REMARK    2  A    between atoms: C_2  and  C_3
REMARK    3  A    between atoms: C_2  and  S_4
REMARK    4  A    between atoms: S_4  and  N_7
REMARK    5  A    between atoms: C_10  and  C_17
REMARK    6  A    between atoms: C_18  and  C_31
REMARK    7  A    between atoms: C_20  and  C_23
REMARK                            x       y       z     vdW  Elec       q    Type
REMARK                         _______ _______ _______ _____ _____    ______ ____
ROOT
ATOM      1  C   UNL     1      -1.336  -4.024  -4.547  0.00  0.00    +0.072 A 
ATOM      2  C   UNL     1      -1.913  -4.891  -5.461  0.00  0.00    +0.072 A 
ATOM      3  N   UNL     1      -1.605  -4.452  -6.692  0.00  0.00    -0.339 N 
ATOM      4  C   UNL     1      -0.872  -3.366  -6.602  0.00  0.00    +0.122 A 
ATOM      5  N   UNL     1      -0.685  -3.061  -5.284  0.00  0.00    -0.339 N 
ATOM      6  H   UNL     1      -0.185  -2.307  -4.933  0.00  0.00    +0.167 HD
ATOM      7  H   UNL     1      -1.882  -4.874  -7.521  0.00  0.00    +0.167 HD
ENDROOT
BRANCH   1  11
ATOM      8  N   UNL     1      -2.071  -2.165   0.063  0.00  0.00    -0.183 N 
ATOM      9  C   UNL     1      -1.792  -3.072  -0.947  0.00  0.00    +0.094 A 
ATOM     10  C   UNL     1      -1.725  -2.980  -2.326  0.00  0.00    +0.039 A 
ATOM     11  C   UNL     1      -1.410  -4.113  -3.077  0.00  0.00    +0.002 A 
ATOM     12  C   UNL     1      -1.163  -5.334  -2.436  0.00  0.00    +0.012 A 
ATOM     13  C   UNL     1      -1.229  -5.428  -1.077  0.00  0.00    +0.030 A 
ATOM     14  C   UNL     1      -1.544  -4.301  -0.311  0.00  0.00    +0.093 A 
ATOM     15  N   UNL     1      -1.679  -4.093   1.025  0.00  0.00    -0.213 NA
ATOM     16  C   UNL     1      -1.982  -2.838   1.248  0.00  0.00    +0.214 A 
ATOM     17  N   UNL     1      -2.186  -2.282   2.492  0.00  0.00    -0.328 N 
ATOM     18  H   UNL     1      -2.412  -1.342   2.572  0.00  0.00    +0.145 HD
ATOM     19  H   UNL     1      -2.104  -2.830   3.288  0.00  0.00    +0.145 HD
BRANCH   8  20
ATOM     20  S   UNL     1      -2.436  -0.561  -0.130  0.00  0.00    +0.060 S 
ATOM     21  O   UNL     1      -3.204  -0.223   1.017  0.00  0.00    -0.153 OA
ATOM     22  O   UNL     1      -3.001  -0.472  -1.431  0.00  0.00    -0.153 OA
BRANCH  20  24
ATOM     23  C   UNL     1      -1.061   1.803  -0.129  0.00  0.00    +0.033 C 
ATOM     24  C   UNL     1      -0.835   0.291  -0.084  0.00  0.00    +0.148 C 
ATOM     25  C   UNL     1      -0.100  -0.077   1.206  0.00  0.00    +0.033 C 
ENDBRANCH  20  24
ENDBRANCH   8  20
ENDBRANCH   1  11
BRANCH   4  26
ATOM     26  C   UNL     1      -0.339  -2.596  -7.744  0.00  0.00    +0.086 A 
ATOM     27  C   UNL     1      -0.229  -1.204  -7.663  0.00  0.00    +0.137 A 
ATOM     28  C   UNL     1       0.271  -0.490  -8.736  0.00  0.00    +0.039 A 
ATOM     29  C   UNL     1       0.662  -1.149  -9.887  0.00  0.00    +0.006 A 
ATOM     30  C   UNL     1       0.557  -2.525  -9.976  0.00  0.00    +0.039 A 
ATOM     31  C   UNL     1       0.064  -3.254  -8.910  0.00  0.00    +0.137 A 
ATOM     32  F   UNL     1      -0.033  -4.599  -8.996  0.00  0.00    -0.205 F 
ATOM     33  F   UNL     1      -0.612  -0.559  -6.539  0.00  0.00    -0.205 F 
ENDBRANCH   4  26
BRANCH   2  34
ATOM     34  C   UNL     1      -2.725  -6.087  -5.137  0.00  0.00    +0.000 A 
ATOM     35  C   UNL     1      -3.749  -6.004  -4.194  0.00  0.00    +0.010 A 
ATOM     36  C   UNL     1      -4.501  -7.122  -3.896  0.00  0.00    +0.001 A 
ATOM     37  C   UNL     1      -4.242  -8.323  -4.532  0.00  0.00    +0.000 A 
ATOM     38  C   UNL     1      -3.228  -8.412  -5.468  0.00  0.00    +0.001 A 
ATOM     39  C   UNL     1      -2.472  -7.299  -5.778  0.00  0.00    +0.010 A 
ENDBRANCH   2  34
TORSDOF 5
