REMARK  Name = CHEMBL400486
REMARK  6 active torsions:
REMARK  status: ('A' for Active; 'I' for Inactive)
REMARK    1  A    between atoms: C_1  and  C_2
REMARK    2  A    between atoms: C_3  and  C_23
REMARK    3  A    between atoms: C_7  and  C_11
REMARK    4  A    between atoms: C_20  and  O_21
REMARK    5  A    between atoms: C_23  and  O_25
REMARK    6  A    between atoms: O_25  and  C_26
REMARK                            x       y       z     vdW  Elec       q    Type
REMARK                         _______ _______ _______ _____ _____    ______ ____
ROOT
ATOM      1  C   UNL     1      -0.018   1.503   0.010  0.00  0.00    +0.047 C 
ATOM      2  C   UNL     1       0.002  -0.004   0.002  0.00  0.00    -0.008 A 
ATOM      3  C   UNL     1       0.009  -0.840  -1.136  0.00  0.00    +0.082 A 
ATOM      4  C   UNL     1       0.029  -2.149  -0.682  0.00  0.00    +0.128 A 
ATOM      5  N   UNL     1       0.035  -2.140   0.659  0.00  0.00    -0.235 N 
ATOM      6  C   UNL     1       0.024  -0.829   1.099  0.00  0.00    +0.095 A 
ATOM      7  C   UNL     1       0.034  -0.588   2.545  0.00  0.00    +0.104 A 
ATOM      8  N   UNL     1       0.056  -1.637   3.361  0.00  0.00    -0.231 NA
ATOM      9  C   UNL     1       0.069  -2.881   2.892  0.00  0.00    +0.244 A 
ATOM     10  N   UNL     1       0.052  -3.162   1.619  0.00  0.00    -0.155 NA
ENDROOT
BRANCH   7  11
ATOM     11  C   UNL     1       0.020   0.781   3.079  0.00  0.00    +0.071 A 
ATOM     12  C   UNL     1      -1.168   1.586   3.417  0.00  0.00    +0.013 A 
ATOM     13  C   UNL     1      -2.540   1.352   3.352  0.00  0.00    +0.013 A 
ATOM     14  C   UNL     1      -3.420   2.334   3.752  0.00  0.00    +0.039 A 
ATOM     15  C   UNL     1      -2.944   3.552   4.219  0.00  0.00    +0.125 A 
ATOM     16  C   UNL     1      -1.587   3.796   4.289  0.00  0.00    +0.064 A 
ATOM     17  C   UNL     1      -0.684   2.816   3.889  0.00  0.00    +0.053 A 
ATOM     18  N   UNL     1       0.697   2.772   3.844  0.00  0.00    -0.325 N 
ATOM     19  H   UNL     1       1.283   3.495   4.116  0.00  0.00    +0.169 HD
ATOM     20  C   UNL     1       1.118   1.567   3.371  0.00  0.00    +0.201 A 
ATOM     21  F   UNL     1      -3.816   4.508   4.609  0.00  0.00    -0.205 F 
BRANCH  20  22
ATOM     22  O   UNL     1       2.409   1.198   3.208  0.00  0.00    -0.493 OA
ATOM     23  H   UNL     1       2.773   1.412   2.338  0.00  0.00    +0.294 HD
ENDBRANCH  20  22
ENDBRANCH   7  11
BRANCH   3  24
ATOM     24  C   UNL     1      -0.004  -0.402  -2.542  0.00  0.00    +0.341 C 
ATOM     25  O   UNL     1      -0.022   0.783  -2.810  0.00  0.00    -0.245 OA
BRANCH  24  26
ATOM     26  O   UNL     1       0.005  -1.316  -3.532  0.00  0.00    -0.464 OA
ATOM     27  C   UNL     1      -0.008  -0.821  -4.873  0.00  0.00    +0.280 C 
ENDBRANCH  24  26
ENDBRANCH   3  24
TORSDOF 4
