REMARK  Name = CHEMBL212803
REMARK  4 active torsions:
REMARK  status: ('A' for Active; 'I' for Inactive)
REMARK    1  A    between atoms: C_1  and  N_2
REMARK    2  A    between atoms: C_8  and  N_10
REMARK    3  A    between atoms: C_13  and  C_30
REMARK    4  A    between atoms: N_17  and  C_22
REMARK                            x       y       z     vdW  Elec       q    Type
REMARK                         _______ _______ _______ _____ _____    ______ ____
ROOT
ATOM      1  N   UNL     1      -1.191  -2.532   2.167  0.00  0.00    -0.311 N 
ATOM      2  C   UNL     1      -2.150  -3.463   2.527  0.00  0.00    +0.218 A 
ATOM      3  N   UNL     1      -2.513  -4.381   1.645  0.00  0.00    -0.214 NA
ATOM      4  C   UNL     1      -3.435  -5.297   1.956  0.00  0.00    +0.084 A 
ATOM      5  C   UNL     1      -4.001  -5.261   3.220  0.00  0.00    +0.036 A 
ATOM      6  C   UNL     1      -3.597  -4.281   4.124  0.00  0.00    +0.144 A 
ATOM      7  N   UNL     1      -2.670  -3.407   3.745  0.00  0.00    -0.198 NA
ATOM      8  N   UNL     1      -4.159  -4.237   5.390  0.00  0.00    -0.205 N 
ATOM      9  C   UNL     1      -5.091  -5.106   5.804  0.00  0.00    +0.312 C 
ATOM     10  O   UNL     1      -5.527  -4.990   6.933  0.00  0.00    -0.252 OA
ATOM     11  N   UNL     1      -5.568  -6.098   5.032  0.00  0.00    -0.294 N 
ATOM     12  C   UNL     1      -5.049  -6.251   3.661  0.00  0.00    +0.146 C 
ATOM     13  H   UNL     1      -0.911  -1.854   2.802  0.00  0.00    +0.149 HD
ATOM     14  H   UNL     1      -6.244  -6.705   5.373  0.00  0.00    +0.151 HD
ENDROOT
BRANCH   1  22
ATOM     15  C   UNL     1       2.100   0.773   1.129  0.00  0.00    -0.095 C 
ATOM     16  N   UNL     1       1.314  -0.390   0.696  0.00  0.00    +0.382 N 
ATOM     17  C   UNL     1      -0.142  -0.117   0.829  0.00  0.00    -0.067 C 
ATOM     18  C   UNL     1      -0.418  -0.261   2.344  0.00  0.00    -0.017 C 
ATOM     19  C   UNL     1       0.690  -1.202   2.860  0.00  0.00    -0.017 C 
ATOM     20  C   UNL     1       1.535  -1.542   1.610  0.00  0.00    -0.067 C 
ATOM     21  C   UNL     1       0.912  -2.779   0.943  0.00  0.00    +0.007 C 
ATOM     22  C   UNL     1      -0.600  -2.571   0.827  0.00  0.00    +0.070 C 
ATOM     23  C   UNL     1      -0.886  -1.250   0.106  0.00  0.00    +0.007 C 
ATOM     24  H   UNL     1       1.545  -0.641  -0.254  0.00  0.00    -0.081 HD
ENDBRANCH   1  22
BRANCH   8  25
ATOM     25  C   UNL     1      -3.731  -3.240   6.278  0.00  0.00    +0.081 A 
ATOM     26  C   UNL     1      -2.653  -3.475   7.122  0.00  0.00    +0.064 A 
ATOM     27  C   UNL     1      -2.235  -2.490   7.996  0.00  0.00    +0.022 A 
ATOM     28  C   UNL     1      -2.887  -1.271   8.031  0.00  0.00    +0.003 A 
ATOM     29  C   UNL     1      -3.961  -1.034   7.193  0.00  0.00    +0.022 A 
ATOM     30  C   UNL     1      -4.381  -2.013   6.311  0.00  0.00    +0.064 A 
ATOM     31 CL   UNL     1      -5.723  -1.711   5.253  0.00  0.00    -0.082 Cl
ATOM     32 CL   UNL     1      -1.833  -5.005   7.080  0.00  0.00    -0.082 Cl
ENDBRANCH   8  25
BRANCH   4  33
ATOM     33  C   UNL     1      -3.844  -6.327   0.970  0.00  0.00    +0.019 A 
ATOM     34  C   UNL     1      -5.190  -6.487   0.643  0.00  0.00    +0.011 A 
ATOM     35  C   UNL     1      -5.565  -7.447  -0.275  0.00  0.00    +0.001 A 
ATOM     36  C   UNL     1      -4.608  -8.251  -0.870  0.00  0.00    +0.001 A 
ATOM     37  C   UNL     1      -3.272  -8.097  -0.550  0.00  0.00    +0.020 A 
ATOM     38  C   UNL     1      -2.884  -7.135   0.362  0.00  0.00    +0.050 A 
ATOM     39 CL   UNL     1      -1.205  -6.938   0.758  0.00  0.00    -0.083 Cl
ENDBRANCH   4  33
TORSDOF 3
