REMARK  Name = CHEMBL1090230
REMARK  7 active torsions:
REMARK  status: ('A' for Active; 'I' for Inactive)
REMARK    1  A    between atoms: C_1  and  C_2
REMARK    2  A    between atoms: C_2  and  C_4
REMARK    3  A    between atoms: C_2  and  N_10
REMARK    4  A    between atoms: C_15  and  N_17
REMARK    5  A    between atoms: N_17  and  C_18
REMARK    6  A    between atoms: C_18  and  C_19
REMARK    7  A    between atoms: C_25  and  C_27
REMARK                            x       y       z     vdW  Elec       q    Type
REMARK                         _______ _______ _______ _____ _____    ______ ____
ROOT
ATOM      1  N   UNL     1       1.037  -1.570   5.771  0.00  0.00    -0.252 N 
ATOM      2  C   UNL     1       2.317  -1.979   5.671  0.00  0.00    +0.252 C 
ATOM      3  O   UNL     1       2.929  -1.813   4.634  0.00  0.00    -0.270 OA
ENDROOT
BRANCH   2   4
ATOM      4  C   UNL     1       2.975  -2.628   6.821  0.00  0.00    +0.038 A 
ATOM      5  C   UNL     1       2.245  -3.463   7.672  0.00  0.00    +0.016 A 
ATOM      6  C   UNL     1       2.861  -4.070   8.740  0.00  0.00    +0.046 A 
ATOM      7  C   UNL     1       4.219  -3.859   8.988  0.00  0.00    +0.124 A 
ATOM      8  C   UNL     1       4.938  -3.020   8.142  0.00  0.00    -0.002 A 
ATOM      9  C   UNL     1       4.336  -2.417   7.066  0.00  0.00    +0.020 A 
ATOM     10  C   UNL     1       6.359  -2.968   8.672  0.00  0.00    +0.080 C 
ATOM     11  C   UNL     1       6.189  -3.550  10.096  0.00  0.00    +0.234 C 
ATOM     12  O   UNL     1       5.012  -4.366   9.969  0.00  0.00    -0.491 OA
ENDBRANCH   2   4
BRANCH   1  18
ATOM     13  N   UNL     1       1.127  -0.214   1.277  0.00  0.00    -0.307 N 
ATOM     14  C   UNL     1       0.449  -0.294   2.481  0.00  0.00    +0.217 A 
ATOM     15  N   UNL     1      -0.773   0.209   2.568  0.00  0.00    -0.223 NA
ATOM     16  C   UNL     1      -1.453   0.151   3.704  0.00  0.00    +0.118 A 
ATOM     17  C   UNL     1      -0.874  -0.443   4.809  0.00  0.00    +0.064 A 
ATOM     18  C   UNL     1       0.415  -0.964   4.686  0.00  0.00    +0.133 A 
ATOM     19  N   UNL     1       1.037  -0.876   3.515  0.00  0.00    -0.199 NA
ATOM     20  H   UNL     1       2.021  -0.582   1.198  0.00  0.00    +0.149 HD
BRANCH  13  22
ATOM     21  C   UNL     1       0.726   1.936   0.183  0.00  0.00    +0.033 C 
ATOM     22  C   UNL     1       0.494   0.425   0.121  0.00  0.00    +0.100 C 
BRANCH  22  23
ATOM     23  C   UNL     1       1.094  -0.123  -1.148  0.00  0.00    -0.027 A 
ATOM     24  C   UNL     1       2.452  -0.369  -1.220  0.00  0.00    +0.005 A 
ATOM     25  C   UNL     1       3.003  -0.872  -2.384  0.00  0.00    +0.000 A 
ATOM     26  C   UNL     1       2.195  -1.129  -3.476  0.00  0.00    +0.000 A 
ATOM     27  C   UNL     1       0.837  -0.884  -3.404  0.00  0.00    +0.000 A 
ATOM     28  C   UNL     1       0.285  -0.385  -2.238  0.00  0.00    +0.005 A 
ENDBRANCH  22  23
ENDBRANCH  13  22
ENDBRANCH   1  18
BRANCH   1  29
ATOM     29  C   UNL     1       0.300  -1.764   7.022  0.00  0.00    +0.118 C 
BRANCH  29  30
ATOM     30  C   UNL     1      -0.572  -3.016   6.912  0.00  0.00    +0.003 C 
ATOM     31  C   UNL     1      -1.693  -2.772   5.898  0.00  0.00    -0.014 C 
ATOM     32  C   UNL     1      -2.607  -3.998   5.851  0.00  0.00    -0.082 C 
ATOM     33  N   UNL     1      -3.188  -4.230   7.179  0.00  0.00    +0.379 N 
ATOM     34  C   UNL     1      -2.124  -4.536   8.142  0.00  0.00    -0.082 C 
ATOM     35  C   UNL     1      -1.191  -3.331   8.277  0.00  0.00    -0.014 C 
ATOM     36  H   UNL     1      -3.683  -3.403   7.478  0.00  0.00    -0.086 HD
ATOM     37  H   UNL     1      -3.832  -5.006   7.132  0.00  0.00    -0.086 HD
ENDBRANCH  29  30
ENDBRANCH   1  29
TORSDOF 6
