REMARK  Name = CHEMBL17131
REMARK  5 active torsions:
REMARK  status: ('A' for Active; 'I' for Inactive)
REMARK    1  A    between atoms: C_4  and  C_7
REMARK    2  A    between atoms: C_7  and  N_8
REMARK    3  A    between atoms: C_14  and  C_29
REMARK    4  A    between atoms: C_16  and  N_17
REMARK    5  A    between atoms: N_17  and  C_18
REMARK                            x       y       z     vdW  Elec       q    Type
REMARK                         _______ _______ _______ _____ _____    ______ ____
ROOT
ATOM      1  N   UNL     1       4.164  -0.999   1.319  0.00  0.00    -0.310 N 
ATOM      2  C   UNL     1       5.027  -0.222   2.033  0.00  0.00    +0.202 A 
ATOM      3  N   UNL     1       5.196  -0.722   3.223  0.00  0.00    -0.231 NA
ATOM      4  C   UNL     1       4.456  -1.849   3.349  0.00  0.00    +0.148 A 
ATOM      5  C   UNL     1       3.779  -2.038   2.130  0.00  0.00    +0.166 A 
ATOM      6  N   UNL     1       2.973  -3.082   1.993  0.00  0.00    -0.208 NA
ATOM      7  C   UNL     1       2.802  -3.937   2.991  0.00  0.00    +0.167 A 
ATOM      8  N   UNL     1       3.419  -3.795   4.159  0.00  0.00    -0.209 NA
ATOM      9  C   UNL     1       4.249  -2.783   4.378  0.00  0.00    +0.165 A 
ENDROOT
BRANCH   7  10
ATOM     10  C   UNL     1       1.892  -5.091   2.797  0.00  0.00    +0.054 A 
ATOM     11  C   UNL     1       1.236  -5.269   1.580  0.00  0.00    +0.014 A 
ATOM     12  C   UNL     1       0.390  -6.344   1.406  0.00  0.00    +0.001 A 
ATOM     13  C   UNL     1       0.191  -7.247   2.436  0.00  0.00    +0.003 A 
ATOM     14  C   UNL     1       0.838  -7.079   3.645  0.00  0.00    +0.039 A 
ATOM     15  C   UNL     1       1.693  -6.008   3.831  0.00  0.00    +0.134 A 
ATOM     16  F   UNL     1       2.330  -5.846   5.012  0.00  0.00    -0.205 F 
ENDBRANCH   7  10
BRANCH   9  17
ATOM     17  N   UNL     1       4.888  -2.642   5.604  0.00  0.00    -0.201 N 
ATOM     18  C   UNL     1       6.056  -3.275   5.832  0.00  0.00    +0.310 C 
ATOM     19  O   UNL     1       6.566  -3.230   6.934  0.00  0.00    -0.252 OA
ATOM     20  N   UNL     1       6.658  -3.957   4.838  0.00  0.00    -0.313 N 
ATOM     21  H   UNL     1       6.290  -3.932   3.940  0.00  0.00    +0.147 HD
ATOM     22  H   UNL     1       7.458  -4.474   5.020  0.00  0.00    +0.147 HD
BRANCH  17  23
ATOM     23  C   UNL     1       4.317  -1.841   6.604  0.00  0.00    +0.114 A 
ATOM     24  C   UNL     1       4.628  -0.488   6.675  0.00  0.00    +0.148 A 
ATOM     25  C   UNL     1       4.063   0.299   7.663  0.00  0.00    +0.040 A 
ATOM     26  C   UNL     1       3.191  -0.259   8.579  0.00  0.00    +0.006 A 
ATOM     27  C   UNL     1       2.879  -1.604   8.512  0.00  0.00    +0.040 A 
ATOM     28  C   UNL     1       3.435  -2.396   7.523  0.00  0.00    +0.148 A 
ATOM     29  F   UNL     1       3.125  -3.709   7.454  0.00  0.00    -0.203 F 
ATOM     30  F   UNL     1       5.481   0.058   5.781  0.00  0.00    -0.203 F 
ENDBRANCH  17  23
ENDBRANCH   9  17
BRANCH   1  31
ATOM     31  C   UNL     1       3.724  -0.765  -0.059  0.00  0.00    +0.159 C 
BRANCH  31  35
ATOM     32  C   UNL     1       0.024   1.369  -0.031  0.00  0.00    +0.000 A 
ATOM     33  C   UNL     1       1.221   2.061  -0.050  0.00  0.00    +0.000 A 
ATOM     34  C   UNL     1       2.418   1.370  -0.059  0.00  0.00    +0.005 A 
ATOM     35  C   UNL     1       2.418  -0.012  -0.048  0.00  0.00    -0.028 A 
ATOM     36  C   UNL     1       1.222  -0.704  -0.028  0.00  0.00    +0.005 A 
ATOM     37  C   UNL     1       0.024  -0.013  -0.021  0.00  0.00    +0.000 A 
ENDBRANCH  31  35
ENDBRANCH   1  31
TORSDOF 5
