REMARK  Name = CHEMBL369989
REMARK  7 active torsions:
REMARK  status: ('A' for Active; 'I' for Inactive)
REMARK    1  A    between atoms: C_1  and  C_2
REMARK    2  A    between atoms: C_2  and  C_37
REMARK    3  A    between atoms: C_4  and  C_10
REMARK    4  A    between atoms: C_6  and  C_8
REMARK    5  A    between atoms: C_6  and  C_9
REMARK    6  A    between atoms: C_12  and  C_29
REMARK    7  A    between atoms: N_18  and  C_21
REMARK                            x       y       z     vdW  Elec       q    Type
REMARK                         _______ _______ _______ _____ _____    ______ ____
ROOT
ATOM      1  C   UNL     1       0.938  -2.723  -2.483  0.00  0.00    -0.020 A 
ATOM      2  C   UNL     1       1.997  -2.526  -3.375  0.00  0.00    +0.017 A 
ATOM      3  C   UNL     1       2.052  -3.241  -4.559  0.00  0.00    -0.007 A 
ATOM      4  C   UNL     1       1.033  -4.170  -4.861  0.00  0.00    +0.007 A 
ATOM      5  C   UNL     1       1.066  -4.915  -6.066  0.00  0.00    +0.016 A 
ATOM      6  C   UNL     1       0.071  -5.800  -6.326  0.00  0.00    +0.071 A 
ATOM      7  C   UNL     1      -0.983  -5.976  -5.406  0.00  0.00    +0.256 A 
ATOM      8  O   UNL     1      -1.870  -6.775  -5.654  0.00  0.00    -0.267 OA
ATOM      9  N   UNL     1      -1.025  -5.274  -4.258  0.00  0.00    -0.274 N 
ATOM     10  C   UNL     1      -0.030  -4.363  -3.958  0.00  0.00    +0.058 A 
ATOM     11  C   UNL     1      -0.067  -3.643  -2.773  0.00  0.00    +0.035 A 
ENDROOT
BRANCH   1  15
ATOM     12  C   UNL     1      -0.019   1.536   0.011  0.00  0.00    -0.010 C 
ATOM     13  C   UNL     1       0.002  -0.004   0.002  0.00  0.00    -0.069 C 
ATOM     14  C   UNL     1       0.711  -0.464  -1.273  0.00  0.00    +0.022 C 
ATOM     15  C   UNL     1       0.888  -1.956  -1.222  0.00  0.00    -0.047 C 
ATOM     16  C   UNL     1       0.999  -2.585  -0.074  0.00  0.00    -0.036 C 
ATOM     17  C   UNL     1       0.995  -1.892   1.253  0.00  0.00    -0.054 C 
ATOM     18  N   UNL     1       0.711  -0.467   1.190  0.00  0.00    +0.388 N 
ATOM     19  C   UNL     1       2.393  -2.072   1.880  0.00  0.00    -0.006 C 
ATOM     20  C   UNL     1      -0.013  -2.587   2.179  0.00  0.00    -0.006 C 
ATOM     21  C   UNL     1      -1.447  -0.498  -0.010  0.00  0.00    -0.010 C 
ATOM     22  H   UNL     1       1.591   0.046   1.267  0.00  0.00    -0.084 HD
ATOM     23  H   UNL     1       0.167  -0.207   2.015  0.00  0.00    -0.084 HD
ENDBRANCH   1  15
BRANCH   9  24
ATOM     24  C   UNL     1      -2.084  -5.468  -3.362  0.00  0.00    +0.087 A 
ATOM     25  C   UNL     1      -3.238  -4.703  -3.472  0.00  0.00    +0.066 A 
ATOM     26  C   UNL     1      -4.282  -4.897  -2.587  0.00  0.00    +0.022 A 
ATOM     27  C   UNL     1      -4.177  -5.853  -1.592  0.00  0.00    +0.003 A 
ATOM     28  C   UNL     1      -3.030  -6.616  -1.480  0.00  0.00    +0.022 A 
ATOM     29  C   UNL     1      -1.985  -6.431  -2.365  0.00  0.00    +0.066 A 
ATOM     30 CL   UNL     1      -0.548  -7.395  -2.227  0.00  0.00    -0.081 Cl
ATOM     31 CL   UNL     1      -3.370  -3.503  -4.720  0.00  0.00    -0.081 Cl
ENDBRANCH   9  24
BRANCH   3  32
ATOM     32  C   UNL     1       3.173  -3.032  -5.505  0.00  0.00    +0.001 A 
ATOM     33  C   UNL     1       4.473  -3.379  -5.136  0.00  0.00    +0.013 A 
ATOM     34  C   UNL     1       5.513  -3.182  -6.020  0.00  0.00    +0.039 A 
ATOM     35  C   UNL     1       5.270  -2.640  -7.272  0.00  0.00    +0.125 A 
ATOM     36  C   UNL     1       3.982  -2.293  -7.644  0.00  0.00    +0.059 A 
ATOM     37  C   UNL     1       2.932  -2.492  -6.769  0.00  0.00    +0.051 A 
ATOM     38 CL   UNL     1       1.316  -2.064  -7.238  0.00  0.00    -0.083 Cl
ATOM     39  F   UNL     1       6.293  -2.449  -8.133  0.00  0.00    -0.205 F 
ENDBRANCH   3  32
TORSDOF 3
