REMARK  Name = CHEMBL198323
REMARK  8 active torsions:
REMARK  status: ('A' for Active; 'I' for Inactive)
REMARK    1  A    between atoms: C_1  and  C_2
REMARK    2  A    between atoms: C_6  and  C_8
REMARK    3  A    between atoms: C_9  and  C_23
REMARK    4  A    between atoms: C_11  and  C_13
REMARK    5  A    between atoms: C_16  and  S_19
REMARK    6  A    between atoms: S_19  and  C_22
REMARK    7  A    between atoms: N_29  and  C_30
REMARK    8  A    between atoms: C_30  and  C_31
REMARK                            x       y       z     vdW  Elec       q    Type
REMARK                         _______ _______ _______ _____ _____    ______ ____
ROOT
ATOM      1  C   UNL     1       0.081  -2.868   2.448  0.00  0.00    +0.087 A 
ATOM      2  C   UNL     1      -0.701  -4.012   2.608  0.00  0.00    +0.047 A 
ATOM      3  S   UNL     1      -0.335  -4.426   4.309  0.00  0.00    -0.067 S 
ATOM      4  C   UNL     1       0.791  -3.075   4.631  0.00  0.00    +0.109 A 
ATOM      5  N   UNL     1       0.802  -2.447   3.466  0.00  0.00    -0.238 NA
ENDROOT
BRANCH   2   6
ATOM      6  C   UNL     1      -1.585  -4.691   1.642  0.00  0.00    -0.005 A 
ATOM      7  C   UNL     1      -1.144  -4.982   0.342  0.00  0.00    +0.029 A 
ATOM      8  C   UNL     1      -1.999  -5.617  -0.530  0.00  0.00    +0.113 A 
ATOM      9  N   UNL     1      -3.222  -5.953  -0.161  0.00  0.00    -0.240 NA
ATOM     10  C   UNL     1      -3.682  -5.699   1.055  0.00  0.00    +0.120 A 
ATOM     11  C   UNL     1      -2.884  -5.068   1.999  0.00  0.00    +0.052 A 
ATOM     12  N   UNL     1      -4.979  -6.074   1.391  0.00  0.00    -0.325 N 
ATOM     13  H   UNL     1      -5.540  -6.519   0.738  0.00  0.00    +0.148 HD
BRANCH  12  14
ATOM     14  C   UNL     1      -5.496  -5.797   2.734  0.00  0.00    +0.138 C 
BRANCH  14  15
ATOM     15  C   UNL     1      -6.913  -6.300   2.839  0.00  0.00    -0.030 A 
ATOM     16  C   UNL     1      -7.967  -5.470   2.507  0.00  0.00    +0.005 A 
ATOM     17  C   UNL     1      -9.267  -5.931   2.604  0.00  0.00    +0.000 A 
ATOM     18  C   UNL     1      -9.512  -7.222   3.033  0.00  0.00    +0.000 A 
ATOM     19  C   UNL     1      -8.458  -8.052   3.364  0.00  0.00    +0.000 A 
ATOM     20  C   UNL     1      -7.158  -7.592   3.263  0.00  0.00    +0.005 A 
ENDBRANCH  14  15
ENDBRANCH  12  14
ENDBRANCH   2   6
BRANCH   1  26
ATOM     21  C   UNL     1      -2.329  -1.018  -1.513  0.00  0.00    +0.044 C 
ATOM     22  C   UNL     1      -1.050  -1.253  -0.751  0.00  0.00    -0.050 A 
ATOM     23  C   UNL     1       0.152  -0.793  -1.261  0.00  0.00    +0.003 A 
ATOM     24  C   UNL     1       1.330  -1.005  -0.568  0.00  0.00    +0.001 A 
ATOM     25  C   UNL     1       1.313  -1.678   0.637  0.00  0.00    +0.010 A 
ATOM     26  C   UNL     1       0.106  -2.144   1.156  0.00  0.00    +0.002 A 
ATOM     27  C   UNL     1      -1.080  -1.922   0.455  0.00  0.00    +0.013 A 
ENDBRANCH   1  26
BRANCH   4  28
ATOM     28  C   UNL     1       1.522  -2.749   5.873  0.00  0.00    +0.007 A 
ATOM     29  C   UNL     1       2.359  -1.632   5.921  0.00  0.00    +0.012 A 
ATOM     30  C   UNL     1       3.039  -1.333   7.084  0.00  0.00    +0.027 A 
ATOM     31  C   UNL     1       2.893  -2.137   8.200  0.00  0.00    +0.088 A 
ATOM     32  C   UNL     1       2.066  -3.245   8.159  0.00  0.00    +0.027 A 
ATOM     33  C   UNL     1       1.376  -3.552   7.005  0.00  0.00    +0.012 A 
BRANCH  31  34
ATOM     34  S   UNL     1       3.767  -1.749   9.681  0.00  0.00    -0.006 S 
ATOM     35  O   UNL     1       3.909  -2.991  10.355  0.00  0.00    -0.170 OA
ATOM     36  O   UNL     1       4.910  -1.024   9.248  0.00  0.00    -0.170 OA
ATOM     37  C   UNL     1       2.651  -0.659  10.608  0.00  0.00    +0.200 C 
ENDBRANCH  31  34
ENDBRANCH   4  28
TORSDOF 6
