REMARK  Name = CHEMBL1098525
REMARK  3 active torsions:
REMARK  status: ('A' for Active; 'I' for Inactive)
REMARK    1  A    between atoms: C_4  and  C_20
REMARK    2  A    between atoms: C_10  and  C_12
REMARK    3  A    between atoms: C_23  and  C_27
REMARK                            x       y       z     vdW  Elec       q    Type
REMARK                         _______ _______ _______ _____ _____    ______ ____
ROOT
ATOM      1  C   UNL     1      -0.010   1.392   0.130  0.00  0.00    +0.004 A 
ATOM      2  C   UNL     1       1.161   2.084   0.004  0.00  0.00    +0.027 A 
ATOM      3  C   UNL     1       2.371   1.388  -0.132  0.00  0.00    +0.058 A 
ATOM      4  C   UNL     1       3.576   2.101  -0.262  0.00  0.00    +0.058 A 
ATOM      5  C   UNL     1       4.782   1.379  -0.398  0.00  0.00    +0.190 A 
ATOM      6  O   UNL     1       5.850   1.966  -0.512  0.00  0.00    -0.287 OA
ATOM      7  C   UNL     1       4.732  -0.036  -0.399  0.00  0.00    +0.069 A 
ATOM      8  C   UNL     1       3.552  -0.671  -0.272  0.00  0.00    +0.095 A 
ATOM      9  N   UNL     1       2.381   0.018  -0.139  0.00  0.00    -0.315 N 
ATOM     10  C   UNL     1       1.202  -0.677  -0.013  0.00  0.00    +0.056 A 
ATOM     11  C   UNL     1       0.009  -0.005   0.121  0.00  0.00    +0.027 A 
ENDROOT
BRANCH  10  12
ATOM     12  C   UNL     1       1.216  -2.153  -0.020  0.00  0.00    +0.034 A 
ATOM     13  C   UNL     1       1.836  -2.854   1.016  0.00  0.00    +0.015 A 
ATOM     14  C   UNL     1       1.845  -4.232   1.004  0.00  0.00    +0.039 A 
ATOM     15  C   UNL     1       1.240  -4.925  -0.034  0.00  0.00    +0.126 A 
ATOM     16  C   UNL     1       0.623  -4.237  -1.066  0.00  0.00    +0.077 A 
ATOM     17  C   UNL     1       0.602  -2.855  -1.063  0.00  0.00    +0.135 A 
ATOM     18  F   UNL     1      -0.004  -2.185  -2.067  0.00  0.00    -0.205 F 
ATOM     19  F   UNL     1       1.254  -6.275  -0.039  0.00  0.00    -0.205 F 
ENDBRANCH  10  12
BRANCH   4  20
ATOM     20  C   UNL     1       3.580   3.577  -0.256  0.00  0.00    +0.058 A 
ATOM     21  C   UNL     1       3.444   4.282  -1.457  0.00  0.00    +0.135 A 
ATOM     22  C   UNL     1       3.447   5.660  -1.451  0.00  0.00    +0.058 A 
ATOM     23  C   UNL     1       3.587   6.354  -0.245  0.00  0.00    +0.057 A 
ATOM     24  C   UNL     1       3.723   5.649   0.956  0.00  0.00    +0.058 A 
ATOM     25  C   UNL     1       3.714   4.272   0.952  0.00  0.00    +0.135 A 
ATOM     26  F   UNL     1       3.841   3.592   2.112  0.00  0.00    -0.205 F 
ATOM     27  F   UNL     1       3.310   3.612  -2.623  0.00  0.00    -0.205 F 
BRANCH  23  28
ATOM     28  C   UNL     1       3.592   7.786  -0.239  0.00  0.00    +0.099 C 
ATOM     29  N   UNL     1       3.595   8.922  -0.235  0.00  0.00    -0.191 NA
ENDBRANCH  23  28
ENDBRANCH   4  20
TORSDOF 3
