REMARK  Name = CHEMBL1209837
REMARK  12 active torsions:
REMARK  status: ('A' for Active; 'I' for Inactive)
REMARK    1  A    between atoms: C_1  and  C_2
REMARK    2  A    between atoms: C_2  and  C_3
REMARK    3  A    between atoms: C_2  and  C_4
REMARK    4  A    between atoms: C_2  and  C_5
REMARK    5  A    between atoms: C_7  and  C_35
REMARK    6  A    between atoms: C_9  and  N_11
REMARK    7  A    between atoms: C_12  and  C_14
REMARK    8  A    between atoms: C_14  and  C_16
REMARK    9  A    between atoms: C_19  and  O_26
REMARK   10  A    between atoms: O_26  and  C_27
REMARK   11  A    between atoms: C_27  and  C_28
REMARK   12  A    between atoms: C_28  and  N_29
REMARK                            x       y       z     vdW  Elec       q    Type
REMARK                         _______ _______ _______ _____ _____    ______ ____
ROOT
ATOM      1  C   UNL     1       6.913  -0.992  -5.188  0.00  0.00    +0.035 A 
ATOM      2  C   UNL     1       6.225  -1.712  -6.168  0.00  0.00    +0.016 A 
ATOM      3  C   UNL     1       6.874  -2.150  -7.305  0.00  0.00    +0.047 A 
ATOM      4  C   UNL     1       8.216  -1.897  -7.518  0.00  0.00    +0.128 A 
ATOM      5  C   UNL     1       8.968  -1.174  -6.565  0.00  0.00    +0.024 A 
ATOM      6  C   UNL     1       8.335  -0.704  -5.391  0.00  0.00    -0.003 A 
ATOM      7  C   UNL     1       9.073   0.017  -4.448  0.00  0.00    +0.009 A 
ATOM      8  C   UNL     1      10.397   0.265  -4.674  0.00  0.00    +0.001 A 
ATOM      9  C   UNL     1      11.021  -0.190  -5.831  0.00  0.00    +0.001 A 
ATOM     10  C   UNL     1      10.331  -0.908  -6.763  0.00  0.00    +0.012 A 
ENDROOT
BRANCH   1  11
ATOM     11  C   UNL     1       6.223  -0.529  -3.983  0.00  0.00    +0.248 C 
ATOM     12  O   UNL     1       6.853  -0.001  -3.087  0.00  0.00    -0.282 OA
BRANCH  11  14
ATOM     13  N   UNL     1       4.099  -0.186  -2.792  0.00  0.00    -0.279 N 
ATOM     14  C   UNL     1       4.749  -0.705  -3.853  0.00  0.00    +0.289 C 
ATOM     15  O   UNL     1       4.134  -1.315  -4.703  0.00  0.00    -0.266 OA
ATOM     16  H   UNL     1       4.579   0.359  -2.149  0.00  0.00    +0.155 HD
BRANCH  13  21
ATOM     17  C   UNL     1       0.864  -0.834  -1.164  0.00  0.00    -0.039 A 
ATOM     18  C   UNL     1       0.026  -0.926  -2.257  0.00  0.00    +0.023 A 
ATOM     19  C   UNL     1       0.540  -0.771  -3.546  0.00  0.00    +0.054 A 
ATOM     20  C   UNL     1       1.901  -0.524  -3.724  0.00  0.00    +0.042 A 
ATOM     21  C   UNL     1       2.735  -0.433  -2.620  0.00  0.00    +0.035 A 
ATOM     22  C   UNL     1       2.212  -0.583  -1.340  0.00  0.00    +0.027 A 
BRANCH  17  24
ATOM     23  C   UNL     1       0.555   0.276   1.032  0.00  0.00    +0.015 C 
ATOM     24  C   UNL     1       0.306  -1.000   0.226  0.00  0.00    -0.013 C 
ATOM     25  C   UNL     1       0.996  -2.180   0.914  0.00  0.00    +0.015 C 
ATOM     26  C   UNL     1      -1.198  -1.267   0.143  0.00  0.00    +0.015 C 
ENDBRANCH  17  24
BRANCH  19  27
ATOM     27  C   UNL     1      -0.328  -0.867  -4.682  0.00  0.00    +0.099 C 
ATOM     28  N   UNL     1      -1.016  -0.943  -5.582  0.00  0.00    -0.191 NA
ENDBRANCH  19  27
ENDBRANCH  13  21
ENDBRANCH  11  14
ENDBRANCH   1  11
BRANCH   4  29
ATOM     29  O   UNL     1       8.815  -2.345  -8.646  0.00  0.00    -0.490 OA
BRANCH  29  30
ATOM     30  C   UNL     1       7.999  -3.069  -9.569  0.00  0.00    +0.244 C 
BRANCH  30  31
ATOM     31  C   UNL     1       8.843  -3.491 -10.774  0.00  0.00    +0.125 C 
BRANCH  31  32
ATOM     32  N   UNL     1       9.869  -4.450 -10.342  0.00  0.00    -0.295 NA
ATOM     33  C   UNL     1      10.959  -4.533 -11.324  0.00  0.00    +0.112 C 
ATOM     34  C   UNL     1      12.032  -5.495 -10.807  0.00  0.00    +0.175 C 
ATOM     35  O   UNL     1      11.437  -6.770 -10.549  0.00  0.00    -0.377 OA
ATOM     36  C   UNL     1      10.372  -6.726  -9.596  0.00  0.00    +0.175 C 
ATOM     37  C   UNL     1       9.282  -5.776 -10.100  0.00  0.00    +0.112 C 
ENDBRANCH  31  32
ENDBRANCH  30  31
ENDBRANCH  29  30
ENDBRANCH   4  29
TORSDOF 9
