REMARK  Name = CHEMBL408476
REMARK  9 active torsions:
REMARK  status: ('A' for Active; 'I' for Inactive)
REMARK    1  A    between atoms: C_1  and  C_2
REMARK    2  A    between atoms: C_5  and  C_28
REMARK    3  A    between atoms: C_7  and  C_8
REMARK    4  A    between atoms: C_11  and  C_14
REMARK    5  A    between atoms: N_16  and  C_17
REMARK    6  A    between atoms: C_20  and  N_23
REMARK    7  A    between atoms: N_23  and  S_24
REMARK    8  A    between atoms: S_24  and  C_27
REMARK    9  A    between atoms: C_31  and  C_33
REMARK                            x       y       z     vdW  Elec       q    Type
REMARK                         _______ _______ _______ _____ _____    ______ ____
ROOT
ATOM      1  C   UNL     1       0.011   0.043   2.487  0.00  0.00    -0.018 A 
ATOM      2  C   UNL     1       0.927   1.073   2.700  0.00  0.00    +0.009 A 
ATOM      3  C   UNL     1       0.935   1.751   3.898  0.00  0.00    +0.013 A 
ATOM      4  C   UNL     1       0.025   1.407   4.901  0.00  0.00    +0.037 A 
ATOM      5  C   UNL     1      -0.893   0.376   4.686  0.00  0.00    +0.013 A 
ATOM      6  C   UNL     1      -0.902  -0.298   3.485  0.00  0.00    +0.009 A 
ENDROOT
BRANCH   1  13
ATOM      7  C   UNL     1      -0.026   1.527   0.009  0.00  0.00    +0.044 C 
ATOM      8  C   UNL     1      -0.015   0.020  -0.006  0.00  0.00    -0.043 A 
ATOM      9  C   UNL     1      -0.016  -0.657  -1.210  0.00  0.00    +0.005 A 
ATOM     10  C   UNL     1      -0.007  -2.038  -1.232  0.00  0.00    +0.013 A 
ATOM     11  C   UNL     1       0.005  -2.757  -0.035  0.00  0.00    +0.039 A 
ATOM     12  C   UNL     1       0.007  -2.079   1.182  0.00  0.00    +0.022 A 
ATOM     13  C   UNL     1       0.003  -0.687   1.196  0.00  0.00    -0.014 A 
BRANCH  11  14
ATOM     14  C   UNL     1       0.014  -4.236  -0.059  0.00  0.00    +0.248 A 
ATOM     15  N   UNL     1       0.019  -5.031   0.984  0.00  0.00    -0.107 NA
ATOM     16  N   UNL     1       0.026  -6.254   0.585  0.00  0.00    -0.112 NA
ATOM     17  C   UNL     1       0.026  -6.287  -0.718  0.00  0.00    +0.215 A 
ATOM     18  O   UNL     1       0.013  -5.017  -1.158  0.00  0.00    -0.421 OA
ATOM     19  C   UNL     1       0.033  -7.526  -1.577  0.00  0.00    +0.111 C 
ENDBRANCH  11  14
ENDBRANCH   1  13
BRANCH   4  20
ATOM     20  C   UNL     1       0.033   2.134   6.186  0.00  0.00    +0.248 C 
ATOM     21  O   UNL     1       0.832   3.031   6.373  0.00  0.00    -0.270 OA
ATOM     22  N   UNL     1      -0.846   1.802   7.153  0.00  0.00    -0.282 N 
ATOM     23  H   UNL     1      -1.527   1.133   6.981  0.00  0.00    +0.155 HD
BRANCH  22  24
ATOM     24  C   UNL     1      -0.775   2.424   8.407  0.00  0.00    +0.034 A 
ATOM     25  C   UNL     1      -1.074   1.704   9.556  0.00  0.00    +0.025 A 
ATOM     26  C   UNL     1      -1.006   2.317  10.791  0.00  0.00    +0.028 A 
ATOM     27  C   UNL     1      -0.637   3.652  10.884  0.00  0.00    +0.074 A 
ATOM     28  C   UNL     1      -0.338   4.372   9.735  0.00  0.00    +0.028 A 
ATOM     29  C   UNL     1      -0.402   3.758   8.500  0.00  0.00    +0.025 A 
BRANCH  27  30
ATOM     30  N   UNL     1      -0.568   4.273  12.136  0.00  0.00    -0.103 NA
BRANCH  30  31
ATOM     31  S   UNL     1      -0.129   5.866  12.247  0.00  0.00    +0.059 S 
ATOM     32  O   UNL     1       1.210   5.907  11.772  0.00  0.00    -0.154 OA
ATOM     33  O   UNL     1      -1.159   6.574  11.572  0.00  0.00    -0.154 OA
ATOM     34  C   UNL     1      -0.173   6.240  14.022  0.00  0.00    +0.220 C 
ENDBRANCH  30  31
ENDBRANCH  27  30
ENDBRANCH  22  24
ENDBRANCH   4  20
TORSDOF 6
