REMARK  Name = CHEMBL63442
REMARK  3 active torsions:
REMARK  status: ('A' for Active; 'I' for Inactive)
REMARK    1  A    between atoms: C_6  and  C_7
REMARK    2  A    between atoms: C_8  and  C_23
REMARK    3  A    between atoms: C_10  and  C_13
REMARK                            x       y       z     vdW  Elec       q    Type
REMARK                         _______ _______ _______ _____ _____    ______ ____
ROOT
ATOM      1  C   UNL     1      -1.285  -0.730   0.057  0.00  0.00    +0.074 A 
ATOM      2  C   UNL     1      -1.535  -1.919   0.725  0.00  0.00    +0.097 A 
ATOM      3  N   UNL     1      -2.778  -2.313   0.406  0.00  0.00    -0.227 NA
ATOM      4  C   UNL     1      -3.317  -1.444  -0.417  0.00  0.00    +0.145 A 
ATOM      5  N   UNL     1      -2.423  -0.439  -0.656  0.00  0.00    -0.337 N 
ATOM      6  H   UNL     1      -2.564   0.334  -1.224  0.00  0.00    +0.167 HD
ENDROOT
BRANCH   4   7
ATOM      7  C   UNL     1      -4.677  -1.534  -0.989  0.00  0.00    +0.096 A 
ATOM      8  C   UNL     1      -5.156  -0.553  -1.867  0.00  0.00    +0.191 A 
ATOM      9  C   UNL     1      -6.435  -0.677  -2.379  0.00  0.00    +0.252 A 
ATOM     10  N   UNL     1      -7.200  -1.703  -2.052  0.00  0.00    -0.186 NA
ATOM     11  C   UNL     1      -6.788  -2.650  -1.228  0.00  0.00    +0.252 A 
ATOM     12  C   UNL     1      -5.521  -2.607  -0.673  0.00  0.00    +0.191 A 
ATOM     13  F   UNL     1      -5.105  -3.583   0.163  0.00  0.00    -0.200 F 
ATOM     14  F   UNL     1      -7.613  -3.677  -0.927  0.00  0.00    -0.181 F 
ATOM     15  F   UNL     1      -6.908   0.263  -3.226  0.00  0.00    -0.181 F 
ATOM     16  F   UNL     1      -4.380   0.500  -2.207  0.00  0.00    -0.200 F 
ENDBRANCH   4   7
BRANCH   1  22
ATOM     17  C   UNL     1       1.196  -0.552  -0.052  0.00  0.00    +0.013 A 
ATOM     18  C   UNL     1       2.351   0.199  -0.004  0.00  0.00    +0.039 A 
ATOM     19  C   UNL     1       2.283   1.568   0.202  0.00  0.00    +0.123 A 
ATOM     20  C   UNL     1       1.054   2.190   0.362  0.00  0.00    +0.039 A 
ATOM     21  C   UNL     1      -0.108   1.449   0.317  0.00  0.00    +0.013 A 
ATOM     22  C   UNL     1      -0.045   0.069   0.108  0.00  0.00    +0.001 A 
ATOM     23  F   UNL     1       3.418   2.299   0.249  0.00  0.00    -0.205 F 
ENDBRANCH   1  22
BRANCH   2  24
ATOM     24  C   UNL     1      -0.598  -2.627   1.626  0.00  0.00    +0.005 A 
ATOM     25  C   UNL     1       0.175  -1.924   2.557  0.00  0.00    +0.030 A 
ATOM     26  C   UNL     1       1.034  -2.623   3.377  0.00  0.00    +0.111 A 
ATOM     27  N   UNL     1       1.133  -3.937   3.293  0.00  0.00    -0.263 NA
ATOM     28  C   UNL     1       0.422  -4.638   2.430  0.00  0.00    +0.111 A 
ATOM     29  C   UNL     1      -0.465  -4.019   1.575  0.00  0.00    +0.030 A 
ENDBRANCH   2  24
TORSDOF 3
