REMARK  Name = CHEMBL196741
REMARK  14 active torsions:
REMARK  status: ('A' for Active; 'I' for Inactive)
REMARK    1  A    between atoms: C_1  and  C_2
REMARK    2  A    between atoms: C_5  and  C_32
REMARK    3  A    between atoms: C_7  and  N_8
REMARK    4  A    between atoms: C_10  and  C_30
REMARK    5  A    between atoms: C_11  and  N_23
REMARK    6  A    between atoms: N_19  and  C_22
REMARK    7  A    between atoms: N_23  and  C_24
REMARK    8  A    between atoms: N_23  and  C_25
REMARK    9  A    between atoms: C_25  and  C_26
REMARK   10  A    between atoms: C_26  and  C_27
REMARK   11  A    between atoms: C_26  and  C_28
REMARK   12  A    between atoms: C_26  and  C_29
REMARK   13  A    between atoms: N_34  and  O_35
REMARK   14  A    between atoms: O_35  and  C_36
REMARK                            x       y       z     vdW  Elec       q    Type
REMARK                         _______ _______ _______ _____ _____    ______ ____
ROOT
ATOM      1  N   UNL     1      -0.549   0.324   2.747  0.00  0.00    -0.298 N 
ATOM      2  C   UNL     1      -0.269  -0.256   3.968  0.00  0.00    +0.147 A 
ATOM      3  C   UNL     1      -0.422   0.477   5.162  0.00  0.00    +0.132 A 
ATOM      4  C   UNL     1      -0.121  -0.167   6.379  0.00  0.00    +0.146 A 
ATOM      5  N   UNL     1       0.290  -1.430   6.352  0.00  0.00    -0.198 NA
ATOM      6  C   UNL     1       0.419  -2.082   5.205  0.00  0.00    +0.221 A 
ATOM      7  N   UNL     1       0.143  -1.517   4.038  0.00  0.00    -0.198 NA
ATOM      8  N   UNL     1       0.850  -3.393   5.228  0.00  0.00    -0.301 N 
ATOM      9  C   UNL     1       1.042  -4.057   6.532  0.00  0.00    +0.106 C 
ATOM     10  C   UNL     1       0.517  -5.504   6.500  0.00  0.00    +0.000 C 
ATOM     11  C   UNL     1      -0.774  -5.553   5.714  0.00  0.00    -0.078 C 
ATOM     12  N   UNL     1      -0.478  -5.884   4.322  0.00  0.00    +0.379 N 
ATOM     13  C   UNL     1      -0.194  -4.776   3.493  0.00  0.00    -0.060 C 
ATOM     14  C   UNL     1       1.091  -4.070   3.970  0.00  0.00    +0.089 C 
ATOM     15  C   UNL     1      -1.632  -6.599   3.760  0.00  0.00    -0.096 C 
ATOM     16  H   UNL     1      -0.936   1.213   2.709  0.00  0.00    +0.154 HD
ATOM     17  H   UNL     1       0.316  -6.506   4.304  0.00  0.00    -0.082 HD
ENDROOT
BRANCH   1  24
ATOM     18  C   UNL     1      -2.047   0.994   0.427  0.00  0.00    +0.045 C 
ATOM     19  C   UNL     1      -0.984  -0.074   0.405  0.00  0.00    -0.029 A 
ATOM     20  C   UNL     1      -0.713  -0.753  -0.768  0.00  0.00    +0.006 A 
ATOM     21  C   UNL     1       0.259  -1.732  -0.796  0.00  0.00    +0.013 A 
ATOM     22  C   UNL     1       0.972  -2.040   0.364  0.00  0.00    +0.040 A 
ATOM     23  C   UNL     1       0.699  -1.356   1.548  0.00  0.00    +0.036 A 
ATOM     24  C   UNL     1      -0.276  -0.369   1.564  0.00  0.00    +0.036 A 
BRANCH  22  25
ATOM     25  C   UNL     1       2.013  -3.090   0.338  0.00  0.00    +0.267 C 
ATOM     26  O   UNL     1       2.678  -3.312   1.331  0.00  0.00    -0.268 OA
ATOM     27  N   UNL     1       2.225  -3.800  -0.788  0.00  0.00    -0.191 N 
ATOM     28  H   UNL     1       1.695  -3.623  -1.581  0.00  0.00    +0.183 HD
BRANCH  27  29
ATOM     29  O   UNL     1       3.223  -4.805  -0.813  0.00  0.00    -0.283 OA
ATOM     30  C   UNL     1       3.339  -5.477  -2.069  0.00  0.00    +0.226 C 
ENDBRANCH  27  29
ENDBRANCH  22  25
ENDBRANCH   1  24
BRANCH   4  31
ATOM     31  N   UNL     1      -0.252   0.503   7.579  0.00  0.00    -0.317 N 
ATOM     32  C   UNL     1       0.918   1.129   8.200  0.00  0.00    +0.130 C 
BRANCH  31  33
ATOM     33  C   UNL     1      -1.561   0.588   8.232  0.00  0.00    +0.112 C 
BRANCH  33  34
ATOM     34  C   UNL     1      -1.708  -0.560   9.232  0.00  0.00    -0.022 C 
ATOM     35  C   UNL     1      -0.664  -0.407  10.340  0.00  0.00    +0.012 C 
ATOM     36  C   UNL     1      -3.110  -0.527   9.844  0.00  0.00    +0.012 C 
ATOM     37  C   UNL     1      -1.497  -1.894   8.513  0.00  0.00    +0.012 C 
ENDBRANCH  33  34
ENDBRANCH  31  33
ENDBRANCH   4  31
BRANCH   3  38
ATOM     38  C   UNL     1      -0.868   1.838   5.139  0.00  0.00    +0.106 C 
ATOM     39  N   UNL     1      -1.222   2.917   5.121  0.00  0.00    -0.191 NA
ENDBRANCH   3  38
TORSDOF 7
