REMARK  Name = CHEMBL172286
REMARK  8 active torsions:
REMARK  status: ('A' for Active; 'I' for Inactive)
REMARK    1  A    between atoms: C_1  and  C_2
REMARK    2  A    between atoms: C_2  and  N_3
REMARK    3  A    between atoms: C_7  and  C_15
REMARK    4  A    between atoms: N_10  and  C_13
REMARK    5  A    between atoms: C_13  and  C_14
REMARK    6  A    between atoms: C_16  and  C_27
REMARK    7  A    between atoms: C_18  and  C_21
REMARK    8  A    between atoms: C_31  and  C_33
REMARK                            x       y       z     vdW  Elec       q    Type
REMARK                         _______ _______ _______ _____ _____    ______ ____
ROOT
ATOM      1  C   UNL     1      -0.843  -1.793  -6.444  0.00  0.00    +0.074 A 
ATOM      2  C   UNL     1      -1.907  -2.571  -6.870  0.00  0.00    +0.097 A 
ATOM      3  N   UNL     1      -1.841  -2.657  -8.209  0.00  0.00    -0.227 NA
ATOM      4  C   UNL     1      -0.801  -1.980  -8.641  0.00  0.00    +0.141 A 
ATOM      5  N   UNL     1      -0.156  -1.421  -7.576  0.00  0.00    -0.337 N 
ATOM      6  H   UNL     1       0.640  -0.868  -7.610  0.00  0.00    +0.167 HD
ENDROOT
BRANCH   1  11
ATOM      7  N   UNL     1       0.688  -0.476  -1.203  0.00  0.00    -0.292 N 
ATOM      8  C   UNL     1       0.086  -0.744  -2.430  0.00  0.00    +0.070 A 
ATOM      9  C   UNL     1      -1.224  -0.665  -2.883  0.00  0.00    +0.028 A 
ATOM     10  C   UNL     1      -1.527  -1.004  -4.183  0.00  0.00    +0.012 A 
ATOM     11  C   UNL     1      -0.516  -1.429  -5.051  0.00  0.00    +0.003 A 
ATOM     12  C   UNL     1       0.802  -1.510  -4.600  0.00  0.00    +0.038 A 
ATOM     13  C   UNL     1       1.102  -1.168  -3.293  0.00  0.00    +0.070 A 
ATOM     14  N   UNL     1       2.287  -1.145  -2.561  0.00  0.00    -0.292 N 
ATOM     15  C   UNL     1       2.007  -0.720  -1.314  0.00  0.00    +0.330 A 
ATOM     16  O   UNL     1       2.822  -0.581  -0.422  0.00  0.00    -0.246 OA
BRANCH   7  18
ATOM     17  C   UNL     1      -0.019   1.526   0.010  0.00  0.00    +0.027 C 
ATOM     18  C   UNL     1       0.002  -0.004   0.002  0.00  0.00    +0.123 C 
ENDBRANCH   7  18
BRANCH  14  19
ATOM     19  C   UNL     1       3.613  -1.513  -3.064  0.00  0.00    +0.123 C 
ATOM     20  C   UNL     1       4.299  -0.276  -3.647  0.00  0.00    +0.027 C 
ENDBRANCH  14  19
ENDBRANCH   1  11
BRANCH   2  21
ATOM     21  C   UNL     1      -2.934  -3.196  -6.005  0.00  0.00    +0.003 A 
ATOM     22  C   UNL     1      -2.588  -3.671  -4.740  0.00  0.00    +0.010 A 
ATOM     23  C   UNL     1      -3.549  -4.253  -3.938  0.00  0.00    +0.001 A 
ATOM     24  C   UNL     1      -4.853  -4.365  -4.387  0.00  0.00    +0.003 A 
ATOM     25  C   UNL     1      -5.201  -3.897  -5.641  0.00  0.00    -0.050 A 
ATOM     26  C   UNL     1      -4.251  -3.308  -6.449  0.00  0.00    +0.013 A 
ATOM     27  C   UNL     1      -6.624  -4.024  -6.122  0.00  0.00    +0.044 C 
ENDBRANCH   2  21
BRANCH   4  28
ATOM     28  C   UNL     1      -0.399  -1.841 -10.057  0.00  0.00    +0.035 A 
ATOM     29  C   UNL     1      -1.145  -2.450 -11.073  0.00  0.00    +0.014 A 
ATOM     30  C   UNL     1      -0.726  -2.289 -12.381  0.00  0.00    +0.020 A 
ATOM     31  C   UNL     1       0.407  -1.538 -12.642  0.00  0.00    +0.111 A 
ATOM     32  N   UNL     1       1.091  -0.976 -11.664  0.00  0.00    -0.263 NA
ATOM     33  C   UNL     1       0.729  -1.096 -10.404  0.00  0.00    +0.122 A 
ENDBRANCH   4  28
TORSDOF 5
