REMARK  Name = CHEMBL197096
REMARK  4 active torsions:
REMARK  status: ('A' for Active; 'I' for Inactive)
REMARK    1  A    between atoms: C_4  and  C_7
REMARK    2  A    between atoms: C_7  and  C_8
REMARK    3  A    between atoms: C_17  and  C_31
REMARK    4  A    between atoms: C_18  and  C_21
REMARK                            x       y       z     vdW  Elec       q    Type
REMARK                         _______ _______ _______ _____ _____    ______ ____
ROOT
ATOM      1  C   UNL     1       4.374  -0.720   1.569  0.00  0.00    -0.050 C 
ATOM      2  C   UNL     1       5.695  -1.491   1.662  0.00  0.00    +0.091 C 
ATOM      3  N   UNL     1       5.939  -1.829   3.073  0.00  0.00    -0.317 N 
ATOM      4  C   UNL     1       5.843  -0.752   4.070  0.00  0.00    +0.087 C 
ATOM      5  C   UNL     1       4.515  -0.015   3.863  0.00  0.00    -0.063 C 
ATOM      6  N   UNL     1       4.420   0.439   2.470  0.00  0.00    +0.383 N 
ATOM      7  C   UNL     1       6.251  -3.129   3.453  0.00  0.00    +0.144 A 
ATOM      8  C   UNL     1       6.445  -4.111   2.483  0.00  0.00    +0.056 A 
ATOM      9  C   UNL     1       6.757  -5.401   2.913  0.00  0.00    +0.013 A 
ATOM     10  C   UNL     1       6.855  -5.623   4.302  0.00  0.00    +0.102 A 
ATOM     11  N   UNL     1       6.652  -4.617   5.143  0.00  0.00    -0.147 NA
ATOM     12  N   UNL     1       6.370  -3.433   4.738  0.00  0.00    -0.134 NA
ATOM     13  H   UNL     1       5.224   1.005   2.247  0.00  0.00    -0.085 HD
ATOM     14  H   UNL     1       3.582   0.988   2.353  0.00  0.00    -0.085 HD
ENDROOT
BRANCH  10  15
ATOM     15  C   UNL     1       7.183  -6.970   4.819  0.00  0.00    +0.010 A 
ATOM     16  C   UNL     1       6.457  -8.074   4.404  0.00  0.00    +0.011 A 
ATOM     17  C   UNL     1       6.760  -9.342   4.885  0.00  0.00    +0.001 A 
ATOM     18  C   UNL     1       7.773  -9.536   5.775  0.00  0.00    +0.008 A 
ATOM     19  C   UNL     1       8.536  -8.443   6.223  0.00  0.00    -0.017 A 
ATOM     20  C   UNL     1       8.246  -7.144   5.738  0.00  0.00    -0.009 A 
ATOM     21  C   UNL     1       9.011  -6.056   6.181  0.00  0.00    +0.009 A 
ATOM     22  C   UNL     1      10.026  -6.261   7.066  0.00  0.00    +0.001 A 
ATOM     23  C   UNL     1      10.317  -7.539   7.539  0.00  0.00    +0.001 A 
ATOM     24  C   UNL     1       9.586  -8.617   7.140  0.00  0.00    +0.008 A 
ENDBRANCH  10  15
BRANCH   9  25
ATOM     25  C   UNL     1       6.978  -6.500   1.943  0.00  0.00    -0.013 A 
ATOM     26  C   UNL     1       8.166  -7.236   1.950  0.00  0.00    +0.028 A 
ATOM     27  C   UNL     1       8.330  -8.251   1.030  0.00  0.00    +0.111 A 
ATOM     28  N   UNL     1       7.384  -8.529   0.153  0.00  0.00    -0.263 NA
ATOM     29  C   UNL     1       6.248  -7.859   0.113  0.00  0.00    +0.111 A 
ATOM     30  C   UNL     1       6.000  -6.832   1.000  0.00  0.00    +0.028 A 
ENDBRANCH   9  25
BRANCH   1  31
ATOM     31  C   UNL     1       4.164  -0.240   0.132  0.00  0.00    +0.021 C 
BRANCH  31  35
ATOM     32  C   UNL     1       0.327   1.607  -0.209  0.00  0.00    +0.000 A 
ATOM     33  C   UNL     1       1.432   2.366   0.130  0.00  0.00    +0.000 A 
ATOM     34  C   UNL     1       2.674   1.768   0.240  0.00  0.00    +0.003 A 
ATOM     35  C   UNL     1       2.810   0.412   0.012  0.00  0.00    -0.049 A 
ATOM     36  C   UNL     1       1.705  -0.347  -0.326  0.00  0.00    +0.003 A 
ATOM     37  C   UNL     1       0.464   0.251  -0.437  0.00  0.00    +0.000 A 
ENDBRANCH  31  35
ENDBRANCH   1  31
TORSDOF 4
