REMARK  Name = CHEMBL480957
REMARK  7 active torsions:
REMARK  status: ('A' for Active; 'I' for Inactive)
REMARK    1  A    between atoms: C_1  and  C_2
REMARK    2  A    between atoms: C_5  and  O_8
REMARK    3  A    between atoms: O_8  and  C_9
REMARK    4  A    between atoms: C_11  and  C_15
REMARK    5  A    between atoms: C_16  and  C_23
REMARK    6  A    between atoms: C_18  and  S_21
REMARK    7  A    between atoms: S_21  and  C_22
REMARK                            x       y       z     vdW  Elec       q    Type
REMARK                         _______ _______ _______ _____ _____    ______ ____
ROOT
ATOM      1  C   UNL     1       0.576  -8.269   2.500  0.00  0.00    +0.098 A 
ATOM      2  C   UNL     1       1.327  -8.968   3.425  0.00  0.00    +0.075 A 
ATOM      3  N   UNL     1       1.170 -10.306   3.121  0.00  0.00    -0.332 N 
ATOM      4  C   UNL     1       0.344 -10.380   2.040  0.00  0.00    +0.167 A 
ATOM      5  N   UNL     1      -0.007  -9.168   1.682  0.00  0.00    -0.221 NA
ATOM      6  H   UNL     1       1.573 -11.054   3.590  0.00  0.00    +0.168 HD
ENDROOT
BRANCH   2   7
ATOM      7  C   UNL     1       2.135  -8.399   4.521  0.00  0.00    +0.001 A 
ATOM      8  C   UNL     1       2.962  -7.298   4.284  0.00  0.00    +0.013 A 
ATOM      9  C   UNL     1       3.715  -6.771   5.311  0.00  0.00    +0.039 A 
ATOM     10  C   UNL     1       3.652  -7.330   6.578  0.00  0.00    +0.123 A 
ATOM     11  C   UNL     1       2.833  -8.422   6.820  0.00  0.00    +0.039 A 
ATOM     12  C   UNL     1       2.071  -8.954   5.801  0.00  0.00    +0.013 A 
ATOM     13  F   UNL     1       4.392  -6.809   7.581  0.00  0.00    -0.205 F 
ENDBRANCH   2   7
BRANCH   1  16
ATOM     14  C   UNL     1       0.178  -4.771   1.169  0.00  0.00    +0.221 A 
ATOM     15  C   UNL     1       0.311  -6.151   1.192  0.00  0.00    +0.077 A 
ATOM     16  C   UNL     1       0.433  -6.797   2.425  0.00  0.00    +0.009 A 
ATOM     17  C   UNL     1       0.415  -6.016   3.588  0.00  0.00    +0.030 A 
ATOM     18  C   UNL     1       0.279  -4.650   3.476  0.00  0.00    +0.115 A 
ATOM     19  N   UNL     1       0.172  -4.072   2.293  0.00  0.00    -0.221 NA
BRANCH  14  20
ATOM     20  O   UNL     1       0.059  -4.129  -0.021  0.00  0.00    -0.438 OA
BRANCH  20  25
ATOM     21  C   UNL     1      -0.027   1.503   0.010  0.00  0.00    +0.044 C 
ATOM     22  C   UNL     1      -0.004  -0.004   0.002  0.00  0.00    -0.050 A 
ATOM     23  C   UNL     1       1.193  -0.677   0.166  0.00  0.00    +0.007 A 
ATOM     24  C   UNL     1       1.217  -2.058   0.159  0.00  0.00    +0.046 A 
ATOM     25  C   UNL     1       0.038  -2.770  -0.013  0.00  0.00    +0.130 A 
ATOM     26  C   UNL     1      -1.161  -2.093  -0.177  0.00  0.00    +0.046 A 
ATOM     27  C   UNL     1      -1.180  -0.711  -0.164  0.00  0.00    +0.007 A 
ENDBRANCH  20  25
ENDBRANCH  14  20
ENDBRANCH   1  16
BRANCH   4  28
ATOM     28  S   UNL     1      -0.174 -11.868   1.251  0.00  0.00    -0.091 S 
ATOM     29  C   UNL     1      -1.244 -11.299  -0.099  0.00  0.00    +0.093 C 
ENDBRANCH   4  28
TORSDOF 5
