REMARK  Name = CHEMBL592978
REMARK  3 active torsions:
REMARK  status: ('A' for Active; 'I' for Inactive)
REMARK    1  A    between atoms: C_3  and  C_9
REMARK    2  A    between atoms: C_15  and  S_18
REMARK    3  A    between atoms: S_18  and  C_19
REMARK                            x       y       z     vdW  Elec       q    Type
REMARK                         _______ _______ _______ _____ _____    ______ ____
ROOT
ATOM      1  C   UNL     1       3.721   2.209  -0.194  0.00  0.00    +0.171 A 
ATOM      2  N   UNL     1       3.869   3.518  -0.243  0.00  0.00    -0.128 NA
ATOM      3  N   UNL     1       5.113   3.828  -0.137  0.00  0.00    -0.129 NA
ATOM      4  C   UNL     1       5.839   2.726  -0.013  0.00  0.00    +0.161 A 
ATOM      5  N   UNL     1       4.968   1.665  -0.040  0.00  0.00    -0.281 N 
ATOM      6  C   UNL     1       5.428   0.386   0.073  0.00  0.00    +0.109 A 
ATOM      7  C   UNL     1       6.755   0.144   0.218  0.00  0.00    +0.029 A 
ATOM      8  C   UNL     1       7.671   1.216   0.253  0.00  0.00    +0.020 A 
ATOM      9  C   UNL     1       7.220   2.492   0.131  0.00  0.00    +0.050 A 
ENDROOT
BRANCH   1  12
ATOM     10  C   UNL     1       1.144  -0.329  -1.201  0.00  0.00    +0.039 A 
ATOM     11  C   UNL     1       2.337   0.360  -1.124  0.00  0.00    +0.017 A 
ATOM     12  C   UNL     1       2.447   1.467  -0.281  0.00  0.00    +0.055 A 
ATOM     13  C   UNL     1       1.345   1.871   0.481  0.00  0.00    +0.137 A 
ATOM     14  C   UNL     1       0.157   1.173   0.395  0.00  0.00    +0.077 A 
ATOM     15  C   UNL     1       0.056   0.074  -0.445  0.00  0.00    +0.126 A 
ATOM     16  F   UNL     1      -1.109  -0.605  -0.525  0.00  0.00    -0.205 F 
ATOM     17  F   UNL     1       1.444   2.941   1.299  0.00  0.00    -0.205 F 
ENDBRANCH   1  12
BRANCH   7  18
ATOM     18  S   UNL     1       7.336  -1.513   0.365  0.00  0.00    -0.085 S 
BRANCH  18  19
ATOM     19  C   UNL     1       7.975  -1.597   2.005  0.00  0.00    +0.048 A 
ATOM     20  C   UNL     1       7.813  -0.524   2.871  0.00  0.00    +0.021 A 
ATOM     21  C   UNL     1       8.315  -0.592   4.156  0.00  0.00    +0.039 A 
ATOM     22  C   UNL     1       8.979  -1.729   4.582  0.00  0.00    +0.126 A 
ATOM     23  C   UNL     1       9.143  -2.802   3.723  0.00  0.00    +0.077 A 
ATOM     24  C   UNL     1       8.638  -2.742   2.437  0.00  0.00    +0.140 A 
ATOM     25  F   UNL     1       8.793  -3.790   1.599  0.00  0.00    -0.204 F 
ATOM     26  F   UNL     1       9.470  -1.792   5.840  0.00  0.00    -0.205 F 
ENDBRANCH  18  19
ENDBRANCH   7  18
TORSDOF 3
