REMARK  Name = CHEMBL320950
REMARK  12 active torsions:
REMARK  status: ('A' for Active; 'I' for Inactive)
REMARK    1  A    between atoms: C_1  and  C_2
REMARK    2  A    between atoms: C_5  and  N_8
REMARK    3  A    between atoms: C_9  and  N_17
REMARK    4  A    between atoms: C_11  and  C_13
REMARK    5  A    between atoms: C_13  and  C_14
REMARK    6  A    between atoms: C_13  and  C_15
REMARK    7  A    between atoms: C_13  and  C_16
REMARK    8  A    between atoms: N_20  and  C_21
REMARK    9  A    between atoms: C_24  and  C_31
REMARK   10  A    between atoms: C_31  and  C_32
REMARK   11  A    between atoms: C_32  and  C_33
REMARK   12  A    between atoms: C_33  and  N_34
REMARK                            x       y       z     vdW  Elec       q    Type
REMARK                         _______ _______ _______ _____ _____    ______ ____
ROOT
ATOM      1  N   UNL     1       1.049  -4.444   2.373  0.00  0.00    -0.254 N 
ATOM      2  C   UNL     1       1.627  -5.346   3.190  0.00  0.00    +0.309 C 
ATOM      3  O   UNL     1       1.115  -6.437   3.351  0.00  0.00    -0.252 OA
ATOM      4  N   UNL     1       2.773  -5.038   3.830  0.00  0.00    -0.269 N 
ATOM      5  H   UNL     1       1.457  -3.574   2.244  0.00  0.00    +0.158 HD
ATOM      6  H   UNL     1       3.216  -4.194   3.652  0.00  0.00    +0.156 HD
ENDROOT
BRANCH   4   7
ATOM      7  C   UNL     1       3.322  -5.935   4.749  0.00  0.00    +0.042 A 
ATOM      8  C   UNL     1       3.214  -7.293   4.544  0.00  0.00    +0.024 A 
ATOM      9  C   UNL     1       3.757  -8.195   5.455  0.00  0.00    +0.006 A 
ATOM     10  C   UNL     1       4.408  -7.763   6.569  0.00  0.00    -0.040 A 
ATOM     11  C   UNL     1       4.540  -6.386   6.815  0.00  0.00    -0.013 A 
ATOM     12  C   UNL     1       3.996  -5.458   5.893  0.00  0.00    +0.004 A 
ATOM     13  C   UNL     1       4.133  -4.082   6.137  0.00  0.00    +0.010 A 
ATOM     14  C   UNL     1       4.790  -3.658   7.252  0.00  0.00    +0.001 A 
ATOM     15  C   UNL     1       5.330  -4.569   8.156  0.00  0.00    +0.001 A 
ATOM     16  C   UNL     1       5.206  -5.910   7.958  0.00  0.00    +0.009 A 
BRANCH  10  17
ATOM     17  C   UNL     1       4.986  -8.761   7.540  0.00  0.00    +0.034 C 
BRANCH  17  18
ATOM     18  C   UNL     1       3.984  -9.015   8.668  0.00  0.00    -0.014 C 
BRANCH  18  19
ATOM     19  C   UNL     1       4.571 -10.027   9.653  0.00  0.00    -0.078 C 
BRANCH  19  20
ATOM     20  N   UNL     1       3.609 -10.271  10.736  0.00  0.00    +0.383 N 
ATOM     21  C   UNL     1       3.423  -9.038  11.513  0.00  0.00    -0.050 C 
ATOM     22  C   UNL     1       2.420  -9.295  12.640  0.00  0.00    +0.141 C 
ATOM     23  O   UNL     1       2.897 -10.366  13.460  0.00  0.00    -0.383 OA
ATOM     24  C   UNL     1       3.117 -11.584  12.743  0.00  0.00    +0.141 C 
ATOM     25  C   UNL     1       4.121 -11.331  11.616  0.00  0.00    -0.050 C 
ATOM     26  H   UNL     1       2.726 -10.558  10.342  0.00  0.00    -0.082 HD
ENDBRANCH  19  20
ENDBRANCH  18  19
ENDBRANCH  17  18
ENDBRANCH  10  17
ENDBRANCH   4   7
BRANCH   1  28
ATOM     27  N   UNL     1      -0.826  -3.954   0.860  0.00  0.00    -0.218 N 
ATOM     28  C   UNL     1      -0.137  -4.763   1.710  0.00  0.00    +0.130 A 
ATOM     29  C   UNL     1      -0.816  -5.939   1.796  0.00  0.00    +0.069 A 
ATOM     30  C   UNL     1      -1.945  -5.843   0.978  0.00  0.00    +0.071 A 
ATOM     31  N   UNL     1      -1.956  -4.658   0.423  0.00  0.00    -0.169 NA
BRANCH  27  36
ATOM     32  C   UNL     1       0.605   1.331  -0.630  0.00  0.00    +0.044 C 
ATOM     33  C   UNL     1       0.225  -0.072  -0.234  0.00  0.00    -0.050 A 
ATOM     34  C   UNL     1      -0.388  -0.906  -1.152  0.00  0.00    +0.005 A 
ATOM     35  C   UNL     1      -0.738  -2.193  -0.792  0.00  0.00    +0.028 A 
ATOM     36  C   UNL     1      -0.472  -2.649   0.492  0.00  0.00    +0.067 A 
ATOM     37  C   UNL     1       0.144  -1.810   1.411  0.00  0.00    +0.028 A 
ATOM     38  C   UNL     1       0.495  -0.526   1.044  0.00  0.00    +0.005 A 
ENDBRANCH  27  36
BRANCH  30  39
ATOM     39  C   UNL     1      -2.978  -6.921   0.773  0.00  0.00    +0.006 C 
ATOM     40  C   UNL     1      -3.876  -7.008   2.010  0.00  0.00    +0.017 C 
ATOM     41  C   UNL     1      -3.831  -6.585  -0.452  0.00  0.00    +0.017 C 
ATOM     42  C   UNL     1      -2.279  -8.264   0.555  0.00  0.00    +0.017 C 
ENDBRANCH  30  39
ENDBRANCH   1  28
TORSDOF 8
