REMARK  Name = CHEMBL1208889
REMARK  16 active torsions:
REMARK  status: ('A' for Active; 'I' for Inactive)
REMARK    1  A    between atoms: C_1  and  C_2
REMARK    2  A    between atoms: C_2  and  C_3
REMARK    3  A    between atoms: C_2  and  C_4
REMARK    4  A    between atoms: C_2  and  C_5
REMARK    5  A    between atoms: C_7  and  N_18
REMARK    6  A    between atoms: C_8  and  O_16
REMARK    7  A    between atoms: C_9  and  N_11
REMARK    8  A    between atoms: N_11  and  S_12
REMARK    9  A    between atoms: S_12  and  C_15
REMARK   10  A    between atoms: O_16  and  C_17
REMARK   11  A    between atoms: C_19  and  C_21
REMARK   12  A    between atoms: C_21  and  C_22
REMARK   13  A    between atoms: C_25  and  O_32
REMARK   14  A    between atoms: O_32  and  C_33
REMARK   15  A    between atoms: C_33  and  C_34
REMARK   16  A    between atoms: C_34  and  N_35
REMARK                            x       y       z     vdW  Elec       q    Type
REMARK                         _______ _______ _______ _____ _____    ______ ____
ROOT
ATOM      1  N   UNL     1      -0.110  -3.447  -2.880  0.00  0.00    -0.282 N 
ATOM      2  C   UNL     1      -0.283  -4.378  -1.921  0.00  0.00    +0.222 C 
ATOM      3  O   UNL     1      -0.752  -4.063  -0.848  0.00  0.00    -0.275 OA
ATOM      4  H   UNL     1       0.191  -3.711  -3.764  0.00  0.00    +0.155 HD
ENDROOT
BRANCH   1   7
ATOM      5  C   UNL     1      -0.650  -0.324  -1.008  0.00  0.00    -0.038 A 
ATOM      6  C   UNL     1      -0.400  -1.654  -1.285  0.00  0.00    +0.031 A 
ATOM      7  C   UNL     1      -0.364  -2.097  -2.600  0.00  0.00    +0.078 A 
ATOM      8  C   UNL     1      -0.580  -1.199  -3.640  0.00  0.00    +0.166 A 
ATOM      9  C   UNL     1      -0.832   0.139  -3.357  0.00  0.00    +0.117 A 
ATOM     10  C   UNL     1      -0.871   0.572  -2.038  0.00  0.00    +0.034 A 
BRANCH   5  12
ATOM     11  C   UNL     1      -0.988   1.652   0.452  0.00  0.00    +0.015 C 
ATOM     12  C   UNL     1      -0.688   0.152   0.421  0.00  0.00    -0.013 C 
ATOM     13  C   UNL     1       0.666  -0.112   1.083  0.00  0.00    +0.015 C 
ATOM     14  C   UNL     1      -1.782  -0.602   1.181  0.00  0.00    +0.015 C 
ENDBRANCH   5  12
BRANCH   8  15
ATOM     15  O   UNL     1      -0.545  -1.629  -4.931  0.00  0.00    -0.491 OA
ATOM     16  C   UNL     1      -1.777  -2.079  -5.499  0.00  0.00    +0.277 C 
ENDBRANCH   8  15
BRANCH   9  17
ATOM     17  N   UNL     1      -1.050   1.048  -4.399  0.00  0.00    -0.099 NA
BRANCH  17  18
ATOM     18  S   UNL     1      -1.349   2.641  -4.060  0.00  0.00    +0.060 S 
ATOM     19  O   UNL     1      -2.580   2.635  -3.349  0.00  0.00    -0.154 OA
ATOM     20  O   UNL     1      -0.158   3.110  -3.443  0.00  0.00    -0.154 OA
ATOM     21  C   UNL     1      -1.566   3.429  -5.679  0.00  0.00    +0.220 C 
ENDBRANCH  17  18
ENDBRANCH   9  17
ENDBRANCH   1   7
BRANCH   2  22
ATOM     22  C   UNL     1       0.107  -5.810  -2.182  0.00  0.00    +0.131 C 
BRANCH  22  23
ATOM     23  C   UNL     1      -0.186  -6.641  -0.959  0.00  0.00    -0.031 A 
ATOM     24  C   UNL     1       0.793  -6.877  -0.043  0.00  0.00    +0.008 A 
ATOM     25  C   UNL     1       0.544  -7.642   1.093  0.00  0.00    +0.046 A 
ATOM     26  C   UNL     1      -0.692  -8.178   1.321  0.00  0.00    +0.128 A 
ATOM     27  C   UNL     1      -1.729  -7.954   0.394  0.00  0.00    +0.024 A 
ATOM     28  C   UNL     1      -1.472  -7.170  -0.758  0.00  0.00    -0.011 A 
ATOM     29  C   UNL     1      -2.508  -6.942  -1.681  0.00  0.00    +0.009 A 
ATOM     30  C   UNL     1      -3.741  -7.470  -1.453  0.00  0.00    +0.001 A 
ATOM     31  C   UNL     1      -3.995  -8.236  -0.317  0.00  0.00    +0.001 A 
ATOM     32  C   UNL     1      -3.013  -8.487   0.592  0.00  0.00    +0.012 A 
BRANCH  26  33
ATOM     33  O   UNL     1      -0.919  -8.923   2.434  0.00  0.00    -0.490 OA
BRANCH  33  34
ATOM     34  C   UNL     1       0.182  -9.107   3.327  0.00  0.00    +0.244 C 
BRANCH  34  35
ATOM     35  C   UNL     1      -0.262  -9.966   4.513  0.00  0.00    +0.125 C 
BRANCH  35  36
ATOM     36  N   UNL     1      -0.591 -11.319   4.043  0.00  0.00    -0.295 NA
ATOM     37  C   UNL     1      -1.438 -12.024   5.016  0.00  0.00    +0.112 C 
ATOM     38  C   UNL     1      -1.805 -13.402   4.460  0.00  0.00    +0.175 C 
ATOM     39  O   UNL     1      -0.607 -14.124   4.161  0.00  0.00    -0.377 OA
ATOM     40  C   UNL     1       0.241 -13.467   3.216  0.00  0.00    +0.175 C 
ATOM     41  C   UNL     1       0.629 -12.089   3.759  0.00  0.00    +0.112 C 
ENDBRANCH  35  36
ENDBRANCH  34  35
ENDBRANCH  33  34
ENDBRANCH  26  33
ENDBRANCH  22  23
ENDBRANCH   2  22
TORSDOF 11
