REMARK  Name = CHEMBL420047
REMARK  8 active torsions:
REMARK  status: ('A' for Active; 'I' for Inactive)
REMARK    1  A    between atoms: C_1  and  C_2
REMARK    2  A    between atoms: C_5  and  N_8
REMARK    3  A    between atoms: C_9  and  N_17
REMARK    4  A    between atoms: C_11  and  C_13
REMARK    5  A    between atoms: C_13  and  C_14
REMARK    6  A    between atoms: C_13  and  C_15
REMARK    7  A    between atoms: C_13  and  C_16
REMARK    8  A    between atoms: N_20  and  C_21
REMARK                            x       y       z     vdW  Elec       q    Type
REMARK                         _______ _______ _______ _____ _____    ______ ____
ROOT
ATOM      1  N   UNL     1       0.082  -4.173  -0.037  0.00  0.00    -0.218 N 
ATOM      2  C   UNL     1       0.716  -4.971   0.864  0.00  0.00    +0.130 A 
ATOM      3  C   UNL     1       0.479  -6.262   0.503  0.00  0.00    +0.069 A 
ATOM      4  C   UNL     1      -0.317  -6.248  -0.646  0.00  0.00    +0.071 A 
ATOM      5  N   UNL     1      -0.560  -5.002  -0.966  0.00  0.00    -0.169 NA
ENDROOT
BRANCH   1  10
ATOM      6  C   UNL     1       0.027   1.502  -0.024  0.00  0.00    +0.044 C 
ATOM      7  C   UNL     1       0.042  -0.005  -0.027  0.00  0.00    -0.050 A 
ATOM      8  C   UNL     1       0.049  -0.692  -1.227  0.00  0.00    +0.005 A 
ATOM      9  C   UNL     1       0.062  -2.073  -1.234  0.00  0.00    +0.028 A 
ATOM     10  C   UNL     1       0.069  -2.772  -0.034  0.00  0.00    +0.067 A 
ATOM     11  C   UNL     1       0.062  -2.079   1.169  0.00  0.00    +0.028 A 
ATOM     12  C   UNL     1       0.054  -0.698   1.169  0.00  0.00    +0.005 A 
ENDBRANCH   1  10
BRANCH   2  13
ATOM     13  N   UNL     1       1.469  -4.545   1.958  0.00  0.00    -0.254 N 
ATOM     14  C   UNL     1       2.045  -5.450   2.774  0.00  0.00    +0.309 C 
ATOM     15  O   UNL     1       1.907  -6.639   2.557  0.00  0.00    -0.252 OA
ATOM     16  N   UNL     1       2.773  -5.038   3.830  0.00  0.00    -0.269 N 
ATOM     17  H   UNL     1       1.579  -3.597   2.131  0.00  0.00    +0.158 HD
ATOM     18  H   UNL     1       2.938  -4.092   3.966  0.00  0.00    +0.156 HD
BRANCH  16  19
ATOM     19  C   UNL     1       3.290  -5.973   4.729  0.00  0.00    +0.042 A 
ATOM     20  C   UNL     1       3.712  -7.207   4.283  0.00  0.00    +0.024 A 
ATOM     21  C   UNL     1       4.228  -8.146   5.170  0.00  0.00    +0.002 A 
ATOM     22  C   UNL     1       4.331  -7.874   6.500  0.00  0.00    +0.008 A 
ATOM     23  C   UNL     1       3.912  -6.628   6.996  0.00  0.00    -0.016 A 
ATOM     24  C   UNL     1       3.390  -5.662   6.101  0.00  0.00    +0.003 A 
ATOM     25  C   UNL     1       2.976  -4.415   6.597  0.00  0.00    +0.010 A 
ATOM     26  C   UNL     1       3.087  -4.149   7.928  0.00  0.00    +0.001 A 
ATOM     27  C   UNL     1       3.606  -5.097   8.808  0.00  0.00    +0.001 A 
ATOM     28  C   UNL     1       4.005  -6.320   8.364  0.00  0.00    +0.008 A 
ENDBRANCH  16  19
ENDBRANCH   2  13
BRANCH   4  29
ATOM     29  C   UNL     1      -0.817  -7.461  -1.386  0.00  0.00    +0.006 C 
ATOM     30  C   UNL     1      -1.958  -8.106  -0.597  0.00  0.00    +0.017 C 
ATOM     31  C   UNL     1      -1.324  -7.042  -2.768  0.00  0.00    +0.017 C 
ATOM     32  C   UNL     1       0.325  -8.467  -1.546  0.00  0.00    +0.017 C 
ENDBRANCH   4  29
TORSDOF 4
