REMARK  Name = CHEMBL436102
REMARK  9 active torsions:
REMARK  status: ('A' for Active; 'I' for Inactive)
REMARK    1  A    between atoms: C_1  and  C_2
REMARK    2  A    between atoms: C_2  and  O_3
REMARK    3  A    between atoms: O_3  and  C_4
REMARK    4  A    between atoms: C_4  and  N_5
REMARK    5  A    between atoms: C_6  and  C_18
REMARK    6  A    between atoms: C_7  and  C_11
REMARK    7  A    between atoms: N_24  and  C_25
REMARK    8  A    between atoms: C_25  and  C_27
REMARK    9  A    between atoms: C_25  and  C_28
REMARK                            x       y       z     vdW  Elec       q    Type
REMARK                         _______ _______ _______ _____ _____    ______ ____
ROOT
ATOM      1  N   UNL     1       1.835  -2.124   0.420  0.00  0.00    -0.176 N 
ATOM      2  C   UNL     1       1.725  -2.363  -0.914  0.00  0.00    +0.118 A 
ATOM      3  C   UNL     1       2.963  -2.781  -1.375  0.00  0.00    +0.097 A 
ATOM      4  C   UNL     1       3.851  -2.793  -0.274  0.00  0.00    +0.367 A 
ATOM      5  O   UNL     1       5.028  -3.109  -0.304  0.00  0.00    -0.243 OA
ATOM      6  O   UNL     1       3.170  -2.390   0.809  0.00  0.00    -0.332 OA
ENDROOT
BRANCH   2   7
ATOM      7  C   UNL     1       0.500  -2.204  -1.729  0.00  0.00    +0.096 A 
ATOM      8  C   UNL     1      -0.732  -1.956  -1.117  0.00  0.00    +0.050 A 
ATOM      9  C   UNL     1      -1.851  -1.815  -1.922  0.00  0.00    +0.116 A 
ATOM     10  N   UNL     1      -1.721  -1.919  -3.234  0.00  0.00    -0.223 NA
ATOM     11  C   UNL     1      -0.540  -2.154  -3.787  0.00  0.00    +0.216 A 
ATOM     12  N   UNL     1       0.555  -2.290  -3.057  0.00  0.00    -0.213 NA
ATOM     13  N   UNL     1      -0.448  -2.255  -5.165  0.00  0.00    -0.307 N 
ATOM     14  H   UNL     1       0.410  -2.427  -5.582  0.00  0.00    +0.149 HD
BRANCH  13  15
ATOM     15  C   UNL     1      -1.648  -2.102  -5.991  0.00  0.00    +0.100 C 
ATOM     16  C   UNL     1      -1.894  -0.617  -6.264  0.00  0.00    +0.033 C 
BRANCH  15  17
ATOM     17  C   UNL     1      -1.453  -2.827  -7.298  0.00  0.00    -0.027 A 
ATOM     18  C   UNL     1      -0.228  -2.782  -7.937  0.00  0.00    +0.005 A 
ATOM     19  C   UNL     1      -0.049  -3.447  -9.136  0.00  0.00    +0.000 A 
ATOM     20  C   UNL     1      -1.095  -4.157  -9.696  0.00  0.00    +0.000 A 
ATOM     21  C   UNL     1      -2.320  -4.202  -9.056  0.00  0.00    +0.000 A 
ATOM     22  C   UNL     1      -2.498  -3.541  -7.855  0.00  0.00    +0.005 A 
ENDBRANCH  15  17
ENDBRANCH  13  15
ENDBRANCH   2   7
BRANCH   3  23
ATOM     23  C   UNL     1       3.297  -3.149  -2.771  0.00  0.00    -0.009 A 
ATOM     24  C   UNL     1       2.697  -4.260  -3.364  0.00  0.00    +0.011 A 
ATOM     25  C   UNL     1       3.011  -4.598  -4.664  0.00  0.00    +0.039 A 
ATOM     26  C   UNL     1       3.921  -3.837  -5.380  0.00  0.00    +0.123 A 
ATOM     27  C   UNL     1       4.521  -2.733  -4.795  0.00  0.00    +0.039 A 
ATOM     28  C   UNL     1       4.208  -2.383  -3.498  0.00  0.00    +0.011 A 
ATOM     29  F   UNL     1       4.226  -4.173  -6.652  0.00  0.00    -0.205 F 
ENDBRANCH   3  23
BRANCH   1  30
ATOM     30  C   UNL     1       0.759  -1.664   1.301  0.00  0.00    +0.321 C 
BRANCH  30  31
ATOM     31  O   UNL     1      -0.050  -2.777   1.686  0.00  0.00    -0.357 OA
BRANCH  31  33
ATOM     32  C   UNL     1      -0.487  -4.652   3.147  0.00  0.00    +0.034 C 
ATOM     33  C   UNL     1       0.512  -3.570   2.734  0.00  0.00    +0.159 C 
ENDBRANCH  31  33
ENDBRANCH  30  31
ENDBRANCH   1  30
TORSDOF 7
