REMARK  Name = CHEMBL526452
REMARK  5 active torsions:
REMARK  status: ('A' for Active; 'I' for Inactive)
REMARK    1  A    between atoms: C_1  and  C_2
REMARK    2  A    between atoms: C_5  and  N_20
REMARK    3  A    between atoms: C_7  and  C_8
REMARK    4  A    between atoms: C_11  and  C_14
REMARK    5  A    between atoms: C_21  and  C_23
REMARK                            x       y       z     vdW  Elec       q    Type
REMARK                         _______ _______ _______ _____ _____    ______ ____
ROOT
ATOM      1  C   UNL     1      -0.045   1.502   0.029  0.00  0.00    +0.044 C 
ATOM      2  C   UNL     1      -0.017  -0.004   0.016  0.00  0.00    -0.043 A 
ATOM      3  C   UNL     1      -0.004  -0.684  -1.186  0.00  0.00    +0.006 A 
ATOM      4  C   UNL     1       0.020  -2.066  -1.204  0.00  0.00    +0.023 A 
ATOM      5  C   UNL     1       0.032  -2.779  -0.011  0.00  0.00    +0.034 A 
ATOM      6  C   UNL     1       0.020  -2.104   1.200  0.00  0.00    +0.032 A 
ATOM      7  C   UNL     1       0.001  -0.712   1.217  0.00  0.00    -0.013 A 
ENDROOT
BRANCH   7   8
ATOM      8  C   UNL     1      -0.007   0.017   2.509  0.00  0.00    -0.018 A 
ATOM      9  C   UNL     1       0.897   1.056   2.729  0.00  0.00    +0.009 A 
ATOM     10  C   UNL     1       0.890   1.733   3.928  0.00  0.00    +0.010 A 
ATOM     11  C   UNL     1      -0.022   1.379   4.923  0.00  0.00    +0.001 A 
ATOM     12  C   UNL     1      -0.926   0.339   4.703  0.00  0.00    +0.010 A 
ATOM     13  C   UNL     1      -0.922  -0.334   3.501  0.00  0.00    +0.009 A 
BRANCH  11  14
ATOM     14  C   UNL     1      -0.029   2.106   6.215  0.00  0.00    +0.080 A 
ATOM     15  C   UNL     1      -0.915   1.762   7.196  0.00  0.00    +0.076 A 
ATOM     16  S   UNL     1      -0.474   2.936   8.470  0.00  0.00    -0.060 S 
ATOM     17  C   UNL     1       0.835   3.760   7.575  0.00  0.00    +0.156 A 
ATOM     18  N   UNL     1       0.831   3.099   6.433  0.00  0.00    -0.225 NA
ATOM     19  N   UNL     1       1.643   4.811   7.976  0.00  0.00    -0.338 N 
ATOM     20  H   UNL     1       1.532   5.200   8.858  0.00  0.00    +0.144 HD
ATOM     21  H   UNL     1       2.320   5.159   7.375  0.00  0.00    +0.144 HD
ENDBRANCH  11  14
ENDBRANCH   7   8
BRANCH   5  22
ATOM     22  N   UNL     1       0.056  -4.177  -0.032  0.00  0.00    -0.281 N 
ATOM     23  C   UNL     1       0.739  -4.854   0.912  0.00  0.00    +0.248 C 
ATOM     24  O   UNL     1       1.263  -4.255   1.830  0.00  0.00    -0.270 OA
ATOM     25  H   UNL     1      -0.418  -4.660  -0.727  0.00  0.00    +0.155 HD
BRANCH  23  26
ATOM     26  C   UNL     1       0.850  -6.329   0.832  0.00  0.00    +0.042 A 
ATOM     27  C   UNL     1       0.258  -7.038  -0.221  0.00  0.00    +0.033 A 
ATOM     28  C   UNL     1       0.384  -8.411  -0.261  0.00  0.00    +0.113 A 
ATOM     29  N   UNL     1       1.051  -9.060   0.674  0.00  0.00    -0.240 NA
ATOM     30  C   UNL     1       1.627  -8.433   1.687  0.00  0.00    +0.122 A 
ATOM     31  C   UNL     1       1.552  -7.048   1.799  0.00  0.00    +0.056 A 
ATOM     32  N   UNL     1       2.318  -9.165   2.645  0.00  0.00    -0.315 N 
ATOM     33  C   UNL     1       2.578 -10.611   2.597  0.00  0.00    +0.106 C 
ATOM     34  C   UNL     1       3.351 -10.981   3.880  0.00  0.00    +0.020 C 
ATOM     35  C   UNL     1       2.990  -9.825   4.849  0.00  0.00    +0.020 C 
ATOM     36  C   UNL     1       2.917  -8.618   3.877  0.00  0.00    +0.106 C 
ENDBRANCH  23  26
ENDBRANCH   5  22
TORSDOF 4
