REMARK  Name = CHEMBL199986
REMARK  9 active torsions:
REMARK  status: ('A' for Active; 'I' for Inactive)
REMARK    1  A    between atoms: C_1  and  N_2
REMARK    2  A    between atoms: N_2  and  C_3
REMARK    3  A    between atoms: N_2  and  C_4
REMARK    4  A    between atoms: C_4  and  C_5
REMARK    5  A    between atoms: C_6  and  C_7
REMARK    6  A    between atoms: C_10  and  O_32
REMARK    7  A    between atoms: C_11  and  C_13
REMARK    8  A    between atoms: N_23  and  C_24
REMARK    9  A    between atoms: O_32  and  C_33
REMARK                            x       y       z     vdW  Elec       q    Type
REMARK                         _______ _______ _______ _____ _____    ______ ____
ROOT
ATOM      1  C   UNL     1      -1.201   0.925   8.664  0.00  0.00    +0.107 A 
ATOM      2  C   UNL     1       0.216   0.792   9.011  0.00  0.00    +0.065 A 
ATOM      3  C   UNL     1       1.419   1.130   8.389  0.00  0.00    +0.128 A 
ATOM      4  N   UNL     1       2.551   0.855   9.011  0.00  0.00    -0.222 NA
ATOM      5  C   UNL     1       2.557   0.267  10.202  0.00  0.00    +0.221 A 
ATOM      6  N   UNL     1       1.443  -0.072  10.830  0.00  0.00    -0.195 NA
ATOM      7  C   UNL     1       0.258   0.169  10.276  0.00  0.00    +0.161 A 
ATOM      8  N   UNL     1      -1.034  -0.051  10.652  0.00  0.00    -0.259 N 
ATOM      9  N   UNL     1      -1.895   0.423   9.656  0.00  0.00    -0.171 NA
ATOM     10  H   UNL     1      -1.313  -0.468  11.482  0.00  0.00    +0.191 HD
ATOM     11  N   UNL     1       3.772   0.000  10.810  0.00  0.00    -0.281 N 
ATOM     12  H   UNL     1       3.801  -0.504  11.638  0.00  0.00    +0.155 HD
ENDROOT
BRANCH  11  13
ATOM     13  C   UNL     1       4.961   0.459  10.228  0.00  0.00    +0.069 A 
ATOM     14  C   UNL     1       4.942   1.559   9.382  0.00  0.00    +0.029 A 
ATOM     15  C   UNL     1       6.116   2.010   8.809  0.00  0.00    +0.040 A 
ATOM     16  C   UNL     1       7.312   1.365   9.078  0.00  0.00    +0.126 A 
ATOM     17  C   UNL     1       7.335   0.267   9.921  0.00  0.00    +0.078 A 
ATOM     18  C   UNL     1       6.163  -0.185  10.501  0.00  0.00    +0.147 A 
ATOM     19  F   UNL     1       6.186  -1.253  11.327  0.00  0.00    -0.203 F 
ATOM     20  F   UNL     1       8.458   1.809   8.516  0.00  0.00    -0.205 F 
ENDBRANCH  11  13
BRANCH   1  25
ATOM     21  C   UNL     1      -1.735   1.737   5.024  0.00  0.00    +0.026 A 
ATOM     22  C   UNL     1      -2.788   2.652   5.103  0.00  0.00    +0.020 A 
ATOM     23  C   UNL     1      -3.314   2.999   6.330  0.00  0.00    +0.047 A 
ATOM     24  C   UNL     1      -2.802   2.441   7.492  0.00  0.00    +0.129 A 
ATOM     25  C   UNL     1      -1.748   1.522   7.423  0.00  0.00    +0.046 A 
ATOM     26  C   UNL     1      -1.220   1.167   6.186  0.00  0.00    +0.030 A 
BRANCH  21  28
ATOM     27  C   UNL     1      -0.745   1.087   2.703  0.00  0.00    -0.116 C 
ATOM     28  C   UNL     1      -1.191   1.380   3.748  0.00  0.00    -0.068 C 
BRANCH  27  29
ATOM     29  C   UNL     1      -0.185   0.721   1.391  0.00  0.00    +0.012 C 
BRANCH  29  31
ATOM     30  C   UNL     1      -0.638   2.892   0.477  0.00  0.00    -0.095 C 
ATOM     31  N   UNL     1      -0.895   1.452   0.334  0.00  0.00    +0.383 N 
ATOM     32  C   UNL     1      -0.420   0.998  -0.980  0.00  0.00    -0.095 C 
ATOM     33  H   UNL     1      -1.886   1.278   0.412  0.00  0.00    -0.081 HD
ENDBRANCH  29  31
ENDBRANCH  27  29
ENDBRANCH  21  28
BRANCH  24  34
ATOM     34  O   UNL     1      -3.324   2.786   8.697  0.00  0.00    -0.494 OA
ATOM     35  C   UNL     1      -4.397   3.729   8.694  0.00  0.00    +0.277 C 
ENDBRANCH  24  34
ENDBRANCH   1  25
TORSDOF 6
