REMARK  Name = CHEMBL605790
REMARK  8 active torsions:
REMARK  status: ('A' for Active; 'I' for Inactive)
REMARK    1  A    between atoms: C_1  and  C_2
REMARK    2  A    between atoms: C_6  and  C_30
REMARK    3  A    between atoms: C_10  and  C_12
REMARK    4  A    between atoms: N_19  and  C_29
REMARK    5  A    between atoms: C_21  and  C_22
REMARK    6  A    between atoms: C_22  and  C_24
REMARK    7  A    between atoms: N_26  and  C_27
REMARK    8  A    between atoms: N_26  and  C_28
REMARK                            x       y       z     vdW  Elec       q    Type
REMARK                         _______ _______ _______ _____ _____    ______ ____
ROOT
ATOM      1  C   UNL     1       1.769   1.168  -1.240  0.00  0.00    +0.029 C 
ATOM      2  C   UNL     1       0.879   0.208  -0.447  0.00  0.00    +0.091 C 
ATOM      3  C   UNL     1      -0.426   0.916  -0.062  0.00  0.00    +0.129 C 
ATOM      4  N   UNL     1      -1.145   0.079   0.909  0.00  0.00    -0.307 N 
ATOM      5  C   UNL     1      -0.454  -0.332   2.139  0.00  0.00    +0.089 C 
ATOM      6  C   UNL     1       0.852  -1.039   1.754  0.00  0.00    +0.130 C 
ATOM      7  N   UNL     1       1.573  -0.206   0.781  0.00  0.00    -0.291 N 
ATOM      8  C   UNL     1       2.845   0.175   1.013  0.00  0.00    +0.248 C 
ATOM      9  O   UNL     1       3.402   0.933   0.242  0.00  0.00    -0.270 OA
ATOM     10  C   UNL     1      -1.345  -1.288   2.934  0.00  0.00    +0.029 C 
ATOM     11  C   UNL     1      -2.463  -0.319   0.667  0.00  0.00    +0.151 A 
ATOM     12  C   UNL     1      -3.669   0.452   0.975  0.00  0.00    +0.043 A 
ATOM     13  C   UNL     1      -3.898   1.705   1.551  0.00  0.00    +0.013 A 
ATOM     14  C   UNL     1      -5.176   2.156   1.707  0.00  0.00    +0.002 A 
ATOM     15  C   UNL     1      -6.255   1.381   1.299  0.00  0.00    +0.022 A 
ATOM     16  C   UNL     1      -6.055   0.144   0.730  0.00  0.00    +0.066 A 
ATOM     17  C   UNL     1      -4.758  -0.337   0.560  0.00  0.00    +0.086 A 
ATOM     18  N   UNL     1      -4.236  -1.494   0.042  0.00  0.00    -0.274 N 
ATOM     19  H   UNL     1      -4.752  -2.229  -0.323  0.00  0.00    +0.189 HD
ATOM     20  N   UNL     1      -2.840  -1.444   0.119  0.00  0.00    -0.158 NA
ATOM     21 CL   UNL     1      -7.413  -0.814   0.226  0.00  0.00    -0.081 Cl
ENDROOT
BRANCH   8  22
ATOM     22  C   UNL     1       3.561  -0.328   2.201  0.00  0.00    +0.056 A 
ATOM     23  C   UNL     1       3.410  -1.656   2.597  0.00  0.00    +0.025 A 
ATOM     24  C   UNL     1       4.088  -2.118   3.715  0.00  0.00    +0.012 A 
ATOM     25  C   UNL     1       4.923  -1.255   4.447  0.00  0.00    +0.051 A 
ATOM     26  C   UNL     1       5.066   0.070   4.042  0.00  0.00    +0.047 A 
ATOM     27  C   UNL     1       4.398   0.528   2.930  0.00  0.00    +0.055 A 
ATOM     28 CL   UNL     1       4.589   2.179   2.430  0.00  0.00    -0.083 Cl
ATOM     29  N   UNL     1       5.459  -1.978   5.491  0.00  0.00    -0.349 N 
ATOM     30  C   UNL     1       5.017  -3.249   5.470  0.00  0.00    +0.098 A 
ATOM     31  C   UNL     1       4.161  -3.425   4.400  0.00  0.00    +0.052 A 
ATOM     32  C   UNL     1       6.385  -1.436   6.489  0.00  0.00    +0.149 C 
BRANCH  31  33
ATOM     33  C   UNL     1       3.466  -4.655   4.023  0.00  0.00    +0.249 C 
ATOM     34  O   UNL     1       2.737  -4.667   3.050  0.00  0.00    -0.282 OA
BRANCH  33  35
ATOM     35  C   UNL     1       3.653  -5.895   4.830  0.00  0.00    +0.287 C 
ATOM     36  O   UNL     1       4.359  -5.875   5.818  0.00  0.00    -0.266 OA
ATOM     37  N   UNL     1       3.038  -7.037   4.464  0.00  0.00    -0.301 N 
ATOM     38  C   UNL     1       3.168  -8.237   5.293  0.00  0.00    +0.132 C 
ATOM     39  C   UNL     1       2.240  -7.077   3.236  0.00  0.00    +0.132 C 
ENDBRANCH  33  35
ENDBRANCH  31  33
ENDBRANCH   8  22
TORSDOF 3
