REMARK  Name = CHEMBL329049
REMARK  5 active torsions:
REMARK  status: ('A' for Active; 'I' for Inactive)
REMARK    1  A    between atoms: C_4  and  C_7
REMARK    2  A    between atoms: C_7  and  N_8
REMARK    3  A    between atoms: C_11  and  N_14
REMARK    4  A    between atoms: C_17  and  C_26
REMARK    5  A    between atoms: C_18  and  C_19
REMARK                            x       y       z     vdW  Elec       q    Type
REMARK                         _______ _______ _______ _____ _____    ______ ____
ROOT
ATOM      1  N   UNL     1       6.339  -0.941   4.972  0.00  0.00    -0.325 N 
ATOM      2  C   UNL     1       5.538  -1.571   5.856  0.00  0.00    +0.200 A 
ATOM      3  N   UNL     1       6.221  -1.877   6.924  0.00  0.00    -0.235 NA
ATOM      4  C   UNL     1       7.492  -1.461   6.781  0.00  0.00    +0.098 A 
ATOM      5  C   UNL     1       7.593  -0.863   5.537  0.00  0.00    +0.095 A 
ENDROOT
BRANCH   5   6
ATOM      6  C   UNL     1       8.799  -0.263   4.938  0.00  0.00    +0.094 A 
ATOM      7  C   UNL     1       8.970  -0.245   3.547  0.00  0.00    +0.050 A 
ATOM      8  C   UNL     1      10.116   0.329   3.033  0.00  0.00    +0.116 A 
ATOM      9  N   UNL     1      11.013   0.842   3.862  0.00  0.00    -0.223 NA
ATOM     10  C   UNL     1      10.827   0.813   5.174  0.00  0.00    +0.213 A 
ATOM     11  N   UNL     1       9.742   0.278   5.711  0.00  0.00    -0.213 NA
ATOM     12  N   UNL     1      11.790   1.361   6.004  0.00  0.00    -0.327 N 
ATOM     13  H   UNL     1      12.588   1.759   5.624  0.00  0.00    +0.145 HD
ATOM     14  H   UNL     1      11.666   1.346   6.966  0.00  0.00    +0.145 HD
ENDBRANCH   5   6
BRANCH   1  18
ATOM     15  N   UNL     1       3.921  -0.225   1.595  0.00  0.00    +0.382 N 
ATOM     16  C   UNL     1       4.283   0.943   2.407  0.00  0.00    -0.076 C 
ATOM     17  C   UNL     1       4.734   0.484   3.795  0.00  0.00    +0.006 C 
ATOM     18  C   UNL     1       5.949  -0.437   3.653  0.00  0.00    +0.085 C 
ATOM     19  C   UNL     1       5.581  -1.613   2.744  0.00  0.00    +0.006 C 
ATOM     20  C   UNL     1       5.099  -1.076   1.394  0.00  0.00    -0.076 C 
ATOM     21  H   UNL     1       3.203  -0.752   2.069  0.00  0.00    -0.081 HD
BRANCH  15  22
ATOM     22  C   UNL     1       3.415   0.225   0.291  0.00  0.00    -0.043 C 
BRANCH  22  26
ATOM     23  C   UNL     1      -0.211   2.414   0.845  0.00  0.00    +0.000 A 
ATOM     24  C   UNL     1       1.004   3.073   0.862  0.00  0.00    +0.000 A 
ATOM     25  C   UNL     1       2.178   2.365   0.683  0.00  0.00    +0.002 A 
ATOM     26  C   UNL     1       2.136   0.997   0.487  0.00  0.00    -0.064 A 
ATOM     27  C   UNL     1       0.921   0.338   0.471  0.00  0.00    +0.002 A 
ATOM     28  C   UNL     1      -0.252   1.046   0.648  0.00  0.00    +0.000 A 
ENDBRANCH  22  26
ENDBRANCH  15  22
ENDBRANCH   1  18
BRANCH   4  29
ATOM     29  C   UNL     1       8.583  -1.619   7.771  0.00  0.00    +0.003 A 
ATOM     30  C   UNL     1       9.891  -1.839   7.340  0.00  0.00    +0.013 A 
ATOM     31  C   UNL     1      10.904  -1.986   8.266  0.00  0.00    +0.039 A 
ATOM     32  C   UNL     1      10.623  -1.914   9.621  0.00  0.00    +0.123 A 
ATOM     33  C   UNL     1       9.325  -1.696  10.053  0.00  0.00    +0.039 A 
ATOM     34  C   UNL     1       8.306  -1.542   9.136  0.00  0.00    +0.013 A 
ATOM     35  F   UNL     1      11.618  -2.058  10.523  0.00  0.00    -0.205 F 
ENDBRANCH   4  29
TORSDOF 5
