REMARK  Name = CHEMBL370156
REMARK  9 active torsions:
REMARK  status: ('A' for Active; 'I' for Inactive)
REMARK    1  A    between atoms: C_1  and  C_2
REMARK    2  A    between atoms: C_2  and  C_3
REMARK    3  A    between atoms: C_2  and  C_4
REMARK    4  A    between atoms: C_2  and  O_33
REMARK    5  A    between atoms: C_5  and  C_6
REMARK    6  A    between atoms: C_9  and  O_31
REMARK    7  A    between atoms: C_10  and  C_12
REMARK    8  A    between atoms: N_19  and  C_20
REMARK    9  A    between atoms: O_31  and  C_32
REMARK                            x       y       z     vdW  Elec       q    Type
REMARK                         _______ _______ _______ _____ _____    ______ ____
ROOT
ATOM      1  C   UNL     1      -5.994  -4.681   0.225  0.00  0.00    +0.097 A 
ATOM      2  C   UNL     1      -6.558  -5.417  -0.821  0.00  0.00    +0.135 A 
ATOM      3  C   UNL     1      -6.358  -6.834  -0.483  0.00  0.00    +0.202 A 
ATOM      4  N   UNL     1      -6.812  -7.773  -1.331  0.00  0.00    -0.208 NA
ATOM      5  C   UNL     1      -7.423  -7.406  -2.440  0.00  0.00    +0.144 A 
ATOM      6  C   UNL     1      -7.609  -6.048  -2.756  0.00  0.00    +0.155 A 
ATOM      7  N   UNL     1      -7.184  -5.099  -1.960  0.00  0.00    -0.246 NA
ATOM      8  N   UNL     1      -7.889  -8.378  -3.312  0.00  0.00    -0.296 N 
ATOM      9  N   UNL     1      -5.724  -6.868   0.675  0.00  0.00    -0.151 NA
ATOM     10  N   UNL     1      -5.492  -5.561   1.115  0.00  0.00    -0.273 N 
ATOM     11  H   UNL     1      -5.039  -5.323   1.940  0.00  0.00    +0.189 HD
ATOM     12  H   UNL     1      -8.252  -8.121  -4.175  0.00  0.00    +0.154 HD
ENDROOT
BRANCH   8  13
ATOM     13  C   UNL     1      -7.838  -9.729  -2.948  0.00  0.00    +0.068 A 
ATOM     14  C   UNL     1      -7.926 -10.092  -1.612  0.00  0.00    +0.029 A 
ATOM     15  C   UNL     1      -7.875 -11.426  -1.254  0.00  0.00    +0.040 A 
ATOM     16  C   UNL     1      -7.734 -12.401  -2.228  0.00  0.00    +0.126 A 
ATOM     17  C   UNL     1      -7.645 -12.042  -3.562  0.00  0.00    +0.078 A 
ATOM     18  C   UNL     1      -7.703 -10.709  -3.926  0.00  0.00    +0.147 A 
ATOM     19  F   UNL     1      -7.622 -10.359  -5.228  0.00  0.00    -0.203 F 
ATOM     20  F   UNL     1      -7.684 -13.704  -1.875  0.00  0.00    -0.205 F 
ENDBRANCH   8  13
BRANCH   1  25
ATOM     21  C   UNL     1      -4.694  -1.155   0.402  0.00  0.00    +0.026 A 
ATOM     22  C   UNL     1      -5.885  -0.436   0.536  0.00  0.00    +0.020 A 
ATOM     23  C   UNL     1      -7.095  -1.097   0.568  0.00  0.00    +0.047 A 
ATOM     24  C   UNL     1      -7.139  -2.479   0.467  0.00  0.00    +0.129 A 
ATOM     25  C   UNL     1      -5.950  -3.211   0.332  0.00  0.00    +0.045 A 
ATOM     26  C   UNL     1      -4.727  -2.543   0.294  0.00  0.00    +0.030 A 
BRANCH  21  28
ATOM     27  C   UNL     1      -2.412   0.103   0.343  0.00  0.00    -0.063 C 
ATOM     28  C   UNL     1      -3.440  -0.463   0.369  0.00  0.00    -0.063 C 
BRANCH  27  30
ATOM     29  C   UNL     1      -1.367   2.318   0.446  0.00  0.00    +0.055 C 
ATOM     30  C   UNL     1      -1.124   0.814   0.309  0.00  0.00    +0.121 C 
ATOM     31  C   UNL     1      -0.246   0.332   1.466  0.00  0.00    +0.055 C 
BRANCH  30  32
ATOM     32  O   UNL     1      -0.465   0.548  -0.931  0.00  0.00    -0.377 OA
ATOM     33  H   UNL     1      -0.966   0.828  -1.710  0.00  0.00    +0.211 HD
ENDBRANCH  30  32
ENDBRANCH  27  30
ENDBRANCH  21  28
BRANCH  24  34
ATOM     34  O   UNL     1      -8.333  -3.125   0.500  0.00  0.00    -0.494 OA
ATOM     35  C   UNL     1      -9.503  -2.317   0.641  0.00  0.00    +0.277 C 
ENDBRANCH  24  34
ENDBRANCH   1  25
TORSDOF 6
