REMARK  Name = CHEMBL329080
REMARK  6 active torsions:
REMARK  status: ('A' for Active; 'I' for Inactive)
REMARK    1  A    between atoms: C_4  and  O_7
REMARK    2  A    between atoms: O_7  and  C_8
REMARK    3  A    between atoms: C_12  and  C_14
REMARK    4  A    between atoms: C_15  and  C_26
REMARK    5  A    between atoms: N_18  and  C_19
REMARK    6  A    between atoms: C_22  and  O_25
REMARK                            x       y       z     vdW  Elec       q    Type
REMARK                         _______ _______ _______ _____ _____    ______ ____
ROOT
ATOM      1  C   UNL     1       5.984  -4.715   0.339  0.00  0.00    +0.095 A 
ATOM      2  C   UNL     1       7.241  -4.254  -0.012  0.00  0.00    +0.098 A 
ATOM      3  N   UNL     1       8.119  -5.234   0.265  0.00  0.00    -0.235 NA
ATOM      4  C   UNL     1       7.486  -6.261   0.761  0.00  0.00    +0.200 A 
ATOM      5  N   UNL     1       6.167  -5.988   0.832  0.00  0.00    -0.325 N 
ENDROOT
BRANCH   2   6
ATOM      6  C   UNL     1       7.560  -2.926  -0.587  0.00  0.00    +0.003 A 
ATOM      7  C   UNL     1       6.666  -2.310  -1.463  0.00  0.00    +0.013 A 
ATOM      8  C   UNL     1       6.968  -1.074  -1.996  0.00  0.00    +0.039 A 
ATOM      9  C   UNL     1       8.156  -0.445  -1.662  0.00  0.00    +0.123 A 
ATOM     10  C   UNL     1       9.047  -1.053  -0.793  0.00  0.00    +0.039 A 
ATOM     11  C   UNL     1       8.752  -2.286  -0.250  0.00  0.00    +0.013 A 
ATOM     12  F   UNL     1       8.447   0.766  -2.187  0.00  0.00    -0.205 F 
ENDBRANCH   2   6
BRANCH   1  17
ATOM     13  C   UNL     1       3.531  -2.004   0.186  0.00  0.00    +0.324 A 
ATOM     14  N   UNL     1       2.384  -2.636  -0.006  0.00  0.00    -0.203 NA
ATOM     15  C   UNL     1       2.338  -3.957  -0.096  0.00  0.00    +0.118 A 
ATOM     16  C   UNL     1       3.508  -4.684   0.013  0.00  0.00    +0.050 A 
ATOM     17  C   UNL     1       4.707  -3.988   0.216  0.00  0.00    +0.096 A 
ATOM     18  N   UNL     1       4.675  -2.656   0.292  0.00  0.00    -0.193 NA
BRANCH  13  19
ATOM     19  O   UNL     1       3.532  -0.652   0.272  0.00  0.00    -0.424 OA
BRANCH  19  23
ATOM     20  C   UNL     1      -0.107   1.292   0.269  0.00  0.00    +0.000 A 
ATOM     21  C   UNL     1       0.239   0.478   1.331  0.00  0.00    +0.004 A 
ATOM     22  C   UNL     1       1.457  -0.174   1.335  0.00  0.00    +0.046 A 
ATOM     23  C   UNL     1       2.333  -0.012   0.271  0.00  0.00    +0.132 A 
ATOM     24  C   UNL     1       1.983   0.806  -0.794  0.00  0.00    +0.046 A 
ATOM     25  C   UNL     1       0.764   1.456  -0.793  0.00  0.00    +0.004 A 
ENDBRANCH  19  23
ENDBRANCH  13  19
ENDBRANCH   1  17
BRANCH   5  26
ATOM     26  C   UNL     1       5.122  -6.882   1.337  0.00  0.00    +0.089 C 
ATOM     27  C   UNL     1       5.486  -7.347   2.749  0.00  0.00    +0.027 C 
ATOM     28  C   UNL     1       4.395  -8.280   3.276  0.00  0.00    +0.033 C 
ATOM     29  C   UNL     1       4.274  -9.496   2.354  0.00  0.00    +0.115 C 
ATOM     30  C   UNL     1       3.910  -9.031   0.943  0.00  0.00    +0.033 C 
ATOM     31  C   UNL     1       5.001  -8.098   0.416  0.00  0.00    +0.027 C 
BRANCH  29  32
ATOM     32  O   UNL     1       3.255 -10.368   2.847  0.00  0.00    -0.392 OA
ATOM     33  H   UNL     1       3.123 -11.161   2.311  0.00  0.00    +0.210 HD
ENDBRANCH  29  32
ENDBRANCH   5  26
TORSDOF 6
