REMARK  Name = CHEMBL255482
REMARK  9 active torsions:
REMARK  status: ('A' for Active; 'I' for Inactive)
REMARK    1  A    between atoms: C_1  and  C_2
REMARK    2  A    between atoms: C_2  and  C_3
REMARK    3  A    between atoms: C_3  and  N_4
REMARK    4  A    between atoms: C_8  and  C_10
REMARK    5  A    between atoms: N_12  and  C_13
REMARK    6  A    between atoms: C_15  and  C_20
REMARK    7  A    between atoms: C_18  and  C_19
REMARK    8  A    between atoms: N_22  and  C_23
REMARK    9  A    between atoms: C_23  and  C_24
REMARK                            x       y       z     vdW  Elec       q    Type
REMARK                         _______ _______ _______ _____ _____    ______ ____
ROOT
ATOM      1  C   UNL     1       2.362  -5.548   4.984  0.00  0.00    +0.256 C 
ATOM      2  O   UNL     1       2.447  -5.440   6.194  0.00  0.00    -0.269 OA
ATOM      3  N   UNL     1       2.716  -6.701   4.384  0.00  0.00    -0.281 N 
ATOM      4  H   UNL     1       2.574  -6.816   3.431  0.00  0.00    +0.155 HD
ENDROOT
BRANCH   1   9
ATOM      5  N   UNL     1       0.706  -1.980   1.262  0.00  0.00    -0.323 N 
ATOM      6  C   UNL     1       1.082  -2.716   2.365  0.00  0.00    +0.159 A 
ATOM      7  N   UNL     1       1.078  -2.348   3.635  0.00  0.00    -0.233 NA
ATOM      8  C   UNL     1       1.466  -3.162   4.584  0.00  0.00    +0.133 A 
ATOM      9  C   UNL     1       1.878  -4.425   4.183  0.00  0.00    +0.095 A 
ATOM     10  S   UNL     1       1.647  -4.301   2.416  0.00  0.00    -0.048 S 
ATOM     11  H   UNL     1       0.753  -2.374   0.377  0.00  0.00    +0.148 HD
BRANCH   5  12
ATOM     12  C   UNL     1       0.236  -0.602   1.427  0.00  0.00    +0.103 C 
BRANCH  12  14
ATOM     13  C   UNL     1      -0.605   1.423   0.230  0.00  0.00    +0.005 C 
ATOM     14  C   UNL     1      -0.114  -0.016   0.058  0.00  0.00    +0.015 C 
ENDBRANCH  12  14
ENDBRANCH   5  12
ENDBRANCH   1   9
BRANCH   3  15
ATOM     15  C   UNL     1       3.287  -7.734   5.135  0.00  0.00    +0.037 A 
ATOM     16  C   UNL     1       3.957  -7.445   6.314  0.00  0.00    +0.036 A 
ATOM     17  C   UNL     1       4.525  -8.478   7.059  0.00  0.00    +0.038 A 
ATOM     18  C   UNL     1       4.415  -9.797   6.612  0.00  0.00    +0.013 A 
ATOM     19  C   UNL     1       3.747 -10.074   5.437  0.00  0.00    +0.006 A 
ATOM     20  C   UNL     1       3.178  -9.050   4.702  0.00  0.00    -0.029 A 
ATOM     21  C   UNL     1       2.444  -9.362   3.424  0.00  0.00    +0.045 C 
BRANCH  17  22
ATOM     22  C   UNL     1       5.241  -8.179   8.317  0.00  0.00    +0.244 C 
ATOM     23  O   UNL     1       5.336  -7.030   8.704  0.00  0.00    -0.270 OA
ATOM     24  N   UNL     1       5.789  -9.179   9.035  0.00  0.00    -0.312 N 
ATOM     25  H   UNL     1       5.714 -10.095   8.726  0.00  0.00    +0.149 HD
BRANCH  24  26
ATOM     26  C   UNL     1       6.499  -8.882  10.282  0.00  0.00    +0.101 C 
ATOM     27  C   UNL     1       7.020 -10.184  10.895  0.00  0.00    +0.024 C 
ENDBRANCH  24  26
ENDBRANCH  17  22
ENDBRANCH   3  15
TORSDOF 6
