REMARK  Name = CHEMBL495084
REMARK  5 active torsions:
REMARK  status: ('A' for Active; 'I' for Inactive)
REMARK    1  A    between atoms: C_1  and  C_2
REMARK    2  A    between atoms: C_7  and  C_8
REMARK    3  A    between atoms: C_12  and  C_18
REMARK    4  A    between atoms: C_19  and  C_31
REMARK    5  A    between atoms: N_27  and  C_28
REMARK                            x       y       z     vdW  Elec       q    Type
REMARK                         _______ _______ _______ _____ _____    ______ ____
ROOT
ATOM      1  C   UNL     1       0.173   0.154   2.408  0.00  0.00    +0.101 A 
ATOM      2  C   UNL     1       0.398  -0.476   3.656  0.00  0.00    +0.011 A 
ATOM      3  C   UNL     1       0.555  -1.861   3.782  0.00  0.00    +0.011 A 
ATOM      4  C   UNL     1       0.768  -2.407   5.010  0.00  0.00    +0.009 A 
ATOM      5  C   UNL     1       0.833  -1.600   6.157  0.00  0.00    -0.013 A 
ATOM      6  C   UNL     1       0.681  -0.227   6.064  0.00  0.00    +0.018 A 
ATOM      7  C   UNL     1       0.462   0.352   4.808  0.00  0.00    +0.005 A 
ATOM      8  C   UNL     1       0.298   1.738   4.630  0.00  0.00    +0.143 A 
ATOM      9  N   UNL     1       0.095   2.209   3.420  0.00  0.00    -0.156 NA
ATOM     10  N   UNL     1       0.041   1.471   2.374  0.00  0.00    -0.149 NA
ENDROOT
BRANCH   5  11
ATOM     11  C   UNL     1       1.066  -2.224   7.482  0.00  0.00    +0.031 A 
ATOM     12  C   UNL     1       0.122  -3.090   8.022  0.00  0.00    -0.039 A 
ATOM     13  C   UNL     1       0.333  -3.675   9.258  0.00  0.00    +0.005 A 
ATOM     14  C   UNL     1       1.483  -3.409   9.971  0.00  0.00    +0.015 A 
ATOM     15  C   UNL     1       2.443  -2.543   9.446  0.00  0.00    +0.063 A 
ATOM     16  C   UNL     1       2.241  -1.949   8.192  0.00  0.00    +0.177 A 
ATOM     17  O   UNL     1       3.317  -1.178   7.936  0.00  0.00    -0.352 OA
ATOM     18  N   UNL     1       4.228  -1.266   9.013  0.00  0.00    -0.062 NA
ATOM     19  C   UNL     1       3.745  -2.057   9.931  0.00  0.00    +0.170 A 
ATOM     20  N   UNL     1       4.352  -2.391  11.133  0.00  0.00    -0.323 N 
ATOM     21  C   UNL     1      -1.141  -3.392   7.256  0.00  0.00    +0.044 C 
ATOM     22  H   UNL     1       3.912  -3.000  11.746  0.00  0.00    +0.148 HD
BRANCH  20  23
ATOM     23  C   UNL     1       5.657  -1.822  11.477  0.00  0.00    +0.072 C 
ATOM     24  C   UNL     1       6.702  -2.764  12.077  0.00  0.00    +0.024 C 
ATOM     25  C   UNL     1       6.015  -1.721  12.961  0.00  0.00    +0.024 C 
ENDBRANCH  20  23
ENDBRANCH   5  11
BRANCH   1  32
ATOM     26  C   UNL     1      -2.094   0.477   0.641  0.00  0.00    +0.044 C 
ATOM     27  C   UNL     1      -0.994  -0.496   0.304  0.00  0.00    -0.041 A 
ATOM     28  C   UNL     1      -1.059  -1.238  -0.857  0.00  0.00    +0.004 A 
ATOM     29  C   UNL     1      -0.050  -2.132  -1.167  0.00  0.00    +0.000 A 
ATOM     30  C   UNL     1       1.030  -2.288  -0.316  0.00  0.00    +0.001 A 
ATOM     31  C   UNL     1       1.106  -1.551   0.848  0.00  0.00    +0.010 A 
ATOM     32  C   UNL     1       0.095  -0.644   1.163  0.00  0.00    +0.006 A 
ENDBRANCH   1  32
TORSDOF 3
