REMARK  Name = CHEMBL424418
REMARK  4 active torsions:
REMARK  status: ('A' for Active; 'I' for Inactive)
REMARK    1  A    between atoms: C_3  and  C_11
REMARK    2  A    between atoms: C_5  and  C_7
REMARK    3  A    between atoms: C_12  and  C_23
REMARK    4  A    between atoms: C_15  and  C_17
REMARK                            x       y       z     vdW  Elec       q    Type
REMARK                         _______ _______ _______ _____ _____    ______ ____
ROOT
ATOM      1  C   UNL     1       3.656   2.159  -0.022  0.00  0.00    +0.076 A 
ATOM      2  C   UNL     1       3.980   3.252   0.764  0.00  0.00    +0.115 A 
ATOM      3  N   UNL     1       5.231   3.628   0.436  0.00  0.00    -0.230 NA
ATOM      4  H   UNL     1       4.844   1.203  -1.464  0.00  0.00    +0.167 HD
ATOM      5  C   UNL     1       5.693   2.841  -0.494  0.00  0.00    +0.111 A 
ATOM      6  N   UNL     1       4.755   1.911  -0.806  0.00  0.00    -0.341 N 
ENDROOT
BRANCH   2   7
ATOM      7  C   UNL     1       3.111   3.891   1.776  0.00  0.00    +0.096 A 
ATOM      8  C   UNL     1       3.668   4.615   2.836  0.00  0.00    +0.050 A 
ATOM      9  C   UNL     1       2.816   5.194   3.757  0.00  0.00    +0.116 A 
ATOM     10  N   UNL     1       1.507   5.049   3.611  0.00  0.00    -0.223 NA
ATOM     11  C   UNL     1       1.006   4.358   2.597  0.00  0.00    +0.213 A 
ATOM     12  N   UNL     1       1.785   3.791   1.689  0.00  0.00    -0.213 NA
ATOM     13  N   UNL     1      -0.367   4.230   2.482  0.00  0.00    -0.327 N 
ATOM     14  H   UNL     1      -0.950   4.643   3.139  0.00  0.00    +0.145 HD
ATOM     15  H   UNL     1      -0.748   3.727   1.745  0.00  0.00    +0.145 HD
ENDBRANCH   2   7
BRANCH   5  16
ATOM     16  C   UNL     1       7.060   2.943  -1.121  0.00  0.00    +0.051 C 
ATOM     17  C   UNL     1       6.978   2.544  -2.597  0.00  0.00    -0.008 C 
ATOM     18  C   UNL     1       8.381   2.573  -3.207  0.00  0.00    -0.082 C 
ATOM     19  N   UNL     1       9.249   1.630  -2.491  0.00  0.00    +0.379 N 
ATOM     20  C   UNL     1       9.390   2.048  -1.091  0.00  0.00    -0.082 C 
ATOM     21  C   UNL     1       8.026   1.998  -0.400  0.00  0.00    -0.008 C 
ATOM     22  H   UNL     1       8.842   0.707  -2.526  0.00  0.00    -0.086 HD
ATOM     23  H   UNL     1      10.158   1.613  -2.929  0.00  0.00    -0.086 HD
ENDBRANCH   5  16
BRANCH   1  26
ATOM     24  C   UNL     1      -0.017   1.379   0.010  0.00  0.00    +0.001 A 
ATOM     25  C   UNL     1       1.167   2.088   0.002  0.00  0.00    +0.010 A 
ATOM     26  C   UNL     1       2.385   1.407  -0.013  0.00  0.00    +0.001 A 
ATOM     27  C   UNL     1       2.397   0.010  -0.021  0.00  0.00    +0.022 A 
ATOM     28  C   UNL     1       1.206  -0.686  -0.013  0.00  0.00    +0.055 A 
ATOM     29  C   UNL     1       0.002  -0.004   0.002  0.00  0.00    +0.012 A 
BRANCH  28  30
ATOM     30  C   UNL     1       1.217  -2.193  -0.021  0.00  0.00    +0.417 C 
ATOM     31  F   UNL     1       1.232  -2.666   1.295  0.00  0.00    -0.166 F 
ATOM     32  F   UNL     1       0.071  -2.664  -0.672  0.00  0.00    -0.166 F 
ATOM     33  F   UNL     1       2.356  -2.648  -0.694  0.00  0.00    -0.166 F 
ENDBRANCH  28  30
ENDBRANCH   1  26
TORSDOF 4
