REMARK  Name = CHEMBL423196
REMARK  11 active torsions:
REMARK  status: ('A' for Active; 'I' for Inactive)
REMARK    1  A    between atoms: C_1  and  C_2
REMARK    2  A    between atoms: C_2  and  C_3
REMARK    3  A    between atoms: C_2  and  C_4
REMARK    4  A    between atoms: C_2  and  C_5
REMARK    5  A    between atoms: C_7  and  N_16
REMARK    6  A    between atoms: N_8  and  C_10
REMARK    7  A    between atoms: N_19  and  C_20
REMARK    8  A    between atoms: C_23  and  O_30
REMARK    9  A    between atoms: O_30  and  C_31
REMARK   10  A    between atoms: C_31  and  C_32
REMARK   11  A    between atoms: C_32  and  N_33
REMARK                            x       y       z     vdW  Elec       q    Type
REMARK                         _______ _______ _______ _____ _____    ______ ____
ROOT
ATOM      1  N   UNL     1       3.647  -1.100  -3.450  0.00  0.00    -0.254 N 
ATOM      2  C   UNL     1       4.754  -0.732  -2.776  0.00  0.00    +0.309 C 
ATOM      3  O   UNL     1       4.668  -0.372  -1.617  0.00  0.00    -0.252 OA
ATOM      4  N   UNL     1       5.955  -0.761  -3.385  0.00  0.00    -0.269 N 
ATOM      5  H   UNL     1       3.715  -1.386  -4.374  0.00  0.00    +0.158 HD
ATOM      6  H   UNL     1       6.034  -1.114  -4.285  0.00  0.00    +0.156 HD
ENDROOT
BRANCH   4   7
ATOM      7  C   UNL     1       7.089  -0.284  -2.719  0.00  0.00    +0.043 A 
ATOM      8  C   UNL     1       7.210  -0.438  -1.356  0.00  0.00    +0.027 A 
ATOM      9  C   UNL     1       8.332   0.033  -0.681  0.00  0.00    +0.048 A 
ATOM     10  C   UNL     1       9.344   0.660  -1.351  0.00  0.00    +0.128 A 
ATOM     11  C   UNL     1       9.257   0.837  -2.746  0.00  0.00    +0.026 A 
ATOM     12  C   UNL     1       8.120   0.355  -3.440  0.00  0.00    +0.007 A 
ATOM     13  C   UNL     1       8.037   0.527  -4.831  0.00  0.00    +0.010 A 
ATOM     14  C   UNL     1       9.050   1.149  -5.495  0.00  0.00    +0.001 A 
ATOM     15  C   UNL     1      10.172   1.617  -4.814  0.00  0.00    +0.001 A 
ATOM     16  C   UNL     1      10.281   1.478  -3.464  0.00  0.00    +0.012 A 
BRANCH  10  17
ATOM     17  O   UNL     1      10.432   1.113  -0.674  0.00  0.00    -0.490 OA
BRANCH  17  18
ATOM     18  C   UNL     1      10.451   0.899   0.739  0.00  0.00    +0.244 C 
BRANCH  18  19
ATOM     19  C   UNL     1      11.744   1.472   1.324  0.00  0.00    +0.125 C 
BRANCH  19  20
ATOM     20  N   UNL     1      11.770   2.927   1.122  0.00  0.00    -0.295 NA
ATOM     21  C   UNL     1      13.094   3.480   1.442  0.00  0.00    +0.112 C 
ATOM     22  C   UNL     1      13.094   4.985   1.161  0.00  0.00    +0.175 C 
ATOM     23  O   UNL     1      12.050   5.606   1.917  0.00  0.00    -0.377 OA
ATOM     24  C   UNL     1      10.747   5.092   1.630  0.00  0.00    +0.175 C 
ATOM     25  C   UNL     1      10.723   3.588   1.915  0.00  0.00    +0.112 C 
ENDBRANCH  19  20
ENDBRANCH  18  19
ENDBRANCH  17  18
ENDBRANCH  10  17
ENDBRANCH   4   7
BRANCH   1  28
ATOM     26  C   UNL     1       0.788  -0.805  -1.305  0.00  0.00    +0.070 A 
ATOM     27  C   UNL     1       2.162  -0.690  -1.535  0.00  0.00    +0.069 A 
ATOM     28  C   UNL     1       2.403  -1.069  -2.820  0.00  0.00    +0.125 A 
ATOM     29  N   UNL     1       1.217  -1.409  -3.374  0.00  0.00    -0.247 N 
ATOM     30  N   UNL     1       0.223  -1.240  -2.402  0.00  0.00    -0.174 NA
BRANCH  29  31
ATOM     31  C   UNL     1       1.010  -1.878  -4.746  0.00  0.00    +0.109 C 
ATOM     32  C   UNL     1       0.068  -0.918  -5.476  0.00  0.00    +0.027 C 
ATOM     33  C   UNL     1      -0.148  -1.407  -6.910  0.00  0.00    +0.002 C 
ATOM     34  C   UNL     1      -0.766  -2.807  -6.883  0.00  0.00    +0.000 C 
ATOM     35  C   UNL     1       0.176  -3.767  -6.153  0.00  0.00    +0.002 C 
ATOM     36  C   UNL     1       0.392  -3.277  -4.720  0.00  0.00    +0.027 C 
ENDBRANCH  29  31
BRANCH  26  38
ATOM     37  C   UNL     1      -0.021   1.029   0.154  0.00  0.00    +0.017 C 
ATOM     38  C   UNL     1       0.080  -0.488  -0.013  0.00  0.00    +0.006 C 
ATOM     39  C   UNL     1       0.867  -1.080   1.158  0.00  0.00    +0.017 C 
ATOM     40  C   UNL     1      -1.325  -1.093  -0.040  0.00  0.00    +0.017 C 
ENDBRANCH  26  38
ENDBRANCH   1  28
TORSDOF 8
