REMARK  Name = CHEMBL476141
REMARK  7 active torsions:
REMARK  status: ('A' for Active; 'I' for Inactive)
REMARK    1  A    between atoms: C_1  and  C_2
REMARK    2  A    between atoms: C_5  and  N_21
REMARK    3  A    between atoms: C_7  and  C_8
REMARK    4  A    between atoms: C_11  and  C_14
REMARK    5  A    between atoms: N_16  and  C_17
REMARK    6  A    between atoms: C_17  and  C_18
REMARK    7  A    between atoms: C_22  and  C_24
REMARK                            x       y       z     vdW  Elec       q    Type
REMARK                         _______ _______ _______ _____ _____    ______ ____
ROOT
ATOM      1  C   UNL     1      -0.037   1.503   0.024  0.00  0.00    +0.044 C 
ATOM      2  C   UNL     1      -0.011  -0.004   0.011  0.00  0.00    -0.043 A 
ATOM      3  C   UNL     1       0.001  -0.684  -1.190  0.00  0.00    +0.006 A 
ATOM      4  C   UNL     1       0.025  -2.066  -1.207  0.00  0.00    +0.023 A 
ATOM      5  C   UNL     1       0.037  -2.779  -0.013  0.00  0.00    +0.034 A 
ATOM      6  C   UNL     1       0.026  -2.103   1.198  0.00  0.00    +0.032 A 
ATOM      7  C   UNL     1       0.007  -0.711   1.213  0.00  0.00    -0.013 A 
ENDROOT
BRANCH   7   8
ATOM      8  C   UNL     1       0.001   0.018   2.504  0.00  0.00    -0.018 A 
ATOM      9  C   UNL     1       0.906   1.057   2.723  0.00  0.00    +0.009 A 
ATOM     10  C   UNL     1       0.901   1.734   3.921  0.00  0.00    +0.013 A 
ATOM     11  C   UNL     1      -0.011   1.381   4.919  0.00  0.00    +0.037 A 
ATOM     12  C   UNL     1      -0.917   0.341   4.699  0.00  0.00    +0.013 A 
ATOM     13  C   UNL     1      -0.914  -0.331   3.498  0.00  0.00    +0.009 A 
BRANCH  11  14
ATOM     14  C   UNL     1      -0.016   2.107   6.206  0.00  0.00    +0.244 C 
ATOM     15  O   UNL     1       0.773   3.012   6.397  0.00  0.00    -0.270 OA
ATOM     16  N   UNL     1      -0.896   1.766   7.168  0.00  0.00    -0.311 N 
ATOM     17  H   UNL     1      -1.526   1.044   7.015  0.00  0.00    +0.149 HD
BRANCH  16  18
ATOM     18  C   UNL     1      -0.902   2.486   8.444  0.00  0.00    +0.108 C 
BRANCH  18  19
ATOM     19  C   UNL     1      -1.988   1.905   9.352  0.00  0.00    +0.006 C 
ATOM     20  C   UNL     1      -3.143   2.827   9.750  0.00  0.00    +0.005 C 
ATOM     21  C   UNL     1      -2.078   2.446  10.780  0.00  0.00    +0.005 C 
ENDBRANCH  18  19
ENDBRANCH  16  18
ENDBRANCH  11  14
ENDBRANCH   7   8
BRANCH   5  22
ATOM     22  N   UNL     1       0.061  -4.177  -0.034  0.00  0.00    -0.281 N 
ATOM     23  C   UNL     1       0.744  -4.854   0.910  0.00  0.00    +0.248 C 
ATOM     24  O   UNL     1       1.270  -4.254   1.827  0.00  0.00    -0.270 OA
ATOM     25  H   UNL     1      -0.414  -4.660  -0.729  0.00  0.00    +0.155 HD
BRANCH  23  26
ATOM     26  C   UNL     1       0.855  -6.329   0.830  0.00  0.00    +0.042 A 
ATOM     27  C   UNL     1       0.262  -7.038  -0.221  0.00  0.00    +0.033 A 
ATOM     28  C   UNL     1       0.387  -8.411  -0.261  0.00  0.00    +0.113 A 
ATOM     29  N   UNL     1       1.054  -9.060   0.674  0.00  0.00    -0.240 NA
ATOM     30  C   UNL     1       1.631  -8.432   1.686  0.00  0.00    +0.122 A 
ATOM     31  C   UNL     1       1.558  -7.047   1.798  0.00  0.00    +0.056 A 
ATOM     32  N   UNL     1       2.322  -9.164   2.645  0.00  0.00    -0.315 N 
ATOM     33  C   UNL     1       2.608 -10.589   2.437  0.00  0.00    +0.106 C 
ATOM     34  C   UNL     1       4.112 -10.821   2.613  0.00  0.00    +0.019 C 
ATOM     35  C   UNL     1       4.550 -10.286   3.979  0.00  0.00    +0.003 C 
ATOM     36  C   UNL     1       4.282  -8.781   4.048  0.00  0.00    +0.019 C 
ATOM     37  C   UNL     1       2.785  -8.524   3.885  0.00  0.00    +0.106 C 
ENDBRANCH  23  26
ENDBRANCH   5  22
TORSDOF 6
