REMARK  Name = CHEMBL109732
REMARK  10 active torsions:
REMARK  status: ('A' for Active; 'I' for Inactive)
REMARK    1  A    between atoms: C_1  and  C_2
REMARK    2  A    between atoms: C_2  and  C_3
REMARK    3  A    between atoms: C_2  and  N_9
REMARK    4  A    between atoms: C_12  and  C_16
REMARK    5  A    between atoms: C_17  and  C_33
REMARK    6  A    between atoms: C_19  and  S_22
REMARK    7  A    between atoms: S_22  and  C_23
REMARK    8  A    between atoms: C_23  and  C_24
REMARK    9  A    between atoms: C_27  and  S_30
REMARK   10  A    between atoms: S_30  and  C_32
REMARK                            x       y       z     vdW  Elec       q    Type
REMARK                         _______ _______ _______ _____ _____    ______ ____
ROOT
ATOM      1  C   UNL     1       4.963  -0.030  -1.180  0.00  0.00    +0.075 A 
ATOM      2  C   UNL     1       6.083  -0.683  -1.660  0.00  0.00    +0.098 A 
ATOM      3  N   UNL     1       6.529   0.002  -2.729  0.00  0.00    -0.221 NA
ATOM      4  C   UNL     1       5.755   1.040  -2.942  0.00  0.00    +0.168 A 
ATOM      5  N   UNL     1       4.764   1.060  -2.009  0.00  0.00    -0.332 N 
ATOM      6  H   UNL     1       4.054   1.717  -1.937  0.00  0.00    +0.168 HD
ENDROOT
BRANCH   1  10
ATOM      7  N   UNL     1       0.625  -0.892   0.932  0.00  0.00    -0.322 N 
ATOM      8  C   UNL     1       2.013  -0.841   1.005  0.00  0.00    +0.120 A 
ATOM      9  C   UNL     1       2.746  -0.467  -0.112  0.00  0.00    +0.053 A 
ATOM     10  C   UNL     1       4.141  -0.421  -0.021  0.00  0.00    +0.005 A 
ATOM     11  C   UNL     1       4.738  -0.757   1.206  0.00  0.00    +0.030 A 
ATOM     12  C   UNL     1       3.936  -1.117   2.264  0.00  0.00    +0.113 A 
ATOM     13  N   UNL     1       2.620  -1.144   2.144  0.00  0.00    -0.240 NA
ATOM     14  H   UNL     1       0.107  -1.148   1.710  0.00  0.00    +0.148 HD
BRANCH   7  16
ATOM     15  C   UNL     1      -0.252   0.957  -0.408  0.00  0.00    +0.033 C 
ATOM     16  C   UNL     1      -0.054  -0.558  -0.323  0.00  0.00    +0.099 C 
BRANCH  16  17
ATOM     17  C   UNL     1      -1.396  -1.242  -0.364  0.00  0.00    -0.028 A 
ATOM     18  C   UNL     1      -2.174  -1.309   0.776  0.00  0.00    +0.005 A 
ATOM     19  C   UNL     1      -3.405  -1.937   0.738  0.00  0.00    +0.000 A 
ATOM     20  C   UNL     1      -3.858  -2.498  -0.442  0.00  0.00    +0.000 A 
ATOM     21  C   UNL     1      -3.080  -2.431  -1.583  0.00  0.00    +0.000 A 
ATOM     22  C   UNL     1      -1.852  -1.799  -1.545  0.00  0.00    +0.005 A 
ENDBRANCH  16  17
ENDBRANCH   7  16
ENDBRANCH   1  10
BRANCH   2  23
ATOM     23  C   UNL     1       6.684  -1.915  -1.099  0.00  0.00    +0.003 A 
ATOM     24  C   UNL     1       5.867  -2.975  -0.705  0.00  0.00    +0.013 A 
ATOM     25  C   UNL     1       6.432  -4.121  -0.183  0.00  0.00    +0.039 A 
ATOM     26  C   UNL     1       7.807  -4.219  -0.049  0.00  0.00    +0.123 A 
ATOM     27  C   UNL     1       8.623  -3.168  -0.439  0.00  0.00    +0.039 A 
ATOM     28  C   UNL     1       8.068  -2.021  -0.967  0.00  0.00    +0.013 A 
ATOM     29  F   UNL     1       8.355  -5.343   0.463  0.00  0.00    -0.205 F 
ENDBRANCH   2  23
BRANCH   4  30
ATOM     30  S   UNL     1       5.961   2.218  -4.236  0.00  0.00    -0.083 S 
BRANCH  30  31
ATOM     31  C   UNL     1       7.431   1.639  -5.127  0.00  0.00    +0.112 C 
BRANCH  31  32
ATOM     32  C   UNL     1       7.723   2.571  -6.275  0.00  0.00    -0.037 A 
ATOM     33  C   UNL     1       7.158   2.338  -7.515  0.00  0.00    +0.005 A 
ATOM     34  C   UNL     1       7.425   3.193  -8.568  0.00  0.00    +0.017 A 
ATOM     35  C   UNL     1       8.257   4.280  -8.381  0.00  0.00    +0.039 A 
ATOM     36  C   UNL     1       8.822   4.514  -7.141  0.00  0.00    +0.017 A 
ATOM     37  C   UNL     1       8.551   3.662  -6.087  0.00  0.00    +0.005 A 
BRANCH  35  38
ATOM     38  S   UNL     1       8.599   5.369  -9.724  0.00  0.00    +0.051 S 
ATOM     39  O   UNL     1       9.849   5.952  -9.384  0.00  0.00    -0.252 OA
ATOM     40  C   UNL     1       7.295   6.626  -9.612  0.00  0.00    +0.127 C 
ENDBRANCH  35  38
ENDBRANCH  31  32
ENDBRANCH  30  31
ENDBRANCH   4  30
TORSDOF 8
