REMARK  Name = CHEMBL142425
REMARK  6 active torsions:
REMARK  status: ('A' for Active; 'I' for Inactive)
REMARK    1  A    between atoms: C_1  and  C_2
REMARK    2  A    between atoms: C_2  and  C_4
REMARK    3  A    between atoms: C_2  and  O_29
REMARK    4  A    between atoms: C_4  and  N_5
REMARK    5  A    between atoms: C_8  and  C_12
REMARK    6  A    between atoms: C_13  and  C_22
REMARK                            x       y       z     vdW  Elec       q    Type
REMARK                         _______ _______ _______ _____ _____    ______ ____
ROOT
ATOM      1  C   UNL     1       3.284  -1.895   5.405  0.00  0.00    +0.057 A 
ATOM      2  C   UNL     1       4.427  -2.273   6.080  0.00  0.00    +0.033 A 
ATOM      3  C   UNL     1       4.516  -1.411   7.267  0.00  0.00    +0.097 A 
ATOM      4  C   UNL     1       3.396  -0.561   7.218  0.00  0.00    +0.066 A 
ATOM      5  N   UNL     1       2.676  -0.869   6.085  0.00  0.00    -0.352 N 
ATOM      6  H   UNL     1       1.857  -0.428   5.810  0.00  0.00    +0.166 HD
ATOM      7  C   UNL     1       3.219   0.377   8.232  0.00  0.00    +0.029 A 
ATOM      8  C   UNL     1       4.157   0.431   9.248  0.00  0.00    +0.022 A 
ATOM      9  C   UNL     1       5.237  -0.439   9.232  0.00  0.00    +0.111 A 
ATOM     10  N   UNL     1       5.389  -1.319   8.266  0.00  0.00    -0.253 NA
ENDROOT
BRANCH   1  14
ATOM     11  N   UNL     1      -0.293  -3.778   2.631  0.00  0.00    -0.328 N 
ATOM     12  C   UNL     1       1.039  -3.416   2.796  0.00  0.00    +0.097 A 
ATOM     13  C   UNL     1       1.454  -2.855   3.997  0.00  0.00    +0.051 A 
ATOM     14  C   UNL     1       2.796  -2.496   4.147  0.00  0.00    +0.004 A 
ATOM     15  C   UNL     1       3.667  -2.721   3.071  0.00  0.00    +0.027 A 
ATOM     16  C   UNL     1       3.174  -3.282   1.915  0.00  0.00    +0.085 A 
ATOM     17  N   UNL     1       1.900  -3.614   1.809  0.00  0.00    -0.350 N 
ATOM     18  H   UNL     1      -0.587  -4.174   1.796  0.00  0.00    +0.147 HD
ATOM     19  H   UNL     1       1.584  -4.012   0.983  0.00  0.00    +0.166 HD
BRANCH  11  20
ATOM     20  C   UNL     1      -1.252  -3.562   3.717  0.00  0.00    +0.133 C 
BRANCH  20  22
ATOM     21  C   UNL     1      -3.661  -3.706   4.364  0.00  0.00    +0.039 C 
ATOM     22  C   UNL     1      -2.636  -4.045   3.279  0.00  0.00    +0.128 C 
BRANCH  22  23
ATOM     23  O   UNL     1      -2.606  -5.459   3.077  0.00  0.00    -0.391 OA
ATOM     24  H   UNL     1      -2.364  -5.964   3.865  0.00  0.00    +0.210 HD
ENDBRANCH  22  23
ENDBRANCH  20  22
ENDBRANCH  11  20
ENDBRANCH   1  14
BRANCH   2  25
ATOM     25  C   UNL     1       5.377  -3.337   5.686  0.00  0.00    -0.014 A 
ATOM     26  C   UNL     1       4.970  -4.671   5.676  0.00  0.00    +0.011 A 
ATOM     27  C   UNL     1       5.859  -5.659   5.308  0.00  0.00    +0.039 A 
ATOM     28  C   UNL     1       7.155  -5.328   4.947  0.00  0.00    +0.123 A 
ATOM     29  C   UNL     1       7.565  -4.005   4.955  0.00  0.00    +0.039 A 
ATOM     30  C   UNL     1       6.682  -3.009   5.316  0.00  0.00    +0.011 A 
ATOM     31  F   UNL     1       8.022  -6.300   4.587  0.00  0.00    -0.205 F 
ENDBRANCH   2  25
TORSDOF 5
