REMARK  Name = CHEMBL309802
REMARK  9 active torsions:
REMARK  status: ('A' for Active; 'I' for Inactive)
REMARK    1  A    between atoms: C_1  and  C_2
REMARK    2  A    between atoms: C_2  and  C_35
REMARK    3  A    between atoms: C_5  and  C_8
REMARK    4  A    between atoms: C_11  and  C_21
REMARK    5  A    between atoms: C_12  and  C_14
REMARK    6  A    between atoms: N_27  and  C_28
REMARK    7  A    between atoms: C_28  and  C_29
REMARK    8  A    between atoms: N_37  and  C_38
REMARK    9  A    between atoms: N_37  and  C_39
REMARK                            x       y       z     vdW  Elec       q    Type
REMARK                         _______ _______ _______ _____ _____    ______ ____
ROOT
ATOM      1  C   UNL     1      -1.475  -4.183   0.619  0.00  0.00    +0.165 A 
ATOM      2  N   UNL     1      -2.461  -4.721  -0.041  0.00  0.00    -0.225 NA
ATOM      3  H   UNL     1       0.173  -5.032   1.573  0.00  0.00    +0.167 HD
ATOM      4  C   UNL     1      -2.317  -6.060  -0.055  0.00  0.00    +0.115 A 
ATOM      5  C   UNL     1      -1.161  -6.360   0.645  0.00  0.00    +0.076 A 
ATOM      6  N   UNL     1      -0.640  -5.159   1.059  0.00  0.00    -0.337 N 
ENDROOT
BRANCH   4   7
ATOM      7  C   UNL     1      -3.226  -7.032  -0.700  0.00  0.00    +0.096 A 
ATOM      8  C   UNL     1      -4.571  -6.709  -0.920  0.00  0.00    +0.050 A 
ATOM      9  C   UNL     1      -5.382  -7.649  -1.527  0.00  0.00    +0.116 A 
ATOM     10  N   UNL     1      -4.869  -8.818  -1.879  0.00  0.00    -0.223 NA
ATOM     11  C   UNL     1      -3.592  -9.098  -1.659  0.00  0.00    +0.216 A 
ATOM     12  N   UNL     1      -2.778  -8.226  -1.086  0.00  0.00    -0.213 NA
ATOM     13  N   UNL     1      -3.097 -10.332  -2.042  0.00  0.00    -0.308 N 
ATOM     14  H   UNL     1      -2.164 -10.550  -1.887  0.00  0.00    +0.149 HD
BRANCH  13  15
ATOM     15  C   UNL     1      -3.981 -11.310  -2.682  0.00  0.00    +0.160 C 
BRANCH  15  16
ATOM     16  C   UNL     1      -3.201 -12.560  -2.998  0.00  0.00    +0.058 A 
ATOM     17  C   UNL     1      -3.222 -13.620  -2.110  0.00  0.00    +0.025 A 
ATOM     18  C   UNL     1      -2.502 -14.766  -2.410  0.00  0.00    +0.003 A 
ATOM     19  C   UNL     1      -1.784 -14.804  -3.596  0.00  0.00    +0.020 A 
ATOM     20  C   UNL     1      -1.811 -13.705  -4.434  0.00  0.00    +0.111 A 
ATOM     21  N   UNL     1      -2.512 -12.633  -4.119  0.00  0.00    -0.258 NA
ENDBRANCH  15  16
ENDBRANCH  13  15
ENDBRANCH   4   7
BRANCH   1  26
ATOM     22  C   UNL     1      -0.030   1.271   0.251  0.00  0.00    +0.025 C 
ATOM     23  C   UNL     1      -0.204  -0.226  -0.014  0.00  0.00    +0.091 C 
ATOM     24  C   UNL     1      -1.696  -0.557  -0.125  0.00  0.00    +0.181 C 
ATOM     25  O   UNL     1      -1.849  -1.976  -0.240  0.00  0.00    -0.344 OA
ATOM     26  C   UNL     1      -1.286  -2.706   0.852  0.00  0.00    +0.318 C 
ATOM     27  O   UNL     1       0.110  -2.414   0.952  0.00  0.00    -0.344 OA
ATOM     28  C   UNL     1       0.396  -1.026   1.147  0.00  0.00    +0.181 C 
BRANCH  23  29
ATOM     29  C   UNL     1       0.495  -0.596  -1.297  0.00  0.00    +0.225 C 
ATOM     30  O   UNL     1       1.445  -1.350  -1.274  0.00  0.00    -0.275 OA
ATOM     31  N   UNL     1       0.066  -0.089  -2.469  0.00  0.00    -0.307 N 
ATOM     32  C   UNL     1       0.669  -0.538  -3.726  0.00  0.00    +0.131 C 
ATOM     33  C   UNL     1      -1.006   0.910  -2.487  0.00  0.00    +0.131 C 
ENDBRANCH  23  29
ENDBRANCH   1  26
BRANCH   5  34
ATOM     34  C   UNL     1      -0.598  -7.703   0.893  0.00  0.00    +0.001 A 
ATOM     35  C   UNL     1      -1.432  -8.749   1.295  0.00  0.00    +0.013 A 
ATOM     36  C   UNL     1      -0.901 -10.001   1.526  0.00  0.00    +0.039 A 
ATOM     37  C   UNL     1       0.457 -10.222   1.359  0.00  0.00    +0.123 A 
ATOM     38  C   UNL     1       1.289  -9.187   0.960  0.00  0.00    +0.039 A 
ATOM     39  C   UNL     1       0.768  -7.933   0.721  0.00  0.00    +0.013 A 
ATOM     40  F   UNL     1       0.972 -11.450   1.586  0.00  0.00    -0.205 F 
ENDBRANCH   5  34
TORSDOF 6
