REMARK  Name = CHEMBL420081
REMARK  6 active torsions:
REMARK  status: ('A' for Active; 'I' for Inactive)
REMARK    1  A    between atoms: C_1  and  C_2
REMARK    2  A    between atoms: C_2  and  N_3
REMARK    3  A    between atoms: C_8  and  C_10
REMARK    4  A    between atoms: C_11  and  C_22
REMARK    5  A    between atoms: N_14  and  C_15
REMARK    6  A    between atoms: N_18  and  C_21
REMARK                            x       y       z     vdW  Elec       q    Type
REMARK                         _______ _______ _______ _____ _____    ______ ____
ROOT
ATOM      1  C   UNL     1       2.140  -4.117  -4.065  0.00  0.00    +0.093 A 
ATOM      2  C   UNL     1       2.271  -3.412  -5.249  0.00  0.00    +0.073 A 
ATOM      3  N   UNL     1       3.215  -4.029  -5.981  0.00  0.00    -0.345 N 
ATOM      4  C   UNL     1       3.669  -5.062  -5.327  0.00  0.00    +0.175 A 
ATOM      5  N   UNL     1       3.042  -5.156  -4.137  0.00  0.00    -0.327 N 
ATOM      6  H   UNL     1       3.512  -3.749  -6.861  0.00  0.00    +0.167 HD
ENDROOT
BRANCH   1  12
ATOM      7  N   UNL     1      -0.361  -0.973  -1.488  0.00  0.00    -0.314 N 
ATOM      8  C   UNL     1       0.019  -2.285  -1.710  0.00  0.00    +0.216 A 
ATOM      9  N   UNL     1      -0.449  -3.236  -0.914  0.00  0.00    -0.223 NA
ATOM     10  C   UNL     1      -0.110  -4.504  -1.091  0.00  0.00    +0.116 A 
ATOM     11  C   UNL     1       0.745  -4.838  -2.124  0.00  0.00    +0.050 A 
ATOM     12  C   UNL     1       1.225  -3.813  -2.950  0.00  0.00    +0.094 A 
ATOM     13  N   UNL     1       0.836  -2.559  -2.714  0.00  0.00    -0.213 NA
ATOM     14  H   UNL     1      -0.029  -0.268  -2.065  0.00  0.00    +0.149 HD
BRANCH   7  16
ATOM     15  C   UNL     1      -1.522   0.859  -0.359  0.00  0.00    +0.024 C 
ATOM     16  C   UNL     1      -1.264  -0.649  -0.382  0.00  0.00    +0.101 C 
ENDBRANCH   7  16
ENDBRANCH   1  12
BRANCH   5  17
ATOM     17  C   UNL     1       3.274  -6.176  -3.111  0.00  0.00    +0.085 C 
ATOM     18  C   UNL     1       4.766  -6.231  -2.772  0.00  0.00    +0.006 C 
ATOM     19  C   UNL     1       5.012  -7.352  -1.760  0.00  0.00    -0.077 C 
ATOM     20  N   UNL     1       4.591  -8.636  -2.333  0.00  0.00    +0.378 N 
ATOM     21  C   UNL     1       3.147  -8.615  -2.594  0.00  0.00    -0.077 C 
ATOM     22  C   UNL     1       2.829  -7.543  -3.639  0.00  0.00    +0.006 C 
ATOM     23  C   UNL     1       4.901  -9.717  -1.389  0.00  0.00    -0.096 C 
ATOM     24  H   UNL     1       5.086  -8.795  -3.198  0.00  0.00    -0.082 HD
ENDBRANCH   5  17
BRANCH   2  25
ATOM     25  C   UNL     1       1.512  -2.200  -5.638  0.00  0.00    +0.001 A 
ATOM     26  C   UNL     1       0.134  -2.143  -5.434  0.00  0.00    +0.013 A 
ATOM     27  C   UNL     1      -0.569  -1.013  -5.797  0.00  0.00    +0.039 A 
ATOM     28  C   UNL     1       0.093   0.064  -6.365  0.00  0.00    +0.123 A 
ATOM     29  C   UNL     1       1.462   0.012  -6.571  0.00  0.00    +0.039 A 
ATOM     30  C   UNL     1       2.175  -1.111  -6.204  0.00  0.00    +0.013 A 
ATOM     31  F   UNL     1      -0.599   1.169  -6.720  0.00  0.00    -0.205 F 
ENDBRANCH   2  25
TORSDOF 4
