REMARK  Name = CHEMBL355703
REMARK  7 active torsions:
REMARK  status: ('A' for Active; 'I' for Inactive)
REMARK    1  A    between atoms: C_1  and  C_2
REMARK    2  A    between atoms: C_2  and  N_3
REMARK    3  A    between atoms: C_7  and  C_15
REMARK    4  A    between atoms: N_10  and  C_13
REMARK    5  A    between atoms: C_13  and  C_14
REMARK    6  A    between atoms: C_20  and  C_21
REMARK    7  A    between atoms: C_25  and  C_27
REMARK                            x       y       z     vdW  Elec       q    Type
REMARK                         _______ _______ _______ _____ _____    ______ ____
ROOT
ATOM      1  N   UNL     1      -1.372  -0.511   0.012  0.00  0.00    -0.292 N 
ATOM      2  C   UNL     1      -2.128  -0.794   1.148  0.00  0.00    +0.070 A 
ATOM      3  C   UNL     1      -1.868  -0.704   2.508  0.00  0.00    +0.028 A 
ATOM      4  C   UNL     1      -2.837  -1.065   3.421  0.00  0.00    +0.011 A 
ATOM      5  C   UNL     1      -4.080  -1.522   2.981  0.00  0.00    -0.012 A 
ATOM      6  C   UNL     1      -4.344  -1.614   1.617  0.00  0.00    +0.036 A 
ATOM      7  C   UNL     1      -3.371  -1.251   0.702  0.00  0.00    +0.070 A 
ATOM      8  N   UNL     1      -3.330  -1.231  -0.691  0.00  0.00    -0.292 N 
ATOM      9  C   UNL     1      -2.122  -0.777  -1.074  0.00  0.00    +0.330 A 
ATOM     10  O   UNL     1      -1.761  -0.633  -2.227  0.00  0.00    -0.246 OA
ENDROOT
BRANCH   5  11
ATOM     11  C   UNL     1      -5.118  -1.910   3.965  0.00  0.00    +0.027 A 
ATOM     12  C   UNL     1      -6.457  -1.481   3.978  0.00  0.00    +0.143 A 
ATOM     13  N   UNL     1      -7.062  -2.035   4.995  0.00  0.00    -0.181 NA
ATOM     14  H   UNL     1      -6.342  -3.369   6.477  0.00  0.00    +0.189 HD
ATOM     15  N   UNL     1      -6.151  -2.844   5.684  0.00  0.00    -0.276 N 
ATOM     16  C   UNL     1      -4.950  -2.770   5.042  0.00  0.00    +0.073 A 
BRANCH  16  17
ATOM     17  C   UNL     1      -3.706  -3.470   5.423  0.00  0.00    +0.001 A 
ATOM     18  C   UNL     1      -2.929  -4.099   4.448  0.00  0.00    +0.010 A 
ATOM     19  C   UNL     1      -1.769  -4.751   4.810  0.00  0.00    +0.001 A 
ATOM     20  C   UNL     1      -1.374  -4.782   6.136  0.00  0.00    +0.003 A 
ATOM     21  C   UNL     1      -2.139  -4.160   7.107  0.00  0.00    -0.050 A 
ATOM     22  C   UNL     1      -3.298  -3.499   6.758  0.00  0.00    +0.013 A 
ATOM     23  C   UNL     1      -1.701  -4.200   8.548  0.00  0.00    +0.044 C 
ENDBRANCH  16  17
ENDBRANCH   5  11
BRANCH   1  25
ATOM     24  C   UNL     1      -0.019   1.526   0.010  0.00  0.00    +0.027 C 
ATOM     25  C   UNL     1       0.002  -0.004   0.002  0.00  0.00    +0.123 C 
ENDBRANCH   1  25
BRANCH   8  26
ATOM     26  C   UNL     1      -4.419  -1.630  -1.586  0.00  0.00    +0.123 C 
ATOM     27  C   UNL     1      -5.298  -0.416  -1.893  0.00  0.00    +0.027 C 
ENDBRANCH   8  26
TORSDOF 4
