REMARK  Name = CHEMBL191113
REMARK  7 active torsions:
REMARK  status: ('A' for Active; 'I' for Inactive)
REMARK    1  A    between atoms: C_1  and  C_2
REMARK    2  A    between atoms: C_2  and  C_3
REMARK    3  A    between atoms: C_2  and  S_4
REMARK    4  A    between atoms: S_4  and  N_7
REMARK    5  A    between atoms: C_10  and  C_17
REMARK    6  A    between atoms: C_18  and  C_29
REMARK    7  A    between atoms: C_20  and  C_23
REMARK                            x       y       z     vdW  Elec       q    Type
REMARK                         _______ _______ _______ _____ _____    ______ ____
ROOT
ATOM      1  C   UNL     1      -1.335  -4.024  -4.548  0.00  0.00    +0.074 A 
ATOM      2  C   UNL     1      -1.911  -4.887  -5.462  0.00  0.00    +0.097 A 
ATOM      3  N   UNL     1      -1.599  -4.441  -6.694  0.00  0.00    -0.232 NA
ATOM      4  C   UNL     1      -0.871  -3.364  -6.596  0.00  0.00    +0.111 A 
ATOM      5  N   UNL     1      -0.684  -3.062  -5.286  0.00  0.00    -0.341 N 
ATOM      6  H   UNL     1      -0.184  -2.309  -4.935  0.00  0.00    +0.167 HD
ENDROOT
BRANCH   1  10
ATOM      7  N   UNL     1      -2.080  -2.168   0.063  0.00  0.00    -0.183 N 
ATOM      8  C   UNL     1      -1.797  -3.074  -0.947  0.00  0.00    +0.094 A 
ATOM      9  C   UNL     1      -1.730  -2.982  -2.326  0.00  0.00    +0.039 A 
ATOM     10  C   UNL     1      -1.409  -4.113  -3.077  0.00  0.00    +0.003 A 
ATOM     11  C   UNL     1      -1.158  -5.333  -2.436  0.00  0.00    +0.012 A 
ATOM     12  C   UNL     1      -1.223  -5.427  -1.077  0.00  0.00    +0.030 A 
ATOM     13  C   UNL     1      -1.543  -4.302  -0.311  0.00  0.00    +0.093 A 
ATOM     14  N   UNL     1      -1.679  -4.094   1.025  0.00  0.00    -0.213 NA
ATOM     15  C   UNL     1      -1.988  -2.841   1.247  0.00  0.00    +0.214 A 
ATOM     16  N   UNL     1      -2.195  -2.285   2.492  0.00  0.00    -0.328 N 
ATOM     17  H   UNL     1      -2.425  -1.346   2.572  0.00  0.00    +0.145 HD
ATOM     18  H   UNL     1      -2.110  -2.833   3.288  0.00  0.00    +0.145 HD
BRANCH   7  19
ATOM     19  S   UNL     1      -2.452  -0.566  -0.131  0.00  0.00    +0.060 S 
ATOM     20  O   UNL     1      -3.221  -0.231   1.016  0.00  0.00    -0.153 OA
ATOM     21  O   UNL     1      -3.017  -0.479  -1.432  0.00  0.00    -0.153 OA
BRANCH  19  23
ATOM     22  C   UNL     1      -1.087   1.805  -0.130  0.00  0.00    +0.033 C 
ATOM     23  C   UNL     1      -0.855   0.293  -0.084  0.00  0.00    +0.148 C 
ATOM     24  C   UNL     1      -0.118  -0.071   1.206  0.00  0.00    +0.033 C 
ENDBRANCH  19  23
ENDBRANCH   7  19
ENDBRANCH   1  10
BRANCH   4  25
ATOM     25  C   UNL     1      -0.326  -2.574  -7.758  0.00  0.00    +0.051 C 
ATOM     26  C   UNL     1      -0.310  -1.084  -7.401  0.00  0.00    -0.008 C 
ATOM     27  C   UNL     1       0.318  -0.297  -8.553  0.00  0.00    -0.082 C 
ATOM     28  N   UNL     1       1.692  -0.762  -8.777  0.00  0.00    +0.379 N 
ATOM     29  C   UNL     1       1.680  -2.171  -9.189  0.00  0.00    -0.082 C 
ATOM     30  C   UNL     1       1.104  -3.030  -8.061  0.00  0.00    -0.008 C 
ATOM     31  H   UNL     1       2.121  -0.205  -9.501  0.00  0.00    -0.086 HD
ATOM     32  H   UNL     1       2.221  -0.666  -7.923  0.00  0.00    -0.086 HD
ENDBRANCH   4  25
BRANCH   2  33
ATOM     33  C   UNL     1      -2.723  -6.085  -5.145  0.00  0.00    +0.002 A 
ATOM     34  C   UNL     1      -3.679  -6.034  -4.130  0.00  0.00    +0.010 A 
ATOM     35  C   UNL     1      -4.432  -7.153  -3.839  0.00  0.00    +0.001 A 
ATOM     36  C   UNL     1      -4.241  -8.323  -4.551  0.00  0.00    +0.000 A 
ATOM     37  C   UNL     1      -3.294  -8.380  -5.558  0.00  0.00    +0.001 A 
ATOM     38  C   UNL     1      -2.539  -7.266  -5.863  0.00  0.00    +0.010 A 
ENDBRANCH   2  33
TORSDOF 5
