REMARK  Name = CHEMBL195016
REMARK  6 active torsions:
REMARK  status: ('A' for Active; 'I' for Inactive)
REMARK    1  A    between atoms: C_1  and  C_2
REMARK    2  A    between atoms: C_2  and  C_3
REMARK    3  A    between atoms: C_2  and  N_4
REMARK    4  A    between atoms: C_8  and  C_15
REMARK    5  A    between atoms: N_11  and  C_14
REMARK    6  A    between atoms: C_16  and  C_20
REMARK                            x       y       z     vdW  Elec       q    Type
REMARK                         _______ _______ _______ _____ _____    ______ ____
ROOT
ATOM      1  N   UNL     1       0.996  -0.715   1.116  0.00  0.00    -0.290 N 
ATOM      2  C   UNL     1       0.396  -1.455   2.133  0.00  0.00    +0.070 A 
ATOM      3  C   UNL     1      -0.915  -1.838   2.381  0.00  0.00    +0.029 A 
ATOM      4  C   UNL     1      -1.215  -2.587   3.498  0.00  0.00    +0.014 A 
ATOM      5  C   UNL     1      -0.201  -2.963   4.384  0.00  0.00    +0.022 A 
ATOM      6  C   UNL     1       1.118  -2.580   4.137  0.00  0.00    +0.039 A 
ATOM      7  C   UNL     1       1.415  -1.828   3.014  0.00  0.00    +0.070 A 
ATOM      8  N   UNL     1       2.601  -1.302   2.504  0.00  0.00    -0.295 N 
ATOM      9  C   UNL     1       2.317  -0.646   1.363  0.00  0.00    +0.330 A 
ATOM     10  O   UNL     1       3.131  -0.073   0.664  0.00  0.00    -0.246 OA
ATOM     11  C   UNL     1       3.930  -1.444   3.104  0.00  0.00    +0.154 C 
ENDROOT
BRANCH   5  12
ATOM     12  C   UNL     1      -0.525  -3.764   5.580  0.00  0.00    +0.163 A 
ATOM     13  C   UNL     1      -1.303  -4.904   5.625  0.00  0.00    +0.117 A 
ATOM     14  N   UNL     1      -1.336  -5.309   6.912  0.00  0.00    -0.216 NA
ATOM     15  C   UNL     1      -0.631  -4.485   7.632  0.00  0.00    +0.309 A 
ATOM     16  O   UNL     1      -0.115  -3.530   6.846  0.00  0.00    -0.442 OA
BRANCH  13  17
ATOM     17  C   UNL     1      -1.974  -5.558   4.478  0.00  0.00    +0.004 A 
ATOM     18  C   UNL     1      -1.304  -5.698   3.262  0.00  0.00    +0.013 A 
ATOM     19  C   UNL     1      -1.933  -6.308   2.197  0.00  0.00    +0.039 A 
ATOM     20  C   UNL     1      -3.228  -6.782   2.333  0.00  0.00    +0.123 A 
ATOM     21  C   UNL     1      -3.897  -6.646   3.538  0.00  0.00    +0.039 A 
ATOM     22  C   UNL     1      -3.275  -6.042   4.611  0.00  0.00    +0.013 A 
ATOM     23  F   UNL     1      -3.840  -7.378   1.286  0.00  0.00    -0.205 F 
ENDBRANCH  13  17
ENDBRANCH   5  12
BRANCH   1  25
ATOM     24  C   UNL     1       0.516   1.396  -0.022  0.00  0.00    +0.031 C 
ATOM     25  C   UNL     1       0.306  -0.119  -0.031  0.00  0.00    +0.086 C 
ATOM     26  C   UNL     1       0.872  -0.705  -1.326  0.00  0.00    +0.031 C 
ENDBRANCH   1  25
TORSDOF 3
