REMARK  Name = CHEMBL277409
REMARK  4 active torsions:
REMARK  status: ('A' for Active; 'I' for Inactive)
REMARK    1  A    between atoms: C_6  and  C_7
REMARK    2  A    between atoms: C_8  and  C_21
REMARK    3  A    between atoms: C_11  and  C_13
REMARK    4  A    between atoms: C_13  and  O_20
REMARK                            x       y       z     vdW  Elec       q    Type
REMARK                         _______ _______ _______ _____ _____    ______ ____
ROOT
ATOM      1  C   UNL     1      -1.269  -0.765   0.011  0.00  0.00    +0.097 A 
ATOM      2  C   UNL     1      -1.508  -1.968  -0.628  0.00  0.00    +0.074 A 
ATOM      3  N   UNL     1      -2.815  -2.299  -0.346  0.00  0.00    -0.339 N 
ATOM      4  H   UNL     1      -3.286  -3.090  -0.650  0.00  0.00    +0.167 HD
ATOM      5  C   UNL     1      -3.319  -1.318   0.432  0.00  0.00    +0.140 A 
ATOM      6  N   UNL     1      -2.403  -0.415   0.646  0.00  0.00    -0.229 NA
ENDROOT
BRANCH   1  12
ATOM      7  C   UNL     1      -0.017   1.390   0.010  0.00  0.00    +0.013 A 
ATOM      8  C   UNL     1       1.170   2.094   0.002  0.00  0.00    +0.039 A 
ATOM      9  C   UNL     1       2.379   1.418  -0.013  0.00  0.00    +0.123 A 
ATOM     10  C   UNL     1       2.403   0.032  -0.021  0.00  0.00    +0.039 A 
ATOM     11  C   UNL     1       1.222  -0.680  -0.013  0.00  0.00    +0.013 A 
ATOM     12  C   UNL     1       0.002  -0.004   0.002  0.00  0.00    +0.003 A 
ATOM     13  F   UNL     1       3.538   2.111  -0.022  0.00  0.00    -0.205 F 
ENDBRANCH   1  12
BRANCH   5  14
ATOM     14  C   UNL     1      -4.724  -1.276   0.976  0.00  0.00    +0.123 C 
ATOM     15  C   UNL     1      -4.921  -2.402   1.954  0.00  0.00    +0.043 C 
ATOM     16  C   UNL     1      -6.356  -2.963   1.926  0.00  0.00    +0.003 C 
ATOM     17  C   UNL     1      -7.427  -1.860   1.824  0.00  0.00    +0.000 C 
ATOM     18  C   UNL     1      -7.120  -0.677   2.702  0.00  0.00    +0.000 C 
ATOM     19  C   UNL     1      -6.368   0.375   1.861  0.00  0.00    +0.003 C 
ATOM     20  C   UNL     1      -4.955   0.060   1.713  0.00  0.00    +0.043 C 
BRANCH  14  21
ATOM     21  O   UNL     1      -5.658  -1.399  -0.098  0.00  0.00    -0.381 OA
ATOM     22  H   UNL     1      -5.573  -2.220  -0.601  0.00  0.00    +0.211 HD
ENDBRANCH  14  21
ENDBRANCH   5  14
BRANCH   2  23
ATOM     23  C   UNL     1      -0.556  -2.742  -1.448  0.00  0.00    +0.003 A 
ATOM     24  C   UNL     1       0.254  -2.109  -2.401  0.00  0.00    +0.030 A 
ATOM     25  C   UNL     1       1.130  -2.871  -3.144  0.00  0.00    +0.111 A 
ATOM     26  N   UNL     1       1.212  -4.176  -2.968  0.00  0.00    -0.263 NA
ATOM     27  C   UNL     1       0.468  -4.812  -2.081  0.00  0.00    +0.111 A 
ATOM     28  C   UNL     1      -0.430  -4.128  -1.290  0.00  0.00    +0.030 A 
ENDBRANCH   2  23
TORSDOF 4
