REMARK  Name = CHEMBL1092013
REMARK  6 active torsions:
REMARK  status: ('A' for Active; 'I' for Inactive)
REMARK    1  A    between atoms: C_1  and  C_2
REMARK    2  A    between atoms: C_5  and  C_26
REMARK    3  A    between atoms: C_7  and  C_8
REMARK    4  A    between atoms: N_13  and  C_19
REMARK    5  A    between atoms: N_15  and  C_18
REMARK    6  A    between atoms: N_28  and  C_29
REMARK                            x       y       z     vdW  Elec       q    Type
REMARK                         _______ _______ _______ _____ _____    ______ ____
ROOT
ATOM      1  C   UNL     1       0.567  -0.885   3.208  0.00  0.00    +0.048 A 
ATOM      2  C   UNL     1       1.398   0.217   3.239  0.00  0.00    +0.027 A 
ATOM      3  C   UNL     1       1.110   1.264   4.141  0.00  0.00    +0.038 A 
ATOM      4  C   UNL     1       1.737   2.502   4.423  0.00  0.00    +0.145 A 
ATOM      5  N   UNL     1       1.056   3.102   5.357  0.00  0.00    -0.172 NA
ATOM      6  N   UNL     1      -0.032   2.303   5.728  0.00  0.00    -0.213 N 
ATOM      7  C   UNL     1      -0.004   1.168   4.981  0.00  0.00    +0.147 A 
ATOM      8  N   UNL     1      -0.811   0.064   4.931  0.00  0.00    -0.295 N 
ATOM      9  C   UNL     1      -0.554  -0.941   4.073  0.00  0.00    +0.260 A 
ATOM     10  O   UNL     1      -1.291  -1.912   4.043  0.00  0.00    -0.267 OA
ATOM     11  C   UNL     1      -1.974  -0.022   5.817  0.00  0.00    +0.154 C 
ENDROOT
BRANCH   1  18
ATOM     12  C   UNL     1      -0.001  -0.560   0.394  0.00  0.00    +0.044 C 
ATOM     13  C   UNL     1       0.573  -1.854   0.911  0.00  0.00    -0.043 A 
ATOM     14  C   UNL     1       0.835  -2.890   0.036  0.00  0.00    +0.005 A 
ATOM     15  C   UNL     1       1.360  -4.078   0.501  0.00  0.00    +0.013 A 
ATOM     16  C   UNL     1       1.630  -4.240   1.862  0.00  0.00    +0.037 A 
ATOM     17  C   UNL     1       1.368  -3.198   2.749  0.00  0.00    +0.022 A 
ATOM     18  C   UNL     1       0.844  -2.000   2.272  0.00  0.00    -0.009 A 
BRANCH  16  19
ATOM     19  C   UNL     1       2.192  -5.514   2.360  0.00  0.00    +0.244 C 
ATOM     20  O   UNL     1       2.426  -5.653   3.545  0.00  0.00    -0.270 OA
ATOM     21  N   UNL     1       2.444  -6.521   1.500  0.00  0.00    -0.308 N 
ATOM     22  H   UNL     1       2.257  -6.410   0.555  0.00  0.00    +0.149 HD
BRANCH  21  23
ATOM     23  C   UNL     1       3.001  -7.783   1.994  0.00  0.00    +0.073 C 
ATOM     24  C   UNL     1       4.132  -8.421   1.185  0.00  0.00    +0.024 C 
ATOM     25  C   UNL     1       2.735  -9.043   1.168  0.00  0.00    +0.024 C 
ENDBRANCH  21  23
ENDBRANCH  16  19
ENDBRANCH   1  18
BRANCH   6  26
ATOM     26  C   UNL     1      -0.987   2.619   6.704  0.00  0.00    +0.103 A 
ATOM     27  C   UNL     1      -2.286   2.933   6.330  0.00  0.00    +0.031 A 
ATOM     28  C   UNL     1      -3.226   3.243   7.294  0.00  0.00    +0.002 A 
ATOM     29  C   UNL     1      -2.874   3.242   8.632  0.00  0.00    +0.003 A 
ATOM     30  C   UNL     1      -1.581   2.930   9.009  0.00  0.00    +0.040 A 
ATOM     31  C   UNL     1      -0.637   2.612   8.050  0.00  0.00    +0.149 A 
ATOM     32  F   UNL     1       0.625   2.302   8.419  0.00  0.00    -0.203 F 
ENDBRANCH   6  26
TORSDOF 4
