REMARK  Name = CHEMBL270657
REMARK  11 active torsions:
REMARK  status: ('A' for Active; 'I' for Inactive)
REMARK    1  A    between atoms: C_1  and  C_2
REMARK    2  A    between atoms: C_2  and  C_3
REMARK    3  A    between atoms: C_2  and  C_4
REMARK    4  A    between atoms: C_2  and  C_5
REMARK    5  A    between atoms: C_5  and  N_6
REMARK    6  A    between atoms: C_12  and  C_15
REMARK    7  A    between atoms: C_16  and  C_25
REMARK    8  A    between atoms: C_18  and  C_21
REMARK    9  A    between atoms: C_21  and  C_22
REMARK   10  A    between atoms: C_21  and  C_23
REMARK   11  A    between atoms: C_21  and  C_24
REMARK                            x       y       z     vdW  Elec       q    Type
REMARK                         _______ _______ _______ _____ _____    ______ ____
ROOT
ATOM      1  C   UNL     1       4.471  -3.458   2.791  0.00  0.00    +0.093 A 
ATOM      2  C   UNL     1       3.369  -3.810   3.551  0.00  0.00    +0.101 A 
ATOM      3  N   UNL     1       3.754  -4.793   4.385  0.00  0.00    -0.231 NA
ATOM      4  C   UNL     1       5.013  -5.066   4.188  0.00  0.00    +0.114 A 
ATOM      5  N   UNL     1       5.500  -4.273   3.210  0.00  0.00    -0.340 N 
ATOM      6  H   UNL     1       6.407  -4.275   2.866  0.00  0.00    +0.167 HD
ENDROOT
BRANCH   1  13
ATOM      7  N   UNL     1       4.297   1.181   1.212  0.00  0.00    -0.315 N 
ATOM      8  C   UNL     1       4.440   1.651  -0.058  0.00  0.00    +0.201 A 
ATOM      9  N   UNL     1       4.639   0.662  -0.881  0.00  0.00    -0.234 NA
ATOM     10  C   UNL     1       4.636  -0.507  -0.194  0.00  0.00    +0.108 A 
ATOM     11  C   UNL     1       4.421  -0.191   1.161  0.00  0.00    +0.161 A 
ATOM     12  N   UNL     1       4.375  -1.147   2.073  0.00  0.00    -0.226 NA
ATOM     13  C   UNL     1       4.530  -2.424   1.742  0.00  0.00    +0.092 A 
ATOM     14  C   UNL     1       4.750  -2.804   0.412  0.00  0.00    +0.032 A 
ATOM     15  C   UNL     1       4.798  -1.848  -0.565  0.00  0.00    +0.033 A 
BRANCH   7  16
ATOM     16  C   UNL     1       4.060   1.986   2.413  0.00  0.00    +0.130 C 
BRANCH  16  18
ATOM     17  C   UNL     1       6.237   3.184   2.150  0.00  0.00    +0.012 C 
ATOM     18  C   UNL     1       5.397   2.309   3.083  0.00  0.00    -0.020 C 
ATOM     19  C   UNL     1       6.148   1.008   3.374  0.00  0.00    +0.012 C 
ATOM     20  C   UNL     1       5.144   3.056   4.393  0.00  0.00    +0.012 C 
ENDBRANCH  16  18
ENDBRANCH   7  16
ENDBRANCH   1  13
BRANCH   2  21
ATOM     21  C   UNL     1       2.016  -3.214   3.462  0.00  0.00    +0.038 A 
ATOM     22  C   UNL     1       1.720  -2.296   2.454  0.00  0.00    +0.016 A 
ATOM     23  C   UNL     1       0.459  -1.744   2.376  0.00  0.00    +0.039 A 
ATOM     24  C   UNL     1      -0.515  -2.098   3.296  0.00  0.00    +0.126 A 
ATOM     25  C   UNL     1      -0.229  -3.008   4.300  0.00  0.00    +0.077 A 
ATOM     26  C   UNL     1       1.030  -3.572   4.385  0.00  0.00    +0.135 A 
ATOM     27  F   UNL     1       1.308  -4.465   5.360  0.00  0.00    -0.205 F 
ATOM     28  F   UNL     1      -1.749  -1.553   3.214  0.00  0.00    -0.205 F 
ENDBRANCH   2  21
BRANCH   4  29
ATOM     29  C   UNL     1       5.803  -6.111   4.933  0.00  0.00    +0.020 C 
ATOM     30  C   UNL     1       6.729  -5.428   5.941  0.00  0.00    +0.018 C 
ATOM     31  C   UNL     1       4.843  -7.045   5.673  0.00  0.00    +0.018 C 
ATOM     32  C   UNL     1       6.640  -6.922   3.941  0.00  0.00    +0.018 C 
ENDBRANCH   4  29
TORSDOF 5
