REMARK  Name = CHEMBL571357
REMARK  8 active torsions:
REMARK  status: ('A' for Active; 'I' for Inactive)
REMARK    1  A    between atoms: C_1  and  C_2
REMARK    2  A    between atoms: C_2  and  C_4
REMARK    3  A    between atoms: C_2  and  N_10
REMARK    4  A    between atoms: C_13  and  C_17
REMARK    5  A    between atoms: C_18  and  C_25
REMARK    6  A    between atoms: C_21  and  C_22
REMARK    7  A    between atoms: C_22  and  C_23
REMARK    8  A    between atoms: C_22  and  C_24
REMARK                            x       y       z     vdW  Elec       q    Type
REMARK                         _______ _______ _______ _____ _____    ______ ____
ROOT
ATOM      1  N   UNL     1       0.711  -0.489   1.189  0.00  0.00    -0.324 N 
ATOM      2  C   UNL     1       0.030  -0.638   2.392  0.00  0.00    +0.097 A 
ATOM      3  C   UNL     1      -1.322  -0.330   2.460  0.00  0.00    +0.050 A 
ATOM      4  C   UNL     1      -1.990  -0.484   3.674  0.00  0.00    -0.008 A 
ATOM      5  C   UNL     1      -1.262  -0.946   4.778  0.00  0.00    +0.026 A 
ATOM      6  C   UNL     1       0.077  -1.230   4.628  0.00  0.00    +0.085 A 
ATOM      7  N   UNL     1       0.678  -1.077   3.461  0.00  0.00    -0.350 N 
ATOM      8  H   UNL     1       1.654  -0.707   1.135  0.00  0.00    +0.148 HD
ATOM      9  H   UNL     1       1.621  -1.289   3.386  0.00  0.00    +0.166 HD
ENDROOT
BRANCH   4  10
ATOM     10  C   UNL     1      -3.433  -0.167   3.794  0.00  0.00    +0.052 A 
ATOM     11  C   UNL     1      -4.054   1.155   3.639  0.00  0.00    +0.121 A 
ATOM     12  N   UNL     1      -5.342   0.996   3.823  0.00  0.00    -0.077 NA
ATOM     13  O   UNL     1      -5.590  -0.369   4.092  0.00  0.00    -0.358 OA
ATOM     14  C   UNL     1      -4.434  -1.045   4.063  0.00  0.00    +0.148 A 
BRANCH  11  15
ATOM     15  C   UNL     1      -3.356   2.427   3.332  0.00  0.00    +0.004 A 
ATOM     16  C   UNL     1      -2.079   2.663   3.838  0.00  0.00    +0.013 A 
ATOM     17  C   UNL     1      -1.433   3.848   3.550  0.00  0.00    +0.039 A 
ATOM     18  C   UNL     1      -2.053   4.802   2.759  0.00  0.00    +0.123 A 
ATOM     19  C   UNL     1      -3.322   4.571   2.254  0.00  0.00    +0.039 A 
ATOM     20  C   UNL     1      -3.973   3.387   2.532  0.00  0.00    +0.013 A 
ATOM     21  F   UNL     1      -1.417   5.961   2.480  0.00  0.00    -0.205 F 
ENDBRANCH  11  15
BRANCH  14  22
ATOM     22  C   UNL     1      -4.272  -2.525   4.294  0.00  0.00    +0.052 C 
ATOM     23  C   UNL     1      -4.781  -2.883   5.691  0.00  0.00    +0.015 C 
ATOM     24  C   UNL     1      -5.075  -3.296   3.245  0.00  0.00    +0.015 C 
ENDBRANCH  14  22
ENDBRANCH   4  10
BRANCH   1  26
ATOM     25  C   UNL     1      -0.019   1.526   0.010  0.00  0.00    +0.033 C 
ATOM     26  C   UNL     1       0.002  -0.004   0.002  0.00  0.00    +0.099 C 
BRANCH  26  27
ATOM     27  C   UNL     1       0.707  -0.490  -1.238  0.00  0.00    -0.028 A 
ATOM     28  C   UNL     1       2.089  -0.511  -1.284  0.00  0.00    +0.005 A 
ATOM     29  C   UNL     1       2.736  -0.957  -2.421  0.00  0.00    +0.000 A 
ATOM     30  C   UNL     1       2.002  -1.382  -3.512  0.00  0.00    +0.000 A 
ATOM     31  C   UNL     1       0.620  -1.362  -3.466  0.00  0.00    +0.000 A 
ATOM     32  C   UNL     1      -0.027  -0.920  -2.327  0.00  0.00    +0.005 A 
ENDBRANCH  26  27
ENDBRANCH   1  26
TORSDOF 5
