REMARK  Name = CHEMBL214152
REMARK  5 active torsions:
REMARK  status: ('A' for Active; 'I' for Inactive)
REMARK    1  A    between atoms: C_1  and  C_2
REMARK    2  A    between atoms: C_2  and  C_3
REMARK    3  A    between atoms: C_2  and  C_4
REMARK    4  A    between atoms: C_10  and  C_13
REMARK    5  A    between atoms: C_14  and  C_19
REMARK                            x       y       z     vdW  Elec       q    Type
REMARK                         _______ _______ _______ _____ _____    ______ ____
ROOT
ATOM      1  C   UNL     1      -1.883  -3.170  -4.162  0.00  0.00    +0.098 A 
ATOM      2  C   UNL     1      -2.555  -4.073  -4.965  0.00  0.00    +0.077 A 
ATOM      3  N   UNL     1      -1.698  -4.384  -5.995  0.00  0.00    -0.344 N 
ATOM      4  C   UNL     1      -0.556  -3.679  -5.796  0.00  0.00    +0.197 A 
ATOM      5  N   UNL     1      -0.674  -2.959  -4.715  0.00  0.00    -0.235 NA
ATOM      6  H   UNL     1      -1.876  -4.995  -6.728  0.00  0.00    +0.167 HD
ENDROOT
BRANCH   1  13
ATOM      7  C   UNL     1      -1.690   0.015  -0.363  0.00  0.00    +0.140 A 
ATOM      8  N   UNL     1      -2.559   0.181   0.601  0.00  0.00    -0.133 NA
ATOM      9  N   UNL     1      -3.544  -0.634   0.457  0.00  0.00    -0.129 NA
ATOM     10  C   UNL     1      -3.352  -1.375  -0.622  0.00  0.00    +0.161 A 
ATOM     11  N   UNL     1      -2.162  -0.970  -1.175  0.00  0.00    -0.286 N 
ATOM     12  C   UNL     1      -1.692  -1.552  -2.314  0.00  0.00    +0.104 A 
ATOM     13  C   UNL     1      -2.401  -2.543  -2.924  0.00  0.00    +0.019 A 
ATOM     14  C   UNL     1      -3.633  -2.974  -2.375  0.00  0.00    +0.015 A 
ATOM     15  C   UNL     1      -4.098  -2.402  -1.235  0.00  0.00    +0.049 A 
BRANCH   7  17
ATOM     16  C   UNL     1      -0.714   2.271  -0.693  0.00  0.00    +0.015 C 
ATOM     17  C   UNL     1      -0.404   0.780  -0.544  0.00  0.00    +0.051 C 
ATOM     18  C   UNL     1       0.494   0.565   0.676  0.00  0.00    +0.015 C 
ENDBRANCH   7  17
ENDBRANCH   1  13
BRANCH   2  19
ATOM     19  C   UNL     1      -3.919  -4.599  -4.757  0.00  0.00    +0.038 A 
ATOM     20  C   UNL     1      -4.111  -5.944  -4.433  0.00  0.00    +0.051 A 
ATOM     21  C   UNL     1      -5.390  -6.429  -4.241  0.00  0.00    +0.124 A 
ATOM     22  C   UNL     1      -6.481  -5.584  -4.368  0.00  0.00    +0.041 A 
ATOM     23  C   UNL     1      -6.299  -4.251  -4.689  0.00  0.00    +0.042 A 
ATOM     24  C   UNL     1      -5.025  -3.751  -4.878  0.00  0.00    +0.133 A 
ATOM     25  F   UNL     1      -4.848  -2.447  -5.185  0.00  0.00    -0.205 F 
ATOM     26  F   UNL     1      -5.577  -7.730  -3.928  0.00  0.00    -0.205 F 
ENDBRANCH   2  19
TORSDOF 3
