REMARK  Name = CHEMBL603682
REMARK  8 active torsions:
REMARK  status: ('A' for Active; 'I' for Inactive)
REMARK    1  A    between atoms: C_1  and  C_2
REMARK    2  A    between atoms: C_3  and  C_19
REMARK    3  A    between atoms: C_6  and  C_12
REMARK    4  A    between atoms: C_12  and  C_14
REMARK    5  A    between atoms: N_16  and  C_17
REMARK    6  A    between atoms: N_16  and  C_18
REMARK    7  A    between atoms: C_24  and  C_27
REMARK    8  A    between atoms: C_27  and  C_28
REMARK                            x       y       z     vdW  Elec       q    Type
REMARK                         _______ _______ _______ _____ _____    ______ ____
ROOT
ATOM      1  C   UNL     1      -0.426   1.480   0.024  0.00  0.00    +0.064 C 
ATOM      2  C   UNL     1      -0.340  -0.025   0.011  0.00  0.00    +0.026 A 
ATOM      3  C   UNL     1      -0.220  -0.794  -1.108  0.00  0.00    +0.065 A 
ATOM      4  C   UNL     1      -0.170  -2.194  -0.647  0.00  0.00    +0.013 A 
ATOM      5  C   UNL     1      -0.057  -3.417  -1.293  0.00  0.00    +0.022 A 
ATOM      6  C   UNL     1      -0.041  -4.593  -0.538  0.00  0.00    +0.028 A 
ATOM      7  C   UNL     1      -0.140  -4.527   0.861  0.00  0.00    +0.014 A 
ATOM      8  C   UNL     1      -0.252  -3.326   1.493  0.00  0.00    +0.027 A 
ATOM      9  C   UNL     1      -0.269  -2.141   0.755  0.00  0.00    +0.047 A 
ATOM     10  N   UNL     1      -0.364  -0.816   1.111  0.00  0.00    -0.358 N 
ATOM     11  H   UNL     1      -0.440  -0.493   2.023  0.00  0.00    +0.166 HD
ENDROOT
BRANCH   3  12
ATOM     12  C   UNL     1      -0.153  -0.321  -2.498  0.00  0.00    +0.249 C 
ATOM     13  O   UNL     1       0.925  -0.065  -3.002  0.00  0.00    -0.270 OA
ATOM     14  N   UNL     1      -1.285  -0.171  -3.214  0.00  0.00    -0.297 N 
ATOM     15  C   UNL     1      -2.593  -0.470  -2.617  0.00  0.00    +0.108 C 
ATOM     16  C   UNL     1      -3.504   0.750  -2.788  0.00  0.00    +0.023 C 
ATOM     17  C   UNL     1      -3.562   1.134  -4.268  0.00  0.00    -0.004 C 
ATOM     18  C   UNL     1      -2.159   1.506  -4.755  0.00  0.00    +0.023 C 
ATOM     19  C   UNL     1      -1.234   0.301  -4.604  0.00  0.00    +0.108 C 
BRANCH  17  20
ATOM     20  C   UNL     1      -4.498   2.331  -4.448  0.00  0.00    +0.038 C 
BRANCH  20  21
ATOM     21  C   UNL     1      -4.651   2.633  -5.916  0.00  0.00    -0.047 A 
ATOM     22  C   UNL     1      -3.779   3.509  -6.536  0.00  0.00    +0.006 A 
ATOM     23  C   UNL     1      -3.919   3.786  -7.883  0.00  0.00    +0.038 A 
ATOM     24  C   UNL     1      -4.932   3.186  -8.611  0.00  0.00    +0.123 A 
ATOM     25  C   UNL     1      -5.804   2.309  -7.989  0.00  0.00    +0.038 A 
ATOM     26  C   UNL     1      -5.660   2.029  -6.644  0.00  0.00    +0.006 A 
ATOM     27  F   UNL     1      -5.070   3.457  -9.928  0.00  0.00    -0.205 F 
ENDBRANCH  20  21
ENDBRANCH  17  20
ENDBRANCH   3  12
BRANCH   6  28
ATOM     28  C   UNL     1       0.078  -5.897  -1.208  0.00  0.00    +0.247 C 
ATOM     29  O   UNL     1       0.068  -5.960  -2.421  0.00  0.00    -0.282 OA
BRANCH  28  30
ATOM     30  C   UNL     1       0.211  -7.143  -0.398  0.00  0.00    +0.286 C 
ATOM     31  O   UNL     1       1.303  -7.497  -0.002  0.00  0.00    -0.266 OA
ATOM     32  N   UNL     1      -0.882  -7.876  -0.104  0.00  0.00    -0.301 N 
ATOM     33  C   UNL     1      -0.769  -9.037   0.782  0.00  0.00    +0.132 C 
ATOM     34  C   UNL     1      -2.182  -7.512  -0.672  0.00  0.00    +0.132 C 
ENDBRANCH  28  30
ENDBRANCH   6  28
TORSDOF 5
