REMARK  Name = CHEMBL197912
REMARK  6 active torsions:
REMARK  status: ('A' for Active; 'I' for Inactive)
REMARK    1  A    between atoms: C_1  and  C_2
REMARK    2  A    between atoms: C_2  and  C_3
REMARK    3  A    between atoms: C_5  and  C_20
REMARK    4  A    between atoms: C_6  and  C_8
REMARK    5  A    between atoms: N_14  and  C_15
REMARK    6  A    between atoms: C_24  and  C_26
REMARK                            x       y       z     vdW  Elec       q    Type
REMARK                         _______ _______ _______ _____ _____    ______ ____
ROOT
ATOM      1  C   UNL     1       0.697  -0.342  -1.314  0.00  0.00    +0.079 A 
ATOM      2  N   UNL     1       1.970  -0.624  -1.419  0.00  0.00    -0.243 NA
ATOM      3  C   UNL     1       2.466  -1.195  -2.504  0.00  0.00    +0.086 A 
ATOM      4  C   UNL     1       1.551  -1.472  -3.518  0.00  0.00    +0.047 A 
ATOM      5  S   UNL     1       0.045  -0.871  -2.771  0.00  0.00    -0.071 S 
ENDROOT
BRANCH   4   6
ATOM      6  C   UNL     1       1.766  -2.095  -4.838  0.00  0.00    -0.005 A 
ATOM      7  C   UNL     1       2.509  -3.279  -4.965  0.00  0.00    +0.029 A 
ATOM      8  C   UNL     1       2.688  -3.829  -6.214  0.00  0.00    +0.113 A 
ATOM      9  N   UNL     1       2.172  -3.259  -7.288  0.00  0.00    -0.240 NA
ATOM     10  C   UNL     1       1.464  -2.141  -7.218  0.00  0.00    +0.119 A 
ATOM     11  C   UNL     1       1.231  -1.524  -5.997  0.00  0.00    +0.052 A 
ATOM     12  N   UNL     1       0.944  -1.583  -8.381  0.00  0.00    -0.326 N 
ATOM     13  H   UNL     1       1.100  -2.012  -9.237  0.00  0.00    +0.148 HD
BRANCH  12  14
ATOM     14  C   UNL     1       0.160  -0.347  -8.313  0.00  0.00    +0.072 C 
ATOM     15  C   UNL     1      -1.327  -0.678  -8.066  0.00  0.00    +0.022 C 
ATOM     16  C   UNL     1      -2.094   0.370  -8.910  0.00  0.00    +0.002 C 
ATOM     17  C   UNL     1      -1.220   0.489 -10.184  0.00  0.00    +0.002 C 
ATOM     18  C   UNL     1       0.227   0.394  -9.659  0.00  0.00    +0.022 C 
ENDBRANCH  12  14
ENDBRANCH   4   6
BRANCH   3  19
ATOM     19  C   UNL     1       3.906  -1.519  -2.634  0.00  0.00    +0.002 A 
ATOM     20  C   UNL     1       4.576  -1.263  -3.830  0.00  0.00    +0.010 A 
ATOM     21  C   UNL     1       5.917  -1.567  -3.945  0.00  0.00    +0.001 A 
ATOM     22  C   UNL     1       6.597  -2.124  -2.876  0.00  0.00    +0.003 A 
ATOM     23  C   UNL     1       5.938  -2.380  -1.688  0.00  0.00    -0.050 A 
ATOM     24  C   UNL     1       4.598  -2.075  -1.559  0.00  0.00    +0.013 A 
ATOM     25  C   UNL     1       6.685  -2.988  -0.529  0.00  0.00    +0.044 C 
ENDBRANCH   3  19
BRANCH   1  27
ATOM     26  C   UNL     1      -0.026   1.821  -0.340  0.00  0.00    +0.011 C 
ATOM     27  C   UNL     1      -0.019   0.302  -0.155  0.00  0.00    +0.059 C 
ENDBRANCH   1  27
TORSDOF 4
