REMARK  Name = CHEMBL185315
REMARK  7 active torsions:
REMARK  status: ('A' for Active; 'I' for Inactive)
REMARK    1  A    between atoms: C_1  and  C_2
REMARK    2  A    between atoms: C_5  and  N_23
REMARK    3  A    between atoms: C_7  and  N_8
REMARK    4  A    between atoms: C_13  and  O_15
REMARK    5  A    between atoms: O_15  and  C_16
REMARK    6  A    between atoms: N_19  and  C_22
REMARK    7  A    between atoms: C_24  and  C_26
REMARK                            x       y       z     vdW  Elec       q    Type
REMARK                         _______ _______ _______ _____ _____    ______ ____
ROOT
ATOM      1  C   UNL     1      -0.036   1.346  -0.074  0.00  0.00    +0.045 C 
ATOM      2  C   UNL     1       0.236  -0.133  -0.170  0.00  0.00    -0.029 A 
ATOM      3  C   UNL     1       0.145  -0.773  -1.391  0.00  0.00    +0.007 A 
ATOM      4  C   UNL     1       0.395  -2.129  -1.483  0.00  0.00    +0.024 A 
ATOM      5  C   UNL     1       0.739  -2.853  -0.347  0.00  0.00    +0.035 A 
ATOM      6  C   UNL     1       0.831  -2.212   0.880  0.00  0.00    +0.046 A 
ATOM      7  C   UNL     1       0.585  -0.849   0.968  0.00  0.00    +0.037 A 
ENDROOT
BRANCH   7   8
ATOM      8  N   UNL     1       0.682  -0.199   2.202  0.00  0.00    -0.299 N 
ATOM      9  C   UNL     1       0.562  -0.923   3.378  0.00  0.00    +0.130 A 
ATOM     10  C   UNL     1       0.797  -0.314   4.613  0.00  0.00    +0.064 A 
ATOM     11  C   UNL     1       0.664  -1.074   5.758  0.00  0.00    +0.119 A 
ATOM     12  N   UNL     1       0.321  -2.350   5.652  0.00  0.00    -0.203 NA
ATOM     13  C   UNL     1       0.104  -2.900   4.469  0.00  0.00    +0.320 A 
ATOM     14  N   UNL     1       0.216  -2.206   3.349  0.00  0.00    -0.180 NA
ATOM     15  H   UNL     1       0.835   0.758   2.235  0.00  0.00    +0.154 HD
BRANCH  13  16
ATOM     16  O   UNL     1      -0.245  -4.208   4.404  0.00  0.00    -0.459 OA
BRANCH  16  17
ATOM     17  C   UNL     1      -0.356  -4.912   5.642  0.00  0.00    +0.173 C 
ATOM     18  C   UNL     1       0.994  -5.541   5.997  0.00  0.00    +0.026 C 
ATOM     19  C   UNL     1       0.847  -6.359   7.282  0.00  0.00    -0.076 C 
ATOM     20  N   UNL     1      -0.149  -7.418   7.081  0.00  0.00    +0.378 N 
ATOM     21  C   UNL     1      -1.462  -6.821   6.811  0.00  0.00    -0.076 C 
ATOM     22  C   UNL     1      -1.405  -6.020   5.508  0.00  0.00    +0.026 C 
ATOM     23  C   UNL     1      -0.230  -8.248   8.290  0.00  0.00    -0.096 C 
ATOM     24  H   UNL     1       0.126  -7.992   6.298  0.00  0.00    -0.082 HD
ENDBRANCH  16  17
ENDBRANCH  13  16
ENDBRANCH   7   8
BRANCH   5  25
ATOM     25  N   UNL     1       0.991  -4.225  -0.442  0.00  0.00    -0.281 N 
ATOM     26  C   UNL     1       1.676  -4.713  -1.495  0.00  0.00    +0.248 C 
ATOM     27  O   UNL     1       1.998  -3.976  -2.405  0.00  0.00    -0.270 OA
ATOM     28  H   UNL     1       0.672  -4.825   0.250  0.00  0.00    +0.155 HD
BRANCH  26  29
ATOM     29  C   UNL     1       2.036  -6.149  -1.542  0.00  0.00    +0.042 A 
ATOM     30  C   UNL     1       1.669  -7.017  -0.506  0.00  0.00    +0.033 A 
ATOM     31  C   UNL     1       2.023  -8.348  -0.587  0.00  0.00    +0.113 A 
ATOM     32  N   UNL     1       2.699  -8.810  -1.621  0.00  0.00    -0.240 NA
ATOM     33  C   UNL     1       3.067  -8.028  -2.623  0.00  0.00    +0.122 A 
ATOM     34  C   UNL     1       2.745  -6.675  -2.623  0.00  0.00    +0.056 A 
ATOM     35  N   UNL     1       3.778  -8.566  -3.689  0.00  0.00    -0.311 N 
ATOM     36  C   UNL     1       3.943 -10.021  -3.833  0.00  0.00    +0.134 C 
ATOM     37  C   UNL     1       3.542 -10.414  -5.260  0.00  0.00    +0.178 C 
ATOM     38  O   UNL     1       4.257  -9.599  -6.191  0.00  0.00    -0.377 OA
ATOM     39  C   UNL     1       3.965  -8.203  -6.092  0.00  0.00    +0.178 C 
ATOM     40  C   UNL     1       4.383  -7.697  -4.711  0.00  0.00    +0.134 C 
ENDBRANCH  26  29
ENDBRANCH   5  25
TORSDOF 5
