REMARK  Name = CHEMBL161477
REMARK  13 active torsions:
REMARK  status: ('A' for Active; 'I' for Inactive)
REMARK    1  A    between atoms: C_1  and  C_2
REMARK    2  A    between atoms: C_2  and  C_4
REMARK    3  A    between atoms: C_2  and  N_10
REMARK    4  A    between atoms: C_15  and  C_17
REMARK    5  A    between atoms: C_19  and  N_33
REMARK    6  A    between atoms: C_22  and  C_23
REMARK    7  A    between atoms: C_27  and  C_29
REMARK    8  A    between atoms: N_33  and  C_34
REMARK    9  A    between atoms: N_33  and  C_35
REMARK   10  A    between atoms: C_35  and  C_36
REMARK   11  A    between atoms: C_36  and  N_37
REMARK   12  A    between atoms: N_37  and  C_38
REMARK   13  A    between atoms: N_37  and  C_39
REMARK                            x       y       z     vdW  Elec       q    Type
REMARK                         _______ _______ _______ _____ _____    ______ ____
ROOT
ATOM      1  C   UNL     1      -5.420  -1.702  -2.226  0.00  0.00    +0.031 A 
ATOM      2  C   UNL     1      -6.194  -1.766  -3.385  0.00  0.00    +0.057 A 
ATOM      3  C   UNL     1      -7.474  -2.308  -3.284  0.00  0.00    +0.144 A 
ATOM      4  N   UNL     1      -7.920  -2.742  -2.114  0.00  0.00    -0.134 NA
ATOM      5  N   UNL     1      -7.215  -2.687  -1.044  0.00  0.00    -0.147 NA
ATOM      6  C   UNL     1      -5.983  -2.196  -1.033  0.00  0.00    +0.103 A 
ENDROOT
BRANCH   1  12
ATOM      7  N   UNL     1      -0.785  -2.003  -1.106  0.00  0.00    -0.307 N 
ATOM      8  C   UNL     1      -1.813  -1.295  -1.704  0.00  0.00    +0.216 A 
ATOM      9  N   UNL     1      -1.545  -0.133  -2.284  0.00  0.00    -0.223 NA
ATOM     10  C   UNL     1      -2.500   0.574  -2.866  0.00  0.00    +0.116 A 
ATOM     11  C   UNL     1      -3.796   0.088  -2.869  0.00  0.00    +0.048 A 
ATOM     12  C   UNL     1      -4.048  -1.139  -2.250  0.00  0.00    +0.078 A 
ATOM     13  N   UNL     1      -3.037  -1.798  -1.688  0.00  0.00    -0.214 NA
ATOM     14  H   UNL     1      -0.967  -2.856  -0.682  0.00  0.00    +0.149 HD
BRANCH   7  16
ATOM     15  C   UNL     1       0.750  -0.501   0.065  0.00  0.00    +0.033 C 
ATOM     16  C   UNL     1       0.577  -1.463  -1.113  0.00  0.00    +0.100 C 
BRANCH  16  17
ATOM     17  C   UNL     1       1.565  -2.593  -0.988  0.00  0.00    -0.027 A 
ATOM     18  C   UNL     1       1.303  -3.651  -0.137  0.00  0.00    +0.005 A 
ATOM     19  C   UNL     1       2.210  -4.688  -0.023  0.00  0.00    +0.000 A 
ATOM     20  C   UNL     1       3.379  -4.667  -0.760  0.00  0.00    +0.000 A 
ATOM     21  C   UNL     1       3.642  -3.610  -1.611  0.00  0.00    +0.000 A 
ATOM     22  C   UNL     1       2.733  -2.576  -1.729  0.00  0.00    +0.005 A 
ENDBRANCH  16  17
ENDBRANCH   7  16
ENDBRANCH   1  12
BRANCH   6  23
ATOM     23  C   UNL     1      -5.206  -2.160   0.229  0.00  0.00    +0.003 A 
ATOM     24  C   UNL     1      -4.460  -1.030   0.560  0.00  0.00    +0.010 A 
ATOM     25  C   UNL     1      -3.740  -1.002   1.736  0.00  0.00    +0.001 A 
ATOM     26  C   UNL     1      -3.755  -2.094   2.586  0.00  0.00    +0.012 A 
ATOM     27  C   UNL     1      -4.493  -3.219   2.262  0.00  0.00    +0.055 A 
ATOM     28  C   UNL     1      -5.223  -3.256   1.092  0.00  0.00    +0.022 A 
BRANCH  27  29
ATOM     29  C   UNL     1      -4.504  -4.404   3.193  0.00  0.00    +0.417 C 
ATOM     30  F   UNL     1      -3.701  -4.131   4.306  0.00  0.00    -0.166 F 
ATOM     31  F   UNL     1      -5.815  -4.654   3.614  0.00  0.00    -0.166 F 
ATOM     32  F   UNL     1      -4.007  -5.527   2.524  0.00  0.00    -0.166 F 
ENDBRANCH  27  29
ENDBRANCH   6  23
BRANCH   3  33
ATOM     33  N   UNL     1      -8.284  -2.393  -4.411  0.00  0.00    -0.319 N 
ATOM     34  C   UNL     1      -7.754  -2.016  -5.724  0.00  0.00    +0.130 C 
BRANCH  33  35
ATOM     35  C   UNL     1      -9.666  -2.861  -4.287  0.00  0.00    +0.088 C 
BRANCH  35  36
ATOM     36  C   UNL     1     -10.587  -1.667  -4.030  0.00  0.00    -0.060 C 
BRANCH  36  37
ATOM     37  N   UNL     1     -11.974  -2.135  -3.905  0.00  0.00    +0.377 N 
ATOM     38  C   UNL     1     -12.098  -2.985  -2.713  0.00  0.00    -0.097 C 
ATOM     39  C   UNL     1     -12.872  -0.980  -3.778  0.00  0.00    -0.097 C 
ATOM     40  H   UNL     1     -12.224  -2.667  -4.724  0.00  0.00    -0.083 HD
ENDBRANCH  36  37
ENDBRANCH  35  36
ENDBRANCH  33  35
ENDBRANCH   3  33
TORSDOF 9
