REMARK  Name = CHEMBL493669
REMARK  9 active torsions:
REMARK  status: ('A' for Active; 'I' for Inactive)
REMARK    1  A    between atoms: C_1  and  C_2
REMARK    2  A    between atoms: C_2  and  C_3
REMARK    3  A    between atoms: C_2  and  N_11
REMARK    4  A    between atoms: C_3  and  C_4
REMARK    5  A    between atoms: C_4  and  C_5
REMARK    6  A    between atoms: C_14  and  C_18
REMARK    7  A    between atoms: C_19  and  C_26
REMARK    8  A    between atoms: C_21  and  S_24
REMARK    9  A    between atoms: S_24  and  C_25
REMARK                            x       y       z     vdW  Elec       q    Type
REMARK                         _______ _______ _______ _____ _____    ______ ____
ROOT
ATOM      1  N   UNL     1       0.711  -0.489   1.189  0.00  0.00    -0.328 N 
ATOM      2  C   UNL     1       2.096  -0.603   1.173  0.00  0.00    +0.097 A 
ATOM      3  C   UNL     1       2.801  -0.250   0.031  0.00  0.00    +0.051 A 
ATOM      4  C   UNL     1       4.195  -0.371   0.032  0.00  0.00    +0.005 A 
ATOM      5  C   UNL     1       4.819  -0.847   1.197  0.00  0.00    +0.027 A 
ATOM      6  C   UNL     1       4.044  -1.175   2.286  0.00  0.00    +0.085 A 
ATOM      7  N   UNL     1       2.730  -1.043   2.251  0.00  0.00    -0.350 N 
ATOM      8  H   UNL     1       0.213  -0.731   1.986  0.00  0.00    +0.148 HD
ATOM      9  H   UNL     1       2.213  -1.279   3.037  0.00  0.00    +0.166 HD
ENDROOT
BRANCH   4  10
ATOM     10  C   UNL     1       4.987  -0.008  -1.157  0.00  0.00    +0.075 A 
ATOM     11  C   UNL     1       6.152   0.735  -1.182  0.00  0.00    +0.098 A 
ATOM     12  N   UNL     1       6.548   0.832  -2.465  0.00  0.00    -0.221 NA
ATOM     13  C   UNL     1       5.700   0.194  -3.237  0.00  0.00    +0.167 A 
ATOM     14  N   UNL     1       4.715  -0.349  -2.470  0.00  0.00    -0.332 N 
ATOM     15  H   UNL     1       3.963  -0.874  -2.785  0.00  0.00    +0.168 HD
BRANCH  11  16
ATOM     16  C   UNL     1       6.841   1.320  -0.008  0.00  0.00    +0.003 A 
ATOM     17  C   UNL     1       6.099   1.798   1.072  0.00  0.00    +0.013 A 
ATOM     18  C   UNL     1       6.745   2.341   2.163  0.00  0.00    +0.039 A 
ATOM     19  C   UNL     1       8.128   2.413   2.187  0.00  0.00    +0.123 A 
ATOM     20  C   UNL     1       8.870   1.940   1.117  0.00  0.00    +0.039 A 
ATOM     21  C   UNL     1       8.233   1.389   0.024  0.00  0.00    +0.013 A 
ATOM     22  F   UNL     1       8.756   2.947   3.258  0.00  0.00    -0.205 F 
ENDBRANCH  11  16
BRANCH  13  23
ATOM     23  S   UNL     1       5.821   0.057  -4.990  0.00  0.00    -0.091 S 
ATOM     24  C   UNL     1       7.332   0.974  -5.399  0.00  0.00    +0.093 C 
ENDBRANCH  13  23
ENDBRANCH   4  10
BRANCH   1  26
ATOM     25  C   UNL     1      -0.019   1.526   0.010  0.00  0.00    +0.028 C 
ATOM     26  C   UNL     1       0.002  -0.004   0.002  0.00  0.00    +0.069 C 
BRANCH  26  27
ATOM     27  C   UNL     1      -1.433  -0.534   0.013  0.00  0.00    +0.026 C 
BRANCH  27  28
ATOM     28  C   UNL     1      -1.416  -2.058  -0.121  0.00  0.00    +0.037 C 
BRANCH  28  29
ATOM     29  C   UNL     1      -2.829  -2.579  -0.111  0.00  0.00    -0.047 A 
ATOM     30  C   UNL     1      -3.432  -2.917   1.087  0.00  0.00    +0.003 A 
ATOM     31  C   UNL     1      -4.729  -3.396   1.096  0.00  0.00    +0.000 A 
ATOM     32  C   UNL     1      -5.423  -3.536  -0.091  0.00  0.00    +0.000 A 
ATOM     33  C   UNL     1      -4.821  -3.197  -1.288  0.00  0.00    +0.000 A 
ATOM     34  C   UNL     1      -3.525  -2.714  -1.297  0.00  0.00    +0.003 A 
ENDBRANCH  28  29
ENDBRANCH  27  28
ENDBRANCH  26  27
ENDBRANCH   1  26
TORSDOF 7
