REMARK  Name = CHEMBL199160
REMARK  7 active torsions:
REMARK  status: ('A' for Active; 'I' for Inactive)
REMARK    1  A    between atoms: C_1  and  C_2
REMARK    2  A    between atoms: C_2  and  C_3
REMARK    3  A    between atoms: C_5  and  C_19
REMARK    4  A    between atoms: C_6  and  C_8
REMARK    5  A    between atoms: C_15  and  C_17
REMARK    6  A    between atoms: C_17  and  C_18
REMARK    7  A    between atoms: C_23  and  C_25
REMARK                            x       y       z     vdW  Elec       q    Type
REMARK                         _______ _______ _______ _____ _____    ______ ____
ROOT
ATOM      1  C   UNL     1       0.653  -0.350  -1.363  0.00  0.00    +0.079 A 
ATOM      2  N   UNL     1       1.926  -0.629  -1.467  0.00  0.00    -0.243 NA
ATOM      3  C   UNL     1       2.425  -1.198  -2.551  0.00  0.00    +0.086 A 
ATOM      4  C   UNL     1       1.512  -1.478  -3.566  0.00  0.00    +0.047 A 
ATOM      5  S   UNL     1       0.003  -0.880  -2.821  0.00  0.00    -0.071 S 
ENDROOT
BRANCH   4   6
ATOM      6  C   UNL     1       1.730  -2.100  -4.886  0.00  0.00    -0.005 A 
ATOM      7  C   UNL     1       2.482  -3.278  -5.013  0.00  0.00    +0.029 A 
ATOM      8  C   UNL     1       2.662  -3.827  -6.263  0.00  0.00    +0.113 A 
ATOM      9  N   UNL     1       2.140  -3.262  -7.336  0.00  0.00    -0.240 NA
ATOM     10  C   UNL     1       1.424  -2.150  -7.265  0.00  0.00    +0.125 A 
ATOM     11  C   UNL     1       1.188  -1.534  -6.045  0.00  0.00    +0.053 A 
ATOM     12  N   UNL     1       0.896  -1.595  -8.431  0.00  0.00    -0.270 N 
ATOM     13  C   UNL     1       1.023  -2.245  -9.604  0.00  0.00    +0.218 C 
ATOM     14  O   UNL     1       1.678  -3.264  -9.665  0.00  0.00    -0.275 OA
ATOM     15  H   UNL     1       0.437  -0.741  -8.396  0.00  0.00    +0.156 HD
BRANCH  13  16
ATOM     16  C   UNL     1       0.352  -1.705 -10.841  0.00  0.00    +0.093 C 
ATOM     17  C   UNL     1       0.653  -2.624 -12.027  0.00  0.00    +0.013 C 
ENDBRANCH  13  16
ENDBRANCH   4   6
BRANCH   3  18
ATOM     18  C   UNL     1       3.866  -1.518  -2.679  0.00  0.00    +0.002 A 
ATOM     19  C   UNL     1       4.538  -1.254  -3.873  0.00  0.00    +0.010 A 
ATOM     20  C   UNL     1       5.880  -1.555  -3.986  0.00  0.00    +0.001 A 
ATOM     21  C   UNL     1       6.559  -2.117  -2.919  0.00  0.00    +0.003 A 
ATOM     22  C   UNL     1       5.897  -2.381  -1.733  0.00  0.00    -0.050 A 
ATOM     23  C   UNL     1       4.556  -2.080  -1.606  0.00  0.00    +0.013 A 
ATOM     24  C   UNL     1       6.644  -2.994  -0.576  0.00  0.00    +0.044 C 
ENDBRANCH   3  18
BRANCH   1  26
ATOM     25  C   UNL     1      -0.077   1.811  -0.389  0.00  0.00    +0.011 C 
ATOM     26  C   UNL     1      -0.066   0.292  -0.204  0.00  0.00    +0.059 C 
ENDBRANCH   1  26
TORSDOF 4
