REMARK  Name = CHEMBL481883
REMARK  6 active torsions:
REMARK  status: ('A' for Active; 'I' for Inactive)
REMARK    1  A    between atoms: C_1  and  S_2
REMARK    2  A    between atoms: S_2  and  C_3
REMARK    3  A    between atoms: C_6  and  C_16
REMARK    4  A    between atoms: C_7  and  C_9
REMARK    5  A    between atoms: N_22  and  C_23
REMARK    6  A    between atoms: C_23  and  C_24
REMARK                            x       y       z     vdW  Elec       q    Type
REMARK                         _______ _______ _______ _____ _____    ______ ____
ROOT
ATOM      1  C   UNL     1      -1.707  -0.456  -0.093  0.00  0.00    +0.167 A 
ATOM      2  N   UNL     1      -2.193  -1.727  -0.103  0.00  0.00    -0.332 N 
ATOM      3  H   UNL     1      -1.676  -2.541  -0.210  0.00  0.00    +0.168 HD
ATOM      4  C   UNL     1      -3.564  -1.641   0.070  0.00  0.00    +0.075 A 
ATOM      5  C   UNL     1      -3.857  -0.295   0.179  0.00  0.00    +0.098 A 
ATOM      6  N   UNL     1      -2.700   0.385   0.079  0.00  0.00    -0.221 NA
ENDROOT
BRANCH   4   7
ATOM      7  C   UNL     1      -4.520  -2.762   0.126  0.00  0.00    +0.005 A 
ATOM      8  C   UNL     1      -5.705  -2.737  -0.627  0.00  0.00    +0.030 A 
ATOM      9  C   UNL     1      -6.572  -3.803  -0.548  0.00  0.00    +0.113 A 
ATOM     10  N   UNL     1      -6.304  -4.842   0.222  0.00  0.00    -0.240 NA
ATOM     11  C   UNL     1      -5.199  -4.911   0.950  0.00  0.00    +0.120 A 
ATOM     12  C   UNL     1      -4.269  -3.882   0.926  0.00  0.00    +0.053 A 
ATOM     13  N   UNL     1      -4.967  -6.029   1.744  0.00  0.00    -0.323 N 
ATOM     14  H   UNL     1      -5.612  -6.753   1.763  0.00  0.00    +0.148 HD
BRANCH  13  15
ATOM     15  C   UNL     1      -3.748  -6.113   2.553  0.00  0.00    +0.158 C 
BRANCH  15  16
ATOM     16  C   UNL     1      -3.739  -7.413   3.314  0.00  0.00    +0.058 A 
ATOM     17  C   UNL     1      -3.070  -8.505   2.793  0.00  0.00    +0.025 A 
ATOM     18  C   UNL     1      -3.068  -9.697   3.502  0.00  0.00    +0.003 A 
ATOM     19  C   UNL     1      -3.742  -9.746   4.713  0.00  0.00    +0.020 A 
ATOM     20  C   UNL     1      -4.388  -8.613   5.170  0.00  0.00    +0.111 A 
ATOM     21  N   UNL     1      -4.365  -7.495   4.472  0.00  0.00    -0.258 NA
ENDBRANCH  15  16
ENDBRANCH  13  15
ENDBRANCH   4   7
BRANCH   5  22
ATOM     22  C   UNL     1      -5.203   0.293   0.376  0.00  0.00    +0.003 A 
ATOM     23  C   UNL     1      -6.091  -0.281   1.286  0.00  0.00    +0.013 A 
ATOM     24  C   UNL     1      -7.343   0.270   1.465  0.00  0.00    +0.039 A 
ATOM     25  C   UNL     1      -7.718   1.392   0.743  0.00  0.00    +0.123 A 
ATOM     26  C   UNL     1      -6.840   1.965  -0.162  0.00  0.00    +0.039 A 
ATOM     27  C   UNL     1      -5.584   1.425  -0.344  0.00  0.00    +0.013 A 
ATOM     28  F   UNL     1      -8.946   1.927   0.921  0.00  0.00    -0.205 F 
ENDBRANCH   5  22
BRANCH   1  30
ATOM     29  C   UNL     1      -0.021   1.800  -0.168  0.00  0.00    +0.093 C 
ATOM     30  S   UNL     1      -0.012  -0.010  -0.276  0.00  0.00    -0.091 S 
ENDBRANCH   1  30
TORSDOF 5
