REMARK  Name = CHEMBL364572
REMARK  7 active torsions:
REMARK  status: ('A' for Active; 'I' for Inactive)
REMARK    1  A    between atoms: C_1  and  C_2
REMARK    2  A    between atoms: C_2  and  C_3
REMARK    3  A    between atoms: C_2  and  S_4
REMARK    4  A    between atoms: S_4  and  N_7
REMARK    5  A    between atoms: C_10  and  C_17
REMARK    6  A    between atoms: C_18  and  C_31
REMARK    7  A    between atoms: C_20  and  C_23
REMARK                            x       y       z     vdW  Elec       q    Type
REMARK                         _______ _______ _______ _____ _____    ______ ____
ROOT
ATOM      1  C   UNL     1      -1.337  -4.024  -4.547  0.00  0.00    +0.074 A 
ATOM      2  C   UNL     1      -1.913  -4.891  -5.461  0.00  0.00    +0.097 A 
ATOM      3  N   UNL     1      -1.605  -4.453  -6.692  0.00  0.00    -0.227 NA
ATOM      4  C   UNL     1      -0.871  -3.367  -6.602  0.00  0.00    +0.145 A 
ATOM      5  N   UNL     1      -0.685  -3.061  -5.284  0.00  0.00    -0.337 N 
ATOM      6  H   UNL     1      -0.186  -2.307  -4.933  0.00  0.00    +0.167 HD
ENDROOT
BRANCH   1  10
ATOM      7  N   UNL     1      -2.086  -2.164   0.061  0.00  0.00    -0.183 N 
ATOM      8  C   UNL     1      -1.802  -3.071  -0.948  0.00  0.00    +0.094 A 
ATOM      9  C   UNL     1      -1.733  -2.980  -2.327  0.00  0.00    +0.039 A 
ATOM     10  C   UNL     1      -1.412  -4.111  -3.077  0.00  0.00    +0.003 A 
ATOM     11  C   UNL     1      -1.160  -5.331  -2.435  0.00  0.00    +0.012 A 
ATOM     12  C   UNL     1      -1.227  -5.425  -1.076  0.00  0.00    +0.030 A 
ATOM     13  C   UNL     1      -1.548  -4.298  -0.311  0.00  0.00    +0.093 A 
ATOM     14  N   UNL     1      -1.685  -4.090   1.025  0.00  0.00    -0.213 NA
ATOM     15  C   UNL     1      -1.995  -2.837   1.246  0.00  0.00    +0.214 A 
ATOM     16  N   UNL     1      -2.203  -2.280   2.490  0.00  0.00    -0.328 N 
ATOM     17  H   UNL     1      -2.433  -1.341   2.569  0.00  0.00    +0.145 HD
ATOM     18  H   UNL     1      -2.119  -2.828   3.287  0.00  0.00    +0.145 HD
BRANCH   7  19
ATOM     19  S   UNL     1      -2.459  -0.563  -0.134  0.00  0.00    +0.060 S 
ATOM     20  O   UNL     1      -3.229  -0.228   1.012  0.00  0.00    -0.153 OA
ATOM     21  O   UNL     1      -3.022  -0.477  -1.436  0.00  0.00    -0.153 OA
BRANCH  19  23
ATOM     22  C   UNL     1      -1.095   1.808  -0.133  0.00  0.00    +0.033 C 
ATOM     23  C   UNL     1      -0.862   0.297  -0.086  0.00  0.00    +0.148 C 
ATOM     24  C   UNL     1      -0.126  -0.066   1.205  0.00  0.00    +0.033 C 
ENDBRANCH  19  23
ENDBRANCH   7  19
ENDBRANCH   1  10
BRANCH   4  25
ATOM     25  C   UNL     1      -0.338  -2.596  -7.744  0.00  0.00    +0.087 A 
ATOM     26  C   UNL     1       0.439  -1.456  -7.521  0.00  0.00    +0.137 A 
ATOM     27  C   UNL     1       0.935  -0.741  -8.595  0.00  0.00    +0.039 A 
ATOM     28  C   UNL     1       0.665  -1.151  -9.887  0.00  0.00    +0.006 A 
ATOM     29  C   UNL     1      -0.103  -2.279 -10.117  0.00  0.00    +0.039 A 
ATOM     30  C   UNL     1      -0.602  -3.008  -9.054  0.00  0.00    +0.137 A 
ATOM     31  F   UNL     1      -1.347  -4.112  -9.280  0.00  0.00    -0.205 F 
ATOM     32  F   UNL     1       0.703  -1.053  -6.259  0.00  0.00    -0.205 F 
ENDBRANCH   4  25
BRANCH   2  33
ATOM     33  C   UNL     1      -2.725  -6.087  -5.137  0.00  0.00    +0.002 A 
ATOM     34  C   UNL     1      -3.679  -6.032  -4.120  0.00  0.00    +0.010 A 
ATOM     35  C   UNL     1      -4.431  -7.150  -3.824  0.00  0.00    +0.001 A 
ATOM     36  C   UNL     1      -4.242  -8.323  -4.532  0.00  0.00    +0.000 A 
ATOM     37  C   UNL     1      -3.297  -8.384  -5.541  0.00  0.00    +0.001 A 
ATOM     38  C   UNL     1      -2.543  -7.271  -5.851  0.00  0.00    +0.010 A 
ENDBRANCH   2  33
TORSDOF 5
