REMARK  Name = CHEMBL200017
REMARK  7 active torsions:
REMARK  status: ('A' for Active; 'I' for Inactive)
REMARK    1  A    between atoms: C_1  and  O_2
REMARK    2  A    between atoms: O_2  and  C_3
REMARK    3  A    between atoms: C_6  and  C_28
REMARK    4  A    between atoms: C_8  and  C_9
REMARK    5  A    between atoms: N_19  and  C_20
REMARK    6  A    between atoms: C_28  and  N_29
REMARK    7  A    between atoms: N_29  and  C_30
REMARK                            x       y       z     vdW  Elec       q    Type
REMARK                         _______ _______ _______ _____ _____    ______ ____
ROOT
ATOM      1  C   UNL     1       0.092  -2.689   0.078  0.00  0.00    +0.079 A 
ATOM      2  C   UNL     1      -1.264  -2.771   0.402  0.00  0.00    +0.046 A 
ATOM      3  C   UNL     1      -2.418  -2.053   0.032  0.00  0.00    +0.017 A 
ATOM      4  C   UNL     1      -3.611  -2.431   0.569  0.00  0.00    +0.044 A 
ATOM      5  C   UNL     1      -3.681  -3.507   1.465  0.00  0.00    +0.125 A 
ATOM      6  N   UNL     1      -2.618  -4.192   1.827  0.00  0.00    -0.211 NA
ATOM      7  C   UNL     1      -1.400  -3.889   1.346  0.00  0.00    +0.183 A 
ATOM      8  N   UNL     1      -0.190  -4.387   1.525  0.00  0.00    -0.153 NA
ATOM      9  N   UNL     1       0.728  -3.668   0.753  0.00  0.00    -0.274 N 
ATOM     10  H   UNL     1       1.681  -3.845   0.712  0.00  0.00    +0.189 HD
ATOM     11  N   UNL     1      -4.915  -3.861   1.990  0.00  0.00    -0.297 N 
ATOM     12  H   UNL     1      -5.722  -3.430   1.666  0.00  0.00    +0.154 HD
ENDROOT
BRANCH  11  13
ATOM     13  C   UNL     1      -4.997  -4.839   2.989  0.00  0.00    +0.068 A 
ATOM     14  C   UNL     1      -3.964  -4.986   3.904  0.00  0.00    +0.029 A 
ATOM     15  C   UNL     1      -4.046  -5.951   4.889  0.00  0.00    +0.040 A 
ATOM     16  C   UNL     1      -5.158  -6.773   4.964  0.00  0.00    +0.126 A 
ATOM     17  C   UNL     1      -6.191  -6.630   4.053  0.00  0.00    +0.078 A 
ATOM     18  C   UNL     1      -6.116  -5.661   3.068  0.00  0.00    +0.147 A 
ATOM     19  F   UNL     1      -7.125  -5.517   2.183  0.00  0.00    -0.203 F 
ATOM     20  F   UNL     1      -5.236  -7.717   5.928  0.00  0.00    -0.205 F 
ENDBRANCH  11  13
BRANCH   1  26
ATOM     21  C   UNL     1       0.715  -0.350  -0.522  0.00  0.00    +0.129 A 
ATOM     22  C   UNL     1       1.307   0.555  -1.388  0.00  0.00    +0.046 A 
ATOM     23  C   UNL     1       1.886   0.113  -2.563  0.00  0.00    +0.005 A 
ATOM     24  C   UNL     1       1.880  -1.234  -2.884  0.00  0.00    -0.064 A 
ATOM     25  C   UNL     1       1.296  -2.148  -2.033  0.00  0.00    +0.015 A 
ATOM     26  C   UNL     1       0.713  -1.716  -0.840  0.00  0.00    +0.042 A 
BRANCH  21  28
ATOM     27  C   UNL     1       0.187   1.488   0.888  0.00  0.00    +0.277 C 
ATOM     28  O   UNL     1       0.146   0.082   0.632  0.00  0.00    -0.494 OA
ENDBRANCH  21  28
BRANCH  24  29
ATOM     29  C   UNL     1       2.515  -1.702  -4.168  0.00  0.00    -0.046 C 
BRANCH  29  30
ATOM     30  N   UNL     1       3.930  -2.015  -3.928  0.00  0.00    +0.384 N 
ATOM     31  H   UNL     1       4.407  -1.189  -3.599  0.00  0.00    -0.085 HD
ATOM     32  H   UNL     1       4.001  -2.743  -3.233  0.00  0.00    -0.085 HD
BRANCH  30  33
ATOM     33  C   UNL     1       4.549  -2.472  -5.180  0.00  0.00    -0.067 C 
ATOM     34  C   UNL     1       3.918  -3.800  -5.609  0.00  0.00    +0.012 C 
ATOM     35  C   UNL     1       4.622  -4.307  -6.870  0.00  0.00    +0.158 C 
ATOM     36  O   UNL     1       6.020  -4.449  -6.609  0.00  0.00    -0.380 OA
ATOM     37  C   UNL     1       6.673  -3.230  -6.249  0.00  0.00    +0.158 C 
ATOM     38  C   UNL     1       6.051  -2.680  -4.963  0.00  0.00    +0.012 C 
ENDBRANCH  30  33
ENDBRANCH  29  30
ENDBRANCH  24  29
ENDBRANCH   1  26
TORSDOF 6
