REMARK  Name = CHEMBL610487
REMARK  6 active torsions:
REMARK  status: ('A' for Active; 'I' for Inactive)
REMARK    1  A    between atoms: C_1  and  C_2
REMARK    2  A    between atoms: C_2  and  C_3
REMARK    3  A    between atoms: C_2  and  C_4
REMARK    4  A    between atoms: C_10  and  C_13
REMARK    5  A    between atoms: C_13  and  C_14
REMARK    6  A    between atoms: C_14  and  C_15
REMARK                            x       y       z     vdW  Elec       q    Type
REMARK                         _______ _______ _______ _____ _____    ______ ____
ROOT
ATOM      1  C   UNL     1      -1.412  -0.526   0.013  0.00  0.00    +0.124 C 
ATOM      2  N   UNL     1      -2.423   0.128   0.471  0.00  0.00    -0.174 NA
ATOM      3  N   UNL     1      -3.607  -0.619   0.375  0.00  0.00    -0.243 N 
ATOM      4  C   UNL     1      -3.206  -1.951  -0.095  0.00  0.00    +0.204 C 
ATOM      5  N   UNL     1      -1.786  -1.755  -0.470  0.00  0.00    -0.270 N 
ATOM      6  C   UNL     1      -1.097  -2.676  -1.238  0.00  0.00    +0.082 C 
ATOM      7  C   UNL     1      -1.840  -3.309  -2.179  0.00  0.00    -0.033 C 
ATOM      8  C   UNL     1      -3.259  -2.964  -2.328  0.00  0.00    +0.004 C 
ATOM      9  C   UNL     1      -3.929  -2.334  -1.362  0.00  0.00    +0.017 C 
ATOM     10  H   UNL     1      -4.506  -0.318   0.578  0.00  0.00    +0.170 HD
ENDROOT
BRANCH   1  12
ATOM     11  C   UNL     1      -0.019   1.526   0.010  0.00  0.00    +0.015 C 
ATOM     12  C   UNL     1       0.002  -0.004   0.002  0.00  0.00    +0.048 C 
ATOM     13  C   UNL     1       0.742  -0.511   1.242  0.00  0.00    +0.015 C 
ENDBRANCH   1  12
BRANCH   7  14
ATOM     14  C   UNL     1      -1.214  -4.356  -3.063  0.00  0.00    +0.041 C 
BRANCH  14  15
ATOM     15  C   UNL     1      -1.459  -5.742  -2.465  0.00  0.00    +0.043 C 
BRANCH  15  16
ATOM     16  C   UNL     1      -0.834  -6.789  -3.349  0.00  0.00    -0.012 A 
ATOM     17  C   UNL     1      -1.595  -7.426  -4.311  0.00  0.00    +0.009 A 
ATOM     18  C   UNL     1      -1.023  -8.387  -5.123  0.00  0.00    +0.039 A 
ATOM     19  C   UNL     1       0.315  -8.712  -4.975  0.00  0.00    +0.126 A 
ATOM     20  C   UNL     1       1.079  -8.075  -4.013  0.00  0.00    +0.077 A 
ATOM     21  C   UNL     1       0.505  -7.109  -3.203  0.00  0.00    +0.129 A 
ATOM     22  F   UNL     1       1.251  -6.482  -2.267  0.00  0.00    -0.205 F 
ATOM     23  F   UNL     1       0.874  -9.651  -5.769  0.00  0.00    -0.205 F 
ENDBRANCH  15  16
ENDBRANCH  14  15
ENDBRANCH   7  14
TORSDOF 4
