REMARK  Name = CHEMBL496334
REMARK  7 active torsions:
REMARK  status: ('A' for Active; 'I' for Inactive)
REMARK    1  A    between atoms: C_1  and  C_2
REMARK    2  A    between atoms: C_5  and  C_20
REMARK    3  A    between atoms: C_7  and  C_8
REMARK    4  A    between atoms: C_11  and  C_14
REMARK    5  A    between atoms: C_16  and  C_19
REMARK    6  A    between atoms: N_22  and  C_23
REMARK    7  A    between atoms: C_27  and  N_29
REMARK                            x       y       z     vdW  Elec       q    Type
REMARK                         _______ _______ _______ _____ _____    ______ ____
ROOT
ATOM      1  C   UNL     1      -0.109   1.505  -0.025  0.00  0.00    +0.044 C 
ATOM      2  C   UNL     1      -0.068  -0.002  -0.028  0.00  0.00    -0.043 A 
ATOM      3  C   UNL     1      -0.067  -0.689  -1.226  0.00  0.00    +0.005 A 
ATOM      4  C   UNL     1      -0.030  -2.069  -1.237  0.00  0.00    +0.013 A 
ATOM      5  C   UNL     1       0.007  -2.778  -0.034  0.00  0.00    +0.038 A 
ATOM      6  C   UNL     1       0.006  -2.089   1.177  0.00  0.00    +0.021 A 
ATOM      7  C   UNL     1      -0.026  -0.698   1.180  0.00  0.00    -0.014 A 
ENDROOT
BRANCH   7   8
ATOM      8  C   UNL     1      -0.021   0.043   2.465  0.00  0.00    -0.018 A 
ATOM      9  C   UNL     1       0.876   1.092   2.661  0.00  0.00    +0.009 A 
ATOM     10  C   UNL     1       0.881   1.780   3.855  0.00  0.00    +0.012 A 
ATOM     11  C   UNL     1      -0.012   1.427   4.867  0.00  0.00    +0.022 A 
ATOM     12  C   UNL     1      -0.909   0.377   4.670  0.00  0.00    +0.012 A 
ATOM     13  C   UNL     1      -0.918  -0.306   3.474  0.00  0.00    +0.009 A 
BRANCH  11  14
ATOM     14  C   UNL     1      -0.006   2.167   6.152  0.00  0.00    +0.202 A 
ATOM     15  N   UNL     1      -0.810   1.921   7.203  0.00  0.00    -0.192 NA
ATOM     16  C   UNL     1      -0.546   2.752   8.170  0.00  0.00    +0.225 A 
ATOM     17  O   UNL     1       0.441   3.566   7.774  0.00  0.00    -0.338 OA
ATOM     18  N   UNL     1       0.785   3.167   6.455  0.00  0.00    -0.056 NA
ATOM     19  C   UNL     1      -1.235   2.792   9.509  0.00  0.00    +0.112 C 
ENDBRANCH  11  14
ENDBRANCH   7   8
BRANCH   5  20
ATOM     20  C   UNL     1       0.046  -4.256  -0.046  0.00  0.00    +0.248 C 
ATOM     21  O   UNL     1       0.079  -4.872   1.001  0.00  0.00    -0.270 OA
ATOM     22  N   UNL     1       0.047  -4.920  -1.219  0.00  0.00    -0.281 N 
ATOM     23  H   UNL     1      -0.044  -4.433  -2.053  0.00  0.00    +0.155 HD
BRANCH  22  24
ATOM     24  C   UNL     1       0.179  -6.312  -1.234  0.00  0.00    +0.035 A 
ATOM     25  C   UNL     1      -0.395  -7.076  -0.225  0.00  0.00    +0.023 A 
ATOM     26  C   UNL     1      -0.265  -8.451  -0.238  0.00  0.00    +0.004 A 
ATOM     27  C   UNL     1       0.436  -9.072  -1.254  0.00  0.00    +0.023 A 
ATOM     28  C   UNL     1       1.012  -8.314  -2.267  0.00  0.00    +0.032 A 
ATOM     29  C   UNL     1       0.878  -6.933  -2.259  0.00  0.00    +0.046 A 
BRANCH  28  30
ATOM     30  N   UNL     1       1.721  -8.942  -3.293  0.00  0.00    -0.325 N 
ATOM     31  C   UNL     1       2.445  -8.156  -4.305  0.00  0.00    +0.133 C 
ATOM     32  C   UNL     1       3.876  -8.695  -4.403  0.00  0.00    +0.178 C 
ATOM     33  O   UNL     1       3.834 -10.109  -4.608  0.00  0.00    -0.377 OA
ATOM     34  C   UNL     1       3.232 -10.839  -3.536  0.00  0.00    +0.178 C 
ATOM     35  C   UNL     1       1.772 -10.410  -3.391  0.00  0.00    +0.133 C 
ENDBRANCH  28  30
ENDBRANCH  22  24
ENDBRANCH   5  20
TORSDOF 5
