REMARK  Name = CHEMBL200017
REMARK  8 active torsions:
REMARK  status: ('A' for Active; 'I' for Inactive)
REMARK    1  A    between atoms: C_1  and  O_2
REMARK    2  A    between atoms: O_2  and  C_3
REMARK    3  A    between atoms: C_6  and  C_28
REMARK    4  A    between atoms: C_8  and  C_9
REMARK    5  A    between atoms: C_13  and  N_19
REMARK    6  A    between atoms: N_19  and  C_20
REMARK    7  A    between atoms: C_28  and  N_29
REMARK    8  A    between atoms: N_29  and  C_30
REMARK                            x       y       z     vdW  Elec       q    Type
REMARK                         _______ _______ _______ _____ _____    ______ ____
ROOT
ATOM      1  C   UNL     1       0.073  -2.698   0.007  0.00  0.00    +0.105 A 
ATOM      2  C   UNL     1       0.331  -4.019   0.588  0.00  0.00    +0.046 A 
ATOM      3  C   UNL     1      -0.402  -4.880   1.413  0.00  0.00    +0.017 A 
ATOM      4  C   UNL     1       0.164  -6.072   1.772  0.00  0.00    +0.044 A 
ATOM      5  C   UNL     1       1.442  -6.395   1.310  0.00  0.00    +0.125 A 
ATOM      6  N   UNL     1       2.120  -5.570   0.531  0.00  0.00    -0.213 NA
ATOM      7  C   UNL     1       1.614  -4.401   0.155  0.00  0.00    +0.158 A 
ATOM      8  N   UNL     1       2.087  -3.381  -0.627  0.00  0.00    -0.260 N 
ATOM      9  N   UNL     1       1.126  -2.368  -0.701  0.00  0.00    -0.171 NA
ATOM     10  H   UNL     1       2.952  -3.365  -1.065  0.00  0.00    +0.191 HD
ENDROOT
BRANCH   1  16
ATOM     11  C   UNL     1      -1.061  -0.527   0.495  0.00  0.00    +0.129 A 
ATOM     12  C   UNL     1      -2.215   0.224   0.651  0.00  0.00    +0.046 A 
ATOM     13  C   UNL     1      -3.454  -0.371   0.506  0.00  0.00    +0.005 A 
ATOM     14  C   UNL     1      -3.550  -1.718   0.203  0.00  0.00    -0.064 A 
ATOM     15  C   UNL     1      -2.410  -2.478   0.043  0.00  0.00    +0.015 A 
ATOM     16  C   UNL     1      -1.155  -1.888   0.183  0.00  0.00    +0.045 A 
BRANCH  11  18
ATOM     17  C   UNL     1       0.180   1.472   0.832  0.00  0.00    +0.277 C 
ATOM     18  O   UNL     1       0.157   0.056   0.637  0.00  0.00    -0.494 OA
ENDBRANCH  11  18
BRANCH  14  19
ATOM     19  C   UNL     1      -4.906  -2.357   0.047  0.00  0.00    -0.046 C 
BRANCH  19  20
ATOM     20  N   UNL     1      -5.334  -2.261  -1.355  0.00  0.00    +0.384 N 
ATOM     21  H   UNL     1      -5.387  -1.290  -1.626  0.00  0.00    -0.085 HD
ATOM     22  H   UNL     1      -4.668  -2.738  -1.944  0.00  0.00    -0.085 HD
BRANCH  20  23
ATOM     23  C   UNL     1      -6.656  -2.884  -1.508  0.00  0.00    -0.067 C 
ATOM     24  C   UNL     1      -6.550  -4.386  -1.229  0.00  0.00    +0.012 C 
ATOM     25  C   UNL     1      -7.914  -5.039  -1.466  0.00  0.00    +0.158 C 
ATOM     26  O   UNL     1      -8.337  -4.781  -2.807  0.00  0.00    -0.380 OA
ATOM     27  C   UNL     1      -8.500  -3.394  -3.111  0.00  0.00    +0.158 C 
ATOM     28  C   UNL     1      -7.159  -2.675  -2.939  0.00  0.00    +0.012 C 
ENDBRANCH  20  23
ENDBRANCH  19  20
ENDBRANCH  14  19
ENDBRANCH   1  16
BRANCH   5  29
ATOM     29  N   UNL     1       2.012  -7.607   1.676  0.00  0.00    -0.297 N 
ATOM     30  H   UNL     1       1.490  -8.259   2.170  0.00  0.00    +0.154 HD
BRANCH  29  31
ATOM     31  C   UNL     1       3.341  -7.888   1.333  0.00  0.00    +0.068 A 
ATOM     32  C   UNL     1       4.219  -6.853   1.047  0.00  0.00    +0.029 A 
ATOM     33  C   UNL     1       5.529  -7.132   0.709  0.00  0.00    +0.040 A 
ATOM     34  C   UNL     1       5.968  -8.444   0.656  0.00  0.00    +0.126 A 
ATOM     35  C   UNL     1       5.095  -9.480   0.941  0.00  0.00    +0.078 A 
ATOM     36  C   UNL     1       3.784  -9.206   1.285  0.00  0.00    +0.147 A 
ATOM     37  F   UNL     1       2.933 -10.216   1.569  0.00  0.00    -0.203 F 
ATOM     38  F   UNL     1       7.249  -8.714   0.325  0.00  0.00    -0.205 F 
ENDBRANCH  29  31
ENDBRANCH   5  29
TORSDOF 7
