REMARK  Name = CHEMBL244172
REMARK  7 active torsions:
REMARK  status: ('A' for Active; 'I' for Inactive)
REMARK    1  A    between atoms: C_1  and  O_2
REMARK    2  A    between atoms: O_2  and  C_3
REMARK    3  A    between atoms: C_4  and  C_23
REMARK    4  A    between atoms: C_7  and  C_13
REMARK    5  A    between atoms: C_13  and  C_15
REMARK    6  A    between atoms: C_20  and  O_22
REMARK    7  A    between atoms: C_32  and  C_33
REMARK                            x       y       z     vdW  Elec       q    Type
REMARK                         _______ _______ _______ _____ _____    ______ ____
ROOT
ATOM      1  C   UNL     1      -1.317  -0.426  -0.085  0.00  0.00    +0.229 A 
ATOM      2  C   UNL     1      -1.290  -1.818   0.116  0.00  0.00    +0.099 A 
ATOM      3  C   UNL     1      -2.491  -2.488   0.368  0.00  0.00    +0.030 A 
ATOM      4  C   UNL     1      -3.661  -1.739   0.409  0.00  0.00    +0.031 A 
ATOM      5  C   UNL     1      -5.081  -2.068   0.640  0.00  0.00    +0.053 A 
ATOM      6  C   UNL     1      -5.769  -0.874   0.553  0.00  0.00    +0.097 A 
ATOM      7  N   UNL     1      -4.899   0.130   0.294  0.00  0.00    -0.345 N 
ATOM      8  H   UNL     1      -5.148   1.061   0.190  0.00  0.00    +0.167 HD
ATOM      9  C   UNL     1      -3.612  -0.349   0.199  0.00  0.00    +0.143 A 
ATOM     10  N   UNL     1      -2.449   0.249  -0.033  0.00  0.00    -0.194 NA
ENDROOT
BRANCH   2  11
ATOM     11  C   UNL     1      -0.017  -2.558   0.060  0.00  0.00    +0.252 C 
ATOM     12  O   UNL     1       0.730  -2.412  -0.888  0.00  0.00    -0.270 OA
ATOM     13  N   UNL     1       0.320  -3.396   1.060  0.00  0.00    -0.290 N 
ATOM     14  C   UNL     1       1.627  -4.068   1.076  0.00  0.00    +0.130 C 
ATOM     15  C   UNL     1       2.432  -3.589   2.289  0.00  0.00    +0.142 C 
ATOM     16  N   UNL     1       1.570  -3.606   3.473  0.00  0.00    -0.326 N 
ATOM     17  C   UNL     1       0.198  -3.633   3.443  0.00  0.00    +0.054 A 
ATOM     18  C   UNL     1      -0.231  -3.631   4.712  0.00  0.00    +0.107 A 
ATOM     19  N   UNL     1       0.843  -3.608   5.515  0.00  0.00    -0.345 N 
ATOM     20  C   UNL     1       1.937  -3.594   4.781  0.00  0.00    +0.122 A 
ATOM     21  C   UNL     1      -0.612  -3.661   2.174  0.00  0.00    +0.163 C 
ATOM     22  H   UNL     1       0.818  -3.602   6.485  0.00  0.00    +0.167 HD
BRANCH  20  23
ATOM     23  C   UNL     1       3.324  -3.571   5.293  0.00  0.00    +0.051 A 
ATOM     24  C   UNL     1       4.257  -2.688   4.747  0.00  0.00    +0.017 A 
ATOM     25  C   UNL     1       5.550  -2.671   5.228  0.00  0.00    +0.039 A 
ATOM     26  C   UNL     1       5.924  -3.528   6.251  0.00  0.00    +0.126 A 
ATOM     27  C   UNL     1       5.004  -4.407   6.797  0.00  0.00    +0.077 A 
ATOM     28  C   UNL     1       3.704  -4.430   6.328  0.00  0.00    +0.137 A 
ATOM     29  F   UNL     1       2.805  -5.283   6.865  0.00  0.00    -0.205 F 
ATOM     30  F   UNL     1       7.192  -3.506   6.717  0.00  0.00    -0.205 F 
ENDBRANCH  20  23
ENDBRANCH   2  11
BRANCH   1  32
ATOM     31  C   UNL     1      -0.246   1.647  -0.520  0.00  0.00    +0.279 C 
ATOM     32  O   UNL     1      -0.160   0.234  -0.330  0.00  0.00    -0.479 OA
ENDBRANCH   1  32
BRANCH   5  33
ATOM     33  C   UNL     1      -5.646  -3.391   0.906  0.00  0.00    +0.249 C 
ATOM     34  O   UNL     1      -4.918  -4.363   0.955  0.00  0.00    -0.282 OA
BRANCH  33  35
ATOM     35  C   UNL     1      -7.114  -3.546   1.117  0.00  0.00    +0.287 C 
ATOM     36  O   UNL     1      -7.840  -2.575   1.069  0.00  0.00    -0.266 OA
ATOM     37  N   UNL     1      -7.634  -4.765   1.363  0.00  0.00    -0.292 N 
ATOM     38  C   UNL     1      -6.870  -6.023   1.455  0.00  0.00    +0.111 C 
ATOM     39  C   UNL     1      -7.747  -6.956   2.326  0.00  0.00    +0.052 C 
ATOM     40  C   UNL     1      -9.174  -6.576   1.851  0.00  0.00    +0.133 C 
ATOM     41  C   UNL     1      -9.057  -5.060   1.589  0.00  0.00    +0.139 C 
BRANCH  40  42
ATOM     42  O   UNL     1     -10.135  -6.836   2.877  0.00  0.00    -0.390 OA
ATOM     43  H   UNL     1     -11.043  -6.615   2.630  0.00  0.00    +0.210 HD
ENDBRANCH  40  42
ENDBRANCH  33  35
ENDBRANCH   5  33
TORSDOF 6
