REMARK  Name = CHEMBL481761
REMARK  8 active torsions:
REMARK  status: ('A' for Active; 'I' for Inactive)
REMARK    1  A    between atoms: C_1  and  C_2
REMARK    2  A    between atoms: C_2  and  C_4
REMARK    3  A    between atoms: C_2  and  N_10
REMARK    4  A    between atoms: C_15  and  C_17
REMARK    5  A    between atoms: C_18  and  C_33
REMARK    6  A    between atoms: C_20  and  C_23
REMARK    7  A    between atoms: C_23  and  C_24
REMARK    8  A    between atoms: C_28  and  C_30
REMARK                            x       y       z     vdW  Elec       q    Type
REMARK                         _______ _______ _______ _____ _____    ______ ____
ROOT
ATOM      1  C   UNL     1       4.668  -1.608  -3.587  0.00  0.00    +0.115 A 
ATOM      2  C   UNL     1       4.106  -2.396  -4.576  0.00  0.00    +0.076 A 
ATOM      3  N   UNL     1       5.086  -2.587  -5.518  0.00  0.00    -0.341 N 
ATOM      4  C   UNL     1       6.193  -1.927  -5.090  0.00  0.00    +0.113 A 
ATOM      5  N   UNL     1       5.939  -1.347  -3.952  0.00  0.00    -0.230 NA
ATOM      6  H   UNL     1       5.003  -3.098  -6.338  0.00  0.00    +0.167 HD
ENDROOT
BRANCH   1  12
ATOM      7  N   UNL     1       0.688  -0.476  -1.203  0.00  0.00    -0.307 N 
ATOM      8  C   UNL     1       2.067  -0.590  -1.215  0.00  0.00    +0.216 A 
ATOM      9  N   UNL     1       2.751  -0.272  -0.125  0.00  0.00    -0.223 NA
ATOM     10  C   UNL     1       4.071  -0.367  -0.095  0.00  0.00    +0.116 A 
ATOM     11  C   UNL     1       4.744  -0.805  -1.221  0.00  0.00    +0.050 A 
ATOM     12  C   UNL     1       3.997  -1.134  -2.357  0.00  0.00    +0.096 A 
ATOM     13  N   UNL     1       2.669  -1.018  -2.313  0.00  0.00    -0.213 NA
ATOM     14  H   UNL     1       0.175  -0.710  -1.993  0.00  0.00    +0.149 HD
BRANCH   7  16
ATOM     15  C   UNL     1      -0.019   1.526   0.010  0.00  0.00    +0.033 C 
ATOM     16  C   UNL     1       0.002  -0.004   0.002  0.00  0.00    +0.100 C 
BRANCH  16  17
ATOM     17  C   UNL     1      -1.412  -0.526   0.013  0.00  0.00    -0.027 A 
ATOM     18  C   UNL     1      -2.141  -0.569  -1.161  0.00  0.00    +0.005 A 
ATOM     19  C   UNL     1      -3.438  -1.047  -1.151  0.00  0.00    +0.000 A 
ATOM     20  C   UNL     1      -4.005  -1.483   0.032  0.00  0.00    +0.000 A 
ATOM     21  C   UNL     1      -3.275  -1.441   1.205  0.00  0.00    +0.000 A 
ATOM     22  C   UNL     1      -1.977  -0.966   1.195  0.00  0.00    +0.005 A 
ENDBRANCH  16  17
ENDBRANCH   7  16
ENDBRANCH   1  12
BRANCH   2  23
ATOM     23  C   UNL     1       2.728  -2.925  -4.611  0.00  0.00    +0.001 A 
ATOM     24  C   UNL     1       2.167  -3.495  -3.466  0.00  0.00    +0.013 A 
ATOM     25  C   UNL     1       0.879  -3.988  -3.505  0.00  0.00    +0.039 A 
ATOM     26  C   UNL     1       0.142  -3.918  -4.677  0.00  0.00    +0.123 A 
ATOM     27  C   UNL     1       0.694  -3.354  -5.816  0.00  0.00    +0.039 A 
ATOM     28  C   UNL     1       1.978  -2.852  -5.787  0.00  0.00    +0.013 A 
ATOM     29  F   UNL     1      -1.118  -4.403  -4.709  0.00  0.00    -0.205 F 
ENDBRANCH   2  23
BRANCH   4  30
ATOM     30  C   UNL     1       7.509  -1.871  -5.821  0.00  0.00    +0.109 C 
BRANCH  30  31
ATOM     31  C   UNL     1       7.906  -0.432  -6.032  0.00  0.00    -0.039 A 
ATOM     32  C   UNL     1       7.500   0.236  -7.174  0.00  0.00    +0.004 A 
ATOM     33  C   UNL     1       7.859   1.557  -7.374  0.00  0.00    +0.001 A 
ATOM     34  C   UNL     1       8.625   2.217  -6.436  0.00  0.00    +0.013 A 
ATOM     35  C   UNL     1       9.038   1.549  -5.282  0.00  0.00    +0.037 A 
ATOM     36  C   UNL     1       8.667   0.218  -5.083  0.00  0.00    +0.017 A 
BRANCH  35  37
ATOM     37  C   UNL     1       9.860   2.250  -4.272  0.00  0.00    +0.242 C 
ATOM     38  O   UNL     1      10.218   1.665  -3.268  0.00  0.00    -0.270 OA
ATOM     39  N   UNL     1      10.212   3.536  -4.465  0.00  0.00    -0.325 N 
ATOM     40  H   UNL     1       9.926   4.002  -5.266  0.00  0.00    +0.145 HD
ATOM     41  H   UNL     1      10.751   3.996  -3.803  0.00  0.00    +0.145 HD
ENDBRANCH  35  37
ENDBRANCH  30  31
ENDBRANCH   4  30
TORSDOF 7
