REMARK  Name = CHEMBL95365
REMARK  6 active torsions:
REMARK  status: ('A' for Active; 'I' for Inactive)
REMARK    1  A    between atoms: C_1  and  N_2
REMARK    2  A    between atoms: C_5  and  N_8
REMARK    3  A    between atoms: C_11  and  C_27
REMARK    4  A    between atoms: C_12  and  C_13
REMARK    5  A    between atoms: N_19  and  C_20
REMARK    6  A    between atoms: C_20  and  C_21
REMARK                            x       y       z     vdW  Elec       q    Type
REMARK                         _______ _______ _______ _____ _____    ______ ____
ROOT
ATOM      1  N   UNL     1      -0.682  -4.083   0.926  0.00  0.00    -0.325 N 
ATOM      2  C   UNL     1      -0.113  -4.763  -0.089  0.00  0.00    +0.200 A 
ATOM      3  N   UNL     1      -0.011  -6.024   0.232  0.00  0.00    -0.235 NA
ATOM      4  C   UNL     1      -0.508  -6.216   1.466  0.00  0.00    +0.098 A 
ATOM      5  C   UNL     1      -0.939  -4.986   1.934  0.00  0.00    +0.095 A 
ENDROOT
BRANCH   1  10
ATOM      6  C   UNL     1      -0.958   1.391  -0.408  0.00  0.00    -0.096 C 
ATOM      7  N   UNL     1      -0.732  -0.058  -0.325  0.00  0.00    +0.378 N 
ATOM      8  C   UNL     1      -2.025  -0.752  -0.281  0.00  0.00    -0.077 C 
ATOM      9  C   UNL     1      -1.797  -2.265  -0.275  0.00  0.00    +0.006 C 
ATOM     10  C   UNL     1      -0.969  -2.646   0.955  0.00  0.00    +0.085 C 
ATOM     11  C   UNL     1       0.346  -1.861   0.937  0.00  0.00    +0.006 C 
ATOM     12  C   UNL     1       0.038  -0.363   0.887  0.00  0.00    -0.077 C 
ATOM     13  H   UNL     1      -0.216  -0.364  -1.136  0.00  0.00    -0.082 HD
ENDBRANCH   1  10
BRANCH   5  14
ATOM     14  C   UNL     1      -1.551  -4.702   3.244  0.00  0.00    +0.094 A 
ATOM     15  C   UNL     1      -1.395  -3.446   3.846  0.00  0.00    +0.050 A 
ATOM     16  C   UNL     1      -1.987  -3.226   5.074  0.00  0.00    +0.116 A 
ATOM     17  N   UNL     1      -2.681  -4.202   5.643  0.00  0.00    -0.223 NA
ATOM     18  C   UNL     1      -2.813  -5.381   5.053  0.00  0.00    +0.216 A 
ATOM     19  N   UNL     1      -2.267  -5.634   3.875  0.00  0.00    -0.213 NA
ATOM     20  N   UNL     1      -3.546  -6.371   5.684  0.00  0.00    -0.309 N 
ATOM     21  H   UNL     1      -3.651  -7.239   5.263  0.00  0.00    +0.149 HD
BRANCH  20  22
ATOM     22  C   UNL     1      -4.163  -6.109   6.986  0.00  0.00    +0.139 C 
BRANCH  22  23
ATOM     23  C   UNL     1      -4.898  -7.340   7.451  0.00  0.00    -0.030 A 
ATOM     24  C   UNL     1      -6.226  -7.522   7.111  0.00  0.00    +0.005 A 
ATOM     25  C   UNL     1      -6.900  -8.651   7.537  0.00  0.00    +0.000 A 
ATOM     26  C   UNL     1      -6.246  -9.598   8.303  0.00  0.00    +0.000 A 
ATOM     27  C   UNL     1      -4.918  -9.417   8.641  0.00  0.00    +0.000 A 
ATOM     28  C   UNL     1      -4.243  -8.290   8.212  0.00  0.00    +0.005 A 
ENDBRANCH  22  23
ENDBRANCH  20  22
ENDBRANCH   5  14
BRANCH   4  29
ATOM     29  C   UNL     1      -0.576  -7.505   2.194  0.00  0.00    +0.003 A 
ATOM     30  C   UNL     1      -0.409  -7.537   3.578  0.00  0.00    +0.013 A 
ATOM     31  C   UNL     1      -0.474  -8.739   4.251  0.00  0.00    +0.039 A 
ATOM     32  C   UNL     1      -0.704  -9.914   3.554  0.00  0.00    +0.123 A 
ATOM     33  C   UNL     1      -0.871  -9.888   2.179  0.00  0.00    +0.039 A 
ATOM     34  C   UNL     1      -0.814  -8.690   1.497  0.00  0.00    +0.013 A 
ATOM     35  F   UNL     1      -0.767 -11.089   4.217  0.00  0.00    -0.205 F 
ENDBRANCH   4  29
TORSDOF 5
