REMARK  Name = CHEMBL199679
REMARK  7 active torsions:
REMARK  status: ('A' for Active; 'I' for Inactive)
REMARK    1  A    between atoms: C_1  and  C_2
REMARK    2  A    between atoms: C_2  and  C_3
REMARK    3  A    between atoms: C_2  and  C_4
REMARK    4  A    between atoms: C_2  and  N_5
REMARK    5  A    between atoms: C_8  and  C_11
REMARK    6  A    between atoms: C_13  and  C_30
REMARK    7  A    between atoms: N_19  and  C_22
REMARK                            x       y       z     vdW  Elec       q    Type
REMARK                         _______ _______ _______ _____ _____    ______ ____
ROOT
ATOM      1  C   UNL     1       3.394  -2.343  -3.909  0.00  0.00    -0.042 A 
ATOM      2  C   UNL     1       2.817  -1.932  -5.099  0.00  0.00    +0.013 A 
ATOM      3  C   UNL     1       3.370  -2.312  -6.314  0.00  0.00    -0.006 A 
ATOM      4  C   UNL     1       4.525  -3.122  -6.326  0.00  0.00    +0.007 A 
ATOM      5  C   UNL     1       5.116  -3.529  -7.549  0.00  0.00    +0.016 A 
ATOM      6  C   UNL     1       6.227  -4.307  -7.521  0.00  0.00    +0.071 A 
ATOM      7  C   UNL     1       6.784  -4.706  -6.288  0.00  0.00    +0.256 A 
ATOM      8  O   UNL     1       7.782  -5.406  -6.279  0.00  0.00    -0.267 OA
ATOM      9  N   UNL     1       6.231  -4.325  -5.121  0.00  0.00    -0.274 N 
ATOM     10  C   UNL     1       5.100  -3.533  -5.110  0.00  0.00    +0.058 A 
ATOM     11  C   UNL     1       4.527  -3.131  -3.908  0.00  0.00    +0.030 A 
ENDROOT
BRANCH   9  12
ATOM     12  C   UNL     1       6.805  -4.736  -3.912  0.00  0.00    +0.087 A 
ATOM     13  C   UNL     1       6.405  -5.927  -3.319  0.00  0.00    +0.066 A 
ATOM     14  C   UNL     1       6.974  -6.329  -2.126  0.00  0.00    +0.022 A 
ATOM     15  C   UNL     1       7.942  -5.547  -1.522  0.00  0.00    +0.003 A 
ATOM     16  C   UNL     1       8.343  -4.361  -2.108  0.00  0.00    +0.022 A 
ATOM     17  C   UNL     1       7.782  -3.955  -3.304  0.00  0.00    +0.066 A 
ATOM     18 CL   UNL     1       8.291  -2.470  -4.044  0.00  0.00    -0.081 Cl
ATOM     19 CL   UNL     1       5.190  -6.909  -4.077  0.00  0.00    -0.081 Cl
ENDBRANCH   9  12
BRANCH   3  20
ATOM     20  C   UNL     1       2.753  -1.872  -7.586  0.00  0.00    +0.018 A 
ATOM     21  C   UNL     1       2.735  -0.519  -7.924  0.00  0.00    +0.014 A 
ATOM     22  C   UNL     1       2.159  -0.114  -9.110  0.00  0.00    +0.039 A 
ATOM     23  C   UNL     1       1.599  -1.049  -9.967  0.00  0.00    +0.126 A 
ATOM     24  C   UNL     1       1.613  -2.394  -9.638  0.00  0.00    +0.077 A 
ATOM     25  C   UNL     1       2.192  -2.812  -8.455  0.00  0.00    +0.134 A 
ATOM     26  F   UNL     1       2.212  -4.125  -8.137  0.00  0.00    -0.205 F 
ATOM     27  F   UNL     1       1.036  -0.645 -11.127  0.00  0.00    -0.205 F 
ENDBRANCH   3  20
BRANCH   1  31
ATOM     28  N   UNL     1       0.690  -0.478  -1.207  0.00  0.00    +0.383 N 
ATOM     29  C   UNL     1       0.701  -1.946  -1.218  0.00  0.00    -0.077 C 
ATOM     30  C   UNL     1       1.344  -2.445  -2.514  0.00  0.00    -0.011 C 
ATOM     31  C   UNL     1       2.781  -1.921  -2.599  0.00  0.00    +0.016 C 
ATOM     32  C   UNL     1       2.762  -0.392  -2.511  0.00  0.00    -0.011 C 
ATOM     33  C   UNL     1       2.067   0.031  -1.216  0.00  0.00    -0.077 C 
ATOM     34  H   UNL     1       0.202  -0.141  -2.023  0.00  0.00    -0.081 HD
BRANCH  28  36
ATOM     35  C   UNL     1      -0.019   1.526   0.010  0.00  0.00    -0.010 C 
ATOM     36  C   UNL     1       0.002  -0.004   0.002  0.00  0.00    -0.074 C 
ATOM     37  C   UNL     1       0.742  -0.511   1.242  0.00  0.00    -0.010 C 
ATOM     38  C   UNL     1      -1.433  -0.534   0.013  0.00  0.00    -0.010 C 
ENDBRANCH  28  36
ENDBRANCH   1  31
TORSDOF 4
