REMARK  Name = CHEMBL66600
REMARK  4 active torsions:
REMARK  status: ('A' for Active; 'I' for Inactive)
REMARK    1  A    between atoms: C_8  and  C_10
REMARK    2  A    between atoms: C_11  and  C_26
REMARK    3  A    between atoms: C_13  and  C_16
REMARK    4  A    between atoms: C_18  and  N_24
REMARK                            x       y       z     vdW  Elec       q    Type
REMARK                         _______ _______ _______ _____ _____    ______ ____
ROOT
ATOM      1  C   UNL     1       3.760  -3.351   0.003  0.00  0.00    +0.110 A 
ATOM      2  C   UNL     1       4.973  -3.537   0.655  0.00  0.00    +0.100 A 
ATOM      3  N   UNL     1       5.442  -4.745   0.307  0.00  0.00    -0.227 NA
ATOM      4  C   UNL     1       4.600  -5.324  -0.519  0.00  0.00    +0.145 A 
ATOM      5  N   UNL     1       3.536  -4.493  -0.732  0.00  0.00    -0.335 N 
ATOM      6  H   UNL     1       2.769  -4.674  -1.296  0.00  0.00    +0.167 HD
ENDROOT
BRANCH   4   7
ATOM      7  C   UNL     1       4.774  -6.663  -1.119  0.00  0.00    +0.094 A 
ATOM      8  C   UNL     1       3.816  -7.187  -1.996  0.00  0.00    +0.176 A 
ATOM      9  C   UNL     1       4.017  -8.450  -2.538  0.00  0.00    +0.155 A 
ATOM     10  N   UNL     1       5.096  -9.155  -2.235  0.00  0.00    -0.212 NA
ATOM     11  C   UNL     1       6.025  -8.695  -1.410  0.00  0.00    +0.155 A 
ATOM     12  C   UNL     1       5.903  -7.439  -0.830  0.00  0.00    +0.176 A 
ATOM     13  F   UNL     1       6.858  -6.975   0.005  0.00  0.00    -0.201 F 
ATOM     14  N   UNL     1       7.141  -9.479  -1.125  0.00  0.00    -0.341 N 
ATOM     15  F   UNL     1       2.712  -6.475  -2.310  0.00  0.00    -0.201 F 
ATOM     16  H   UNL     1       7.235 -10.355  -1.530  0.00  0.00    +0.144 HD
ATOM     17  H   UNL     1       7.825  -9.148  -0.522  0.00  0.00    +0.144 HD
BRANCH   9  18
ATOM     18  N   UNL     1       3.071  -8.982  -3.412  0.00  0.00    -0.341 N 
ATOM     19  H   UNL     1       2.278  -8.470  -3.638  0.00  0.00    +0.144 HD
ATOM     20  H   UNL     1       3.205  -9.863  -3.794  0.00  0.00    +0.144 HD
ENDBRANCH   9  18
ENDBRANCH   4   7
BRANCH   1  28
ATOM     21  C   UNL     1      -0.219   1.177   0.410  0.00  0.00    +0.001 A 
ATOM     22  C   UNL     1       0.924   1.942   0.225  0.00  0.00    +0.004 A 
ATOM     23  C   UNL     1       2.157   1.342   0.072  0.00  0.00    +0.047 A 
ATOM     24  C   UNL     1       2.261  -0.042   0.103  0.00  0.00    +0.136 A 
ATOM     25  C   UNL     1       1.099  -0.813   0.291  0.00  0.00    +0.021 A 
ATOM     26  C   UNL     1      -0.140  -0.188   0.444  0.00  0.00    +0.011 A 
ATOM     27  C   UNL     1       1.542  -2.208   0.275  0.00  0.00    +0.060 A 
ATOM     28  C   UNL     1       2.888  -2.173   0.086  0.00  0.00    +0.154 A 
ATOM     29  O   UNL     1       3.301  -0.893  -0.014  0.00  0.00    -0.453 OA
ENDBRANCH   1  28
BRANCH   2  30
ATOM     30  C   UNL     1       5.630  -2.575   1.568  0.00  0.00    +0.005 A 
ATOM     31  C   UNL     1       4.888  -1.859   2.514  0.00  0.00    +0.030 A 
ATOM     32  C   UNL     1       5.540  -0.973   3.345  0.00  0.00    +0.111 A 
ATOM     33  N   UNL     1       6.846  -0.797   3.256  0.00  0.00    -0.263 NA
ATOM     34  C   UNL     1       7.583  -1.452   2.378  0.00  0.00    +0.111 A 
ATOM     35  C   UNL     1       7.012  -2.361   1.513  0.00  0.00    +0.030 A 
ENDBRANCH   2  30
TORSDOF 4
