REMARK  Name = CHEMBL109732
REMARK  10 active torsions:
REMARK  status: ('A' for Active; 'I' for Inactive)
REMARK    1  A    between atoms: C_1  and  C_2
REMARK    2  A    between atoms: C_2  and  C_3
REMARK    3  A    between atoms: C_2  and  N_9
REMARK    4  A    between atoms: C_12  and  C_16
REMARK    5  A    between atoms: C_17  and  C_33
REMARK    6  A    between atoms: C_19  and  S_22
REMARK    7  A    between atoms: S_22  and  C_23
REMARK    8  A    between atoms: C_23  and  C_24
REMARK    9  A    between atoms: C_27  and  S_30
REMARK   10  A    between atoms: S_30  and  C_32
REMARK                            x       y       z     vdW  Elec       q    Type
REMARK                         _______ _______ _______ _____ _____    ______ ____
ROOT
ATOM      1  C   UNL     1       5.006  -0.041   1.073  0.00  0.00    +0.075 A 
ATOM      2  C   UNL     1       6.055  -0.774   1.595  0.00  0.00    +0.098 A 
ATOM      3  N   UNL     1       6.522  -0.112   2.670  0.00  0.00    -0.221 NA
ATOM      4  C   UNL     1       5.827   0.988   2.847  0.00  0.00    +0.168 A 
ATOM      5  N   UNL     1       4.877   1.079   1.876  0.00  0.00    -0.332 N 
ATOM      6  H   UNL     1       4.229   1.793   1.768  0.00  0.00    +0.168 HD
ENDROOT
BRANCH   1  10
ATOM      7  N   UNL     1       0.688  -0.476  -1.203  0.00  0.00    -0.324 N 
ATOM      8  C   UNL     1       2.074  -0.591  -1.215  0.00  0.00    +0.097 A 
ATOM      9  C   UNL     1       2.799  -0.260  -0.080  0.00  0.00    +0.051 A 
ATOM     10  C   UNL     1       4.193  -0.380  -0.109  0.00  0.00    +0.005 A 
ATOM     11  C   UNL     1       4.795  -0.833  -1.294  0.00  0.00    +0.027 A 
ATOM     12  C   UNL     1       4.001  -1.139  -2.375  0.00  0.00    +0.085 A 
ATOM     13  N   UNL     1       2.687  -1.019  -2.310  0.00  0.00    -0.350 N 
ATOM     14  H   UNL     1       0.175  -0.710  -1.993  0.00  0.00    +0.148 HD
ATOM     15  H   UNL     1       2.154  -1.246  -3.088  0.00  0.00    +0.166 HD
BRANCH   7  17
ATOM     16  C   UNL     1      -0.019   1.526   0.010  0.00  0.00    +0.033 C 
ATOM     17  C   UNL     1       0.002  -0.004   0.002  0.00  0.00    +0.099 C 
BRANCH  17  18
ATOM     18  C   UNL     1      -1.412  -0.526   0.013  0.00  0.00    -0.028 A 
ATOM     19  C   UNL     1      -2.141  -0.569  -1.161  0.00  0.00    +0.005 A 
ATOM     20  C   UNL     1      -3.438  -1.047  -1.151  0.00  0.00    +0.000 A 
ATOM     21  C   UNL     1      -4.005  -1.483   0.032  0.00  0.00    +0.000 A 
ATOM     22  C   UNL     1      -3.275  -1.441   1.205  0.00  0.00    +0.000 A 
ATOM     23  C   UNL     1      -1.977  -0.966   1.195  0.00  0.00    +0.005 A 
ENDBRANCH  17  18
ENDBRANCH   7  17
ENDBRANCH   1  10
BRANCH   2  24
ATOM     24  C   UNL     1       6.572  -2.058   1.067  0.00  0.00    +0.003 A 
ATOM     25  C   UNL     1       5.697  -2.983   0.498  0.00  0.00    +0.013 A 
ATOM     26  C   UNL     1       6.184  -4.177   0.007  0.00  0.00    +0.039 A 
ATOM     27  C   UNL     1       7.539  -4.459   0.081  0.00  0.00    +0.123 A 
ATOM     28  C   UNL     1       8.412  -3.543   0.646  0.00  0.00    +0.039 A 
ATOM     29  C   UNL     1       7.936  -2.343   1.133  0.00  0.00    +0.013 A 
ATOM     30  F   UNL     1       8.010  -5.630  -0.401  0.00  0.00    -0.205 F 
ENDBRANCH   2  24
BRANCH   4  31
ATOM     31  S   UNL     1       6.087   2.164   4.133  0.00  0.00    -0.083 S 
BRANCH  31  32
ATOM     32  C   UNL     1       7.479   1.483   5.075  0.00  0.00    +0.112 C 
BRANCH  32  33
ATOM     33  C   UNL     1       7.809   2.404   6.221  0.00  0.00    -0.037 A 
ATOM     34  C   UNL     1       8.721   3.427   6.045  0.00  0.00    +0.005 A 
ATOM     35  C   UNL     1       9.024   4.272   7.096  0.00  0.00    +0.017 A 
ATOM     36  C   UNL     1       8.413   4.095   8.323  0.00  0.00    +0.039 A 
ATOM     37  C   UNL     1       7.500   3.072   8.500  0.00  0.00    +0.017 A 
ATOM     38  C   UNL     1       7.194   2.230   7.447  0.00  0.00    +0.005 A 
BRANCH  36  39
ATOM     39  S   UNL     1       8.799   5.172   9.664  0.00  0.00    +0.051 S 
ATOM     40  O   UNL     1       8.501   4.402  10.820  0.00  0.00    -0.252 OA
ATOM     41  C   UNL     1       7.594   6.519   9.506  0.00  0.00    +0.127 C 
ENDBRANCH  36  39
ENDBRANCH  32  33
ENDBRANCH  31  32
ENDBRANCH   4  31
TORSDOF 8
