REMARK  Name = CHEMBL318934
REMARK  6 active torsions:
REMARK  status: ('A' for Active; 'I' for Inactive)
REMARK    1  A    between atoms: C_1  and  C_2
REMARK    2  A    between atoms: C_2  and  C_3
REMARK    3  A    between atoms: C_2  and  N_6
REMARK    4  A    between atoms: C_9  and  C_12
REMARK    5  A    between atoms: C_14  and  C_31
REMARK    6  A    between atoms: N_18  and  C_23
REMARK                            x       y       z     vdW  Elec       q    Type
REMARK                         _______ _______ _______ _____ _____    ______ ____
ROOT
ATOM      1  C   UNL     1       1.635  -2.356  -4.905  0.00  0.00    -0.042 A 
ATOM      2  C   UNL     1       2.950  -1.950  -5.018  0.00  0.00    +0.013 A 
ATOM      3  C   UNL     1       3.705  -2.338  -6.126  0.00  0.00    -0.010 A 
ATOM      4  C   UNL     1       3.123  -3.130  -7.104  0.00  0.00    -0.001 A 
ATOM      5  C   UNL     1       1.800  -3.537  -6.989  0.00  0.00    +0.048 A 
ATOM      6  C   UNL     1       1.060  -3.150  -5.879  0.00  0.00    +0.028 A 
ATOM      7  N   UNL     1       1.229  -4.334  -7.983  0.00  0.00    -0.221 N 
ATOM      8  C   UNL     1       1.901  -4.738  -9.069  0.00  0.00    +0.311 C 
ATOM      9  O   UNL     1       1.323  -5.431  -9.884  0.00  0.00    -0.252 OA
ATOM     10  N   UNL     1       3.186  -4.413  -9.299  0.00  0.00    -0.295 N 
ATOM     11  C   UNL     1       3.901  -3.575  -8.321  0.00  0.00    +0.143 C 
ATOM     12  H   UNL     1       3.637  -4.727 -10.099  0.00  0.00    +0.151 HD
ENDROOT
BRANCH   7  13
ATOM     13  C   UNL     1      -0.108  -4.729  -7.839  0.00  0.00    +0.079 A 
ATOM     14  C   UNL     1      -0.417  -5.909  -7.175  0.00  0.00    +0.064 A 
ATOM     15  C   UNL     1      -1.737  -6.296  -7.034  0.00  0.00    +0.022 A 
ATOM     16  C   UNL     1      -2.749  -5.508  -7.552  0.00  0.00    +0.003 A 
ATOM     17  C   UNL     1      -2.444  -4.333  -8.214  0.00  0.00    +0.022 A 
ATOM     18  C   UNL     1      -1.127  -3.938  -8.354  0.00  0.00    +0.064 A 
ATOM     19 CL   UNL     1      -0.747  -2.458  -9.178  0.00  0.00    -0.082 Cl
ATOM     20 CL   UNL     1       0.852  -6.899  -6.524  0.00  0.00    -0.082 Cl
ENDBRANCH   7  13
BRANCH   3  21
ATOM     21  C   UNL     1       5.118  -1.907  -6.256  0.00  0.00    +0.001 A 
ATOM     22  C   UNL     1       6.072  -2.354  -5.345  0.00  0.00    +0.013 A 
ATOM     23  C   UNL     1       7.386  -1.950  -5.469  0.00  0.00    +0.039 A 
ATOM     24  C   UNL     1       7.757  -1.101  -6.499  0.00  0.00    +0.125 A 
ATOM     25  C   UNL     1       6.813  -0.653  -7.408  0.00  0.00    +0.059 A 
ATOM     26  C   UNL     1       5.497  -1.057  -7.295  0.00  0.00    +0.051 A 
ATOM     27 CL   UNL     1       4.316  -0.501  -8.439  0.00  0.00    -0.083 Cl
ATOM     28  F   UNL     1       9.045  -0.708  -6.617  0.00  0.00    -0.205 F 
ENDBRANCH   3  21
BRANCH   1  32
ATOM     29  N   UNL     1       0.690  -0.478  -1.207  0.00  0.00    +0.382 N 
ATOM     30  C   UNL     1      -0.016   0.017  -2.395  0.00  0.00    -0.078 C 
ATOM     31  C   UNL     1       0.741  -0.406  -3.655  0.00  0.00    -0.011 C 
ATOM     32  C   UNL     1       0.823  -1.934  -3.707  0.00  0.00    +0.016 C 
ATOM     33  C   UNL     1       1.494  -2.444  -2.428  0.00  0.00    -0.011 C 
ATOM     34  C   UNL     1       0.709  -1.946  -1.213  0.00  0.00    -0.078 C 
ATOM     35  H   UNL     1       1.637  -0.130  -1.212  0.00  0.00    -0.081 HD
BRANCH  29  37
ATOM     36  C   UNL     1      -0.019   1.526   0.010  0.00  0.00    -0.013 C 
ATOM     37  C   UNL     1       0.002  -0.004   0.002  0.00  0.00    -0.069 C 
BRANCH  37  38
ATOM     38  C   UNL     1       0.742  -0.511   1.242  0.00  0.00    -0.025 C 
ATOM     39  C   UNL     1       0.038  -1.559   2.105  0.00  0.00    +0.002 C 
ATOM     40  C   UNL     1       0.178  -0.122   2.610  0.00  0.00    +0.002 C 
ENDBRANCH  37  38
ENDBRANCH  29  37
ENDBRANCH   1  32
TORSDOF 5
