REMARK  Name = CHEMBL93282
REMARK  5 active torsions:
REMARK  status: ('A' for Active; 'I' for Inactive)
REMARK    1  A    between atoms: C_1  and  C_2
REMARK    2  A    between atoms: C_2  and  C_4
REMARK    3  A    between atoms: C_2  and  N_10
REMARK    4  A    between atoms: C_15  and  C_17
REMARK    5  A    between atoms: C_18  and  C_27
REMARK                            x       y       z     vdW  Elec       q    Type
REMARK                         _______ _______ _______ _____ _____    ______ ____
ROOT
ATOM      1  C   UNL     1      -5.348  -1.925  -2.275  0.00  0.00    +0.097 A 
ATOM      2  C   UNL     1      -6.250  -1.857  -3.320  0.00  0.00    +0.075 A 
ATOM      3  C   UNL     1      -7.561  -2.238  -2.774  0.00  0.00    +0.276 A 
ATOM      4  O   UNL     1      -8.616  -2.272  -3.381  0.00  0.00    -0.266 OA
ATOM      5  N   UNL     1      -7.375  -2.541  -1.479  0.00  0.00    -0.249 N 
ATOM      6  N   UNL     1      -6.028  -2.311  -1.150  0.00  0.00    -0.279 N 
ATOM      7  C   UNL     1      -5.484  -2.451   0.208  0.00  0.00    +0.142 C 
ATOM      8  C   UNL     1      -6.436  -3.339   1.019  0.00  0.00    +0.025 C 
ATOM      9  C   UNL     1      -7.864  -2.801   0.890  0.00  0.00    +0.025 C 
ATOM     10  C   UNL     1      -8.376  -3.047  -0.531  0.00  0.00    +0.145 C 
ENDROOT
BRANCH   1  16
ATOM     11  N   UNL     1      -1.111  -1.310  -0.162  0.00  0.00    -0.307 N 
ATOM     12  C   UNL     1      -1.858  -1.341  -1.327  0.00  0.00    +0.216 A 
ATOM     13  N   UNL     1      -1.256  -1.113  -2.486  0.00  0.00    -0.223 NA
ATOM     14  C   UNL     1      -1.933  -1.135  -3.622  0.00  0.00    +0.116 A 
ATOM     15  C   UNL     1      -3.293  -1.401  -3.595  0.00  0.00    +0.050 A 
ATOM     16  C   UNL     1      -3.900  -1.637  -2.358  0.00  0.00    +0.095 A 
ATOM     17  N   UNL     1      -3.152  -1.604  -1.255  0.00  0.00    -0.213 NA
ATOM     18  H   UNL     1      -1.538  -1.478   0.693  0.00  0.00    +0.149 HD
BRANCH  11  20
ATOM     19  C   UNL     1       0.540   0.494  -0.225  0.00  0.00    +0.033 C 
ATOM     20  C   UNL     1       0.324  -1.021  -0.220  0.00  0.00    +0.100 C 
BRANCH  20  21
ATOM     21  C   UNL     1       1.006  -1.621   0.983  0.00  0.00    -0.027 A 
ATOM     22  C   UNL     1       0.394  -1.569   2.222  0.00  0.00    +0.005 A 
ATOM     23  C   UNL     1       1.020  -2.119   3.325  0.00  0.00    +0.000 A 
ATOM     24  C   UNL     1       2.257  -2.721   3.190  0.00  0.00    +0.000 A 
ATOM     25  C   UNL     1       2.868  -2.774   1.951  0.00  0.00    +0.000 A 
ATOM     26  C   UNL     1       2.240  -2.228   0.847  0.00  0.00    +0.005 A 
ENDBRANCH  20  21
ENDBRANCH  11  20
ENDBRANCH   1  16
BRANCH   2  27
ATOM     27  C   UNL     1      -5.955  -1.474  -4.719  0.00  0.00    -0.010 A 
ATOM     28  C   UNL     1      -5.612  -0.157  -5.027  0.00  0.00    +0.011 A 
ATOM     29  C   UNL     1      -5.337   0.194  -6.332  0.00  0.00    +0.039 A 
ATOM     30  C   UNL     1      -5.401  -0.758  -7.337  0.00  0.00    +0.123 A 
ATOM     31  C   UNL     1      -5.740  -2.068  -7.037  0.00  0.00    +0.039 A 
ATOM     32  C   UNL     1      -6.011  -2.431  -5.734  0.00  0.00    +0.011 A 
ATOM     33  F   UNL     1      -5.132  -0.409  -8.614  0.00  0.00    -0.205 F 
ENDBRANCH   2  27
TORSDOF 4
