REMARK  Name = CHEMBL525727
REMARK  5 active torsions:
REMARK  status: ('A' for Active; 'I' for Inactive)
REMARK    1  A    between atoms: C_1  and  C_2
REMARK    2  A    between atoms: C_5  and  C_25
REMARK    3  A    between atoms: C_7  and  C_8
REMARK    4  A    between atoms: C_15  and  C_20
REMARK    5  A    between atoms: N_27  and  C_28
REMARK                            x       y       z     vdW  Elec       q    Type
REMARK                         _______ _______ _______ _____ _____    ______ ____
ROOT
ATOM      1  C   UNL     1       0.025   0.029   2.495  0.00  0.00    -0.016 A 
ATOM      2  C   UNL     1       0.941   1.069   2.700  0.00  0.00    +0.009 A 
ATOM      3  C   UNL     1       0.959   1.757   3.878  0.00  0.00    +0.016 A 
ATOM      4  C   UNL     1       0.058   1.425   4.891  0.00  0.00    +0.065 A 
ATOM      5  C   UNL     1      -0.874   0.378   4.699  0.00  0.00    +0.079 A 
ATOM      6  C   UNL     1      -0.884  -0.315   3.486  0.00  0.00    +0.037 A 
ATOM      7  N   UNL     1      -1.735   0.073   5.688  0.00  0.00    -0.228 NA
ATOM      8  C   UNL     1      -1.733   0.724   6.828  0.00  0.00    +0.148 A 
ATOM      9  N   UNL     1      -0.866   1.752   7.098  0.00  0.00    -0.306 N 
ATOM     10  H   UNL     1      -0.904   2.202   7.956  0.00  0.00    +0.170 HD
ATOM     11  C   UNL     1       0.043   2.141   6.174  0.00  0.00    +0.259 A 
ATOM     12  O   UNL     1       0.820   3.051   6.398  0.00  0.00    -0.267 OA
ENDROOT
BRANCH   1  19
ATOM     13  C   UNL     1      -0.018   1.503   0.010  0.00  0.00    +0.044 C 
ATOM     14  C   UNL     1       0.002  -0.004   0.002  0.00  0.00    -0.043 A 
ATOM     15  C   UNL     1       0.006  -0.686  -1.199  0.00  0.00    +0.005 A 
ATOM     16  C   UNL     1       0.025  -2.067  -1.216  0.00  0.00    +0.013 A 
ATOM     17  C   UNL     1       0.040  -2.781  -0.016  0.00  0.00    +0.037 A 
ATOM     18  C   UNL     1       0.037  -2.097   1.199  0.00  0.00    +0.021 A 
ATOM     19  C   UNL     1       0.023  -0.706   1.207  0.00  0.00    -0.014 A 
BRANCH  17  20
ATOM     20  C   UNL     1       0.060  -4.260  -0.034  0.00  0.00    +0.244 C 
ATOM     21  O   UNL     1       0.073  -4.880   1.012  0.00  0.00    -0.270 OA
ATOM     22  N   UNL     1       0.063  -4.919  -1.209  0.00  0.00    -0.308 N 
ATOM     23  H   UNL     1       0.052  -4.424  -2.043  0.00  0.00    +0.149 HD
BRANCH  22  24
ATOM     24  C   UNL     1       0.082  -6.384  -1.227  0.00  0.00    +0.073 C 
ATOM     25  C   UNL     1       1.023  -7.066  -2.222  0.00  0.00    +0.024 C 
ATOM     26  C   UNL     1      -0.488  -7.083  -2.462  0.00  0.00    +0.024 C 
ENDBRANCH  22  24
ENDBRANCH  17  20
ENDBRANCH   1  19
BRANCH   8  27
ATOM     27  C   UNL     1      -2.702   0.336   7.860  0.00  0.00    +0.054 A 
ATOM     28  C   UNL     1      -3.663  -0.662   7.824  0.00  0.00    +0.019 A 
ATOM     29  C   UNL     1      -4.433  -0.790   8.957  0.00  0.00    +0.008 A 
ATOM     30  C   UNL     1      -4.209   0.041  10.002  0.00  0.00    +0.046 A 
ATOM     31  S   UNL     1      -2.943   1.018   9.488  0.00  0.00    -0.094 S 
ENDBRANCH   8  27
TORSDOF 4
