REMARK  Name = CHEMBL1092012
REMARK  5 active torsions:
REMARK  status: ('A' for Active; 'I' for Inactive)
REMARK    1  A    between atoms: C_1  and  C_2
REMARK    2  A    between atoms: C_5  and  C_27
REMARK    3  A    between atoms: C_7  and  C_8
REMARK    4  A    between atoms: N_13  and  C_19
REMARK    5  A    between atoms: N_15  and  C_18
REMARK                            x       y       z     vdW  Elec       q    Type
REMARK                         _______ _______ _______ _____ _____    ______ ____
ROOT
ATOM      1  C   UNL     1       0.987  -1.169   3.668  0.00  0.00    +0.048 A 
ATOM      2  C   UNL     1       1.616   0.046   3.485  0.00  0.00    +0.027 A 
ATOM      3  C   UNL     1       1.183   1.159   4.237  0.00  0.00    +0.038 A 
ATOM      4  C   UNL     1       1.598   2.512   4.294  0.00  0.00    +0.145 A 
ATOM      5  N   UNL     1       0.857   3.130   5.170  0.00  0.00    -0.172 NA
ATOM      6  N   UNL     1      -0.064   2.230   5.720  0.00  0.00    -0.210 N 
ATOM      7  C   UNL     1       0.133   1.013   5.148  0.00  0.00    +0.147 A 
ATOM      8  N   UNL     1      -0.474  -0.203   5.311  0.00  0.00    -0.295 N 
ATOM      9  C   UNL     1      -0.078  -1.273   4.597  0.00  0.00    +0.260 A 
ATOM     10  O   UNL     1      -0.638  -2.345   4.756  0.00  0.00    -0.267 OA
ATOM     11  C   UNL     1      -1.573  -0.340   6.270  0.00  0.00    +0.154 C 
ENDROOT
BRANCH   6  12
ATOM     12  C   UNL     1      -1.025   2.534   6.695  0.00  0.00    +0.138 A 
ATOM     13  C   UNL     1      -0.679   2.527   8.041  0.00  0.00    +0.152 A 
ATOM     14  C   UNL     1      -1.630   2.826   9.000  0.00  0.00    +0.041 A 
ATOM     15  C   UNL     1      -2.924   3.131   8.621  0.00  0.00    +0.006 A 
ATOM     16  C   UNL     1      -3.273   3.139   7.283  0.00  0.00    +0.041 A 
ATOM     17  C   UNL     1      -2.326   2.847   6.318  0.00  0.00    +0.152 A 
ATOM     18  F   UNL     1      -2.666   2.860   5.011  0.00  0.00    -0.203 F 
ATOM     19  F   UNL     1       0.585   2.228   8.412  0.00  0.00    -0.203 F 
ENDBRANCH   6  12
BRANCH   1  26
ATOM     20  C   UNL     1       0.275  -1.386   0.876  0.00  0.00    +0.044 C 
ATOM     21  C   UNL     1       1.080  -2.470   1.544  0.00  0.00    -0.043 A 
ATOM     22  C   UNL     1       1.486  -3.573   0.818  0.00  0.00    +0.005 A 
ATOM     23  C   UNL     1       2.224  -4.571   1.421  0.00  0.00    +0.013 A 
ATOM     24  C   UNL     1       2.564  -4.472   2.772  0.00  0.00    +0.038 A 
ATOM     25  C   UNL     1       2.157  -3.361   3.510  0.00  0.00    +0.022 A 
ATOM     26  C   UNL     1       1.419  -2.356   2.892  0.00  0.00    -0.009 A 
BRANCH  24  27
ATOM     27  C   UNL     1       3.354  -5.541   3.419  0.00  0.00    +0.249 C 
ATOM     28  O   UNL     1       3.649  -5.453   4.594  0.00  0.00    -0.270 OA
ATOM     29  N   UNL     1       3.746  -6.615   2.704  0.00  0.00    -0.264 N 
ATOM     30  C   UNL     1       4.491  -7.624   3.313  0.00  0.00    +0.168 A 
ATOM     31  C   UNL     1       4.898  -7.655   4.666  0.00  0.00    +0.088 A 
ATOM     32  C   UNL     1       5.594  -8.788   4.866  0.00  0.00    +0.232 A 
ATOM     33  O   UNL     1       5.639  -9.462   3.706  0.00  0.00    -0.361 OA
ATOM     34  N   UNL     1       4.931  -8.712   2.736  0.00  0.00    -0.063 NA
ATOM     35  H   UNL     1       3.510  -6.685   1.766  0.00  0.00    +0.157 HD
ENDBRANCH  24  27
ENDBRANCH   1  26
TORSDOF 3
