REMARK  Name = CHEMBL1209837
REMARK  12 active torsions:
REMARK  status: ('A' for Active; 'I' for Inactive)
REMARK    1  A    between atoms: C_1  and  C_2
REMARK    2  A    between atoms: C_2  and  C_3
REMARK    3  A    between atoms: C_2  and  C_4
REMARK    4  A    between atoms: C_2  and  C_5
REMARK    5  A    between atoms: C_7  and  C_35
REMARK    6  A    between atoms: C_9  and  N_11
REMARK    7  A    between atoms: C_12  and  C_14
REMARK    8  A    between atoms: C_14  and  C_16
REMARK    9  A    between atoms: C_19  and  O_26
REMARK   10  A    between atoms: O_26  and  C_27
REMARK   11  A    between atoms: C_27  and  C_28
REMARK   12  A    between atoms: C_28  and  N_29
REMARK                            x       y       z     vdW  Elec       q    Type
REMARK                         _______ _______ _______ _____ _____    ______ ____
ROOT
ATOM      1  C   UNL     1       6.571  -1.359  -5.165  0.00  0.00    +0.035 A 
ATOM      2  C   UNL     1       5.950  -2.033  -6.220  0.00  0.00    +0.016 A 
ATOM      3  C   UNL     1       6.667  -2.392  -7.344  0.00  0.00    +0.047 A 
ATOM      4  C   UNL     1       8.013  -2.102  -7.469  0.00  0.00    +0.128 A 
ATOM      5  C   UNL     1       8.699  -1.423  -6.438  0.00  0.00    +0.024 A 
ATOM      6  C   UNL     1       7.995  -1.034  -5.274  0.00  0.00    -0.003 A 
ATOM      7  C   UNL     1       8.668  -0.357  -4.253  0.00  0.00    +0.009 A 
ATOM      8  C   UNL     1       9.996  -0.073  -4.393  0.00  0.00    +0.001 A 
ATOM      9  C   UNL     1      10.689  -0.448  -5.539  0.00  0.00    +0.001 A 
ATOM     10  C   UNL     1      10.065  -1.122  -6.547  0.00  0.00    +0.012 A 
ENDROOT
BRANCH   1  11
ATOM     11  C   UNL     1       5.809  -0.980  -3.973  0.00  0.00    +0.248 C 
ATOM     12  O   UNL     1       6.381  -0.496  -3.015  0.00  0.00    -0.282 OA
BRANCH  11  14
ATOM     13  N   UNL     1       3.619  -0.743  -2.882  0.00  0.00    -0.279 N 
ATOM     14  C   UNL     1       4.334  -1.187  -3.934  0.00  0.00    +0.289 C 
ATOM     15  O   UNL     1       3.776  -1.755  -4.851  0.00  0.00    -0.266 OA
ATOM     16  H   UNL     1       4.052  -0.227  -2.184  0.00  0.00    +0.155 HD
BRANCH  13  21
ATOM     17  C   UNL     1       0.319  -1.546  -1.466  0.00  0.00    -0.039 A 
ATOM     18  C   UNL     1      -0.459  -1.591  -2.605  0.00  0.00    +0.023 A 
ATOM     19  C   UNL     1       0.117  -1.351  -3.854  0.00  0.00    +0.054 A 
ATOM     20  C   UNL     1       1.480  -1.068  -3.946  0.00  0.00    +0.042 A 
ATOM     21  C   UNL     1       2.253  -1.026  -2.796  0.00  0.00    +0.035 A 
ATOM     22  C   UNL     1       1.668  -1.260  -1.556  0.00  0.00    +0.027 A 
BRANCH  17  24
ATOM     23  C   UNL     1      -0.127  -0.573   0.771  0.00  0.00    +0.015 C 
ATOM     24  C   UNL     1      -0.305  -1.805  -0.119  0.00  0.00    -0.013 C 
ATOM     25  C   UNL     1       0.374  -3.009   0.535  0.00  0.00    +0.015 C 
ATOM     26  C   UNL     1      -1.797  -2.094  -0.296  0.00  0.00    +0.015 C 
ENDBRANCH  17  24
BRANCH  19  27
ATOM     27  C   UNL     1      -0.689  -1.397  -5.037  0.00  0.00    +0.099 C 
ATOM     28  N   UNL     1      -1.327  -1.433  -5.976  0.00  0.00    -0.191 NA
ENDBRANCH  19  27
ENDBRANCH  13  21
ENDBRANCH  11  14
ENDBRANCH   1  11
BRANCH   4  29
ATOM     29  O   UNL     1       8.679  -2.472  -8.588  0.00  0.00    -0.493 OA
BRANCH  29  30
ATOM     30  C   UNL     1       7.928  -3.156  -9.594  0.00  0.00    +0.210 C 
BRANCH  30  31
ATOM     31  C   UNL     1       8.843  -3.491 -10.774  0.00  0.00    -0.037 C 
BRANCH  31  32
ATOM     32  N   UNL     1       9.869  -4.450 -10.342  0.00  0.00    +0.385 N 
ATOM     33  C   UNL     1      10.830  -4.663 -11.432  0.00  0.00    -0.050 C 
ATOM     34  C   UNL     1      11.898  -5.662 -10.979  0.00  0.00    +0.141 C 
ATOM     35  O   UNL     1      11.266  -6.884 -10.590  0.00  0.00    -0.383 OA
ATOM     36  C   UNL     1      10.302  -6.724  -9.545  0.00  0.00    +0.141 C 
ATOM     37  C   UNL     1       9.231  -5.727  -9.995  0.00  0.00    -0.050 C 
ATOM     38  H   UNL     1      10.351  -4.085  -9.534  0.00  0.00    -0.081 HD
ENDBRANCH  31  32
ENDBRANCH  30  31
ENDBRANCH  29  30
ENDBRANCH   4  29
TORSDOF 9
