REMARK  Name = CHEMBL129748
REMARK  8 active torsions:
REMARK  status: ('A' for Active; 'I' for Inactive)
REMARK    1  A    between atoms: C_4  and  C_7
REMARK    2  A    between atoms: C_7  and  N_8
REMARK    3  A    between atoms: N_8  and  C_9
REMARK    4  A    between atoms: C_9  and  C_10
REMARK    5  A    between atoms: C_10  and  C_11
REMARK    6  A    between atoms: C_11  and  N_12
REMARK    7  A    between atoms: C_15  and  C_23
REMARK    8  A    between atoms: C_16  and  C_17
REMARK                            x       y       z     vdW  Elec       q    Type
REMARK                         _______ _______ _______ _____ _____    ______ ____
ROOT
ATOM      1  N   UNL     1       7.636  -2.725   4.166  0.00  0.00    -0.331 N 
ATOM      2  C   UNL     1       8.421  -1.872   4.857  0.00  0.00    +0.174 A 
ATOM      3  N   UNL     1       8.794  -2.430   5.975  0.00  0.00    -0.345 N 
ATOM      4  C   UNL     1       8.269  -3.666   6.059  0.00  0.00    +0.072 A 
ATOM      5  C   UNL     1       7.520  -3.874   4.915  0.00  0.00    +0.074 A 
ATOM      6  H   UNL     1       9.363  -2.017   6.643  0.00  0.00    +0.167 HD
ENDROOT
BRANCH   4   7
ATOM      7  C   UNL     1       8.456  -4.625   7.173  0.00  0.00    +0.001 A 
ATOM      8  C   UNL     1       8.780  -5.954   6.904  0.00  0.00    +0.013 A 
ATOM      9  C   UNL     1       8.953  -6.843   7.945  0.00  0.00    +0.039 A 
ATOM     10  C   UNL     1       8.804  -6.417   9.255  0.00  0.00    +0.123 A 
ATOM     11  C   UNL     1       8.481  -5.097   9.527  0.00  0.00    +0.039 A 
ATOM     12  C   UNL     1       8.312  -4.199   8.493  0.00  0.00    +0.013 A 
ATOM     13  F   UNL     1       8.973  -7.292  10.271  0.00  0.00    -0.205 F 
ENDBRANCH   4   7
BRANCH   5  14
ATOM     14  C   UNL     1       6.753  -5.086   4.566  0.00  0.00    +0.003 A 
ATOM     15  C   UNL     1       5.792  -5.608   5.442  0.00  0.00    +0.030 A 
ATOM     16  C   UNL     1       5.100  -6.742   5.075  0.00  0.00    +0.111 A 
ATOM     17  N   UNL     1       5.332  -7.334   3.918  0.00  0.00    -0.263 NA
ATOM     18  C   UNL     1       6.227  -6.876   3.064  0.00  0.00    +0.111 A 
ATOM     19  C   UNL     1       6.962  -5.744   3.346  0.00  0.00    +0.030 A 
ENDBRANCH   5  14
BRANCH   1  20
ATOM     20  C   UNL     1       7.016  -2.472   2.862  0.00  0.00    +0.121 C 
BRANCH  20  21
ATOM     21  C   UNL     1       5.561  -2.045   3.064  0.00  0.00    +0.003 C 
BRANCH  21  22
ATOM     22  C   UNL     1       4.949  -1.666   1.714  0.00  0.00    -0.080 C 
BRANCH  22  23
ATOM     23  N   UNL     1       3.552  -1.255   1.907  0.00  0.00    +0.382 N 
ATOM     24  H   UNL     1       3.518  -0.460   2.527  0.00  0.00    -0.085 HD
ATOM     25  H   UNL     1       3.030  -2.018   2.310  0.00  0.00    -0.085 HD
BRANCH  23  26
ATOM     26  C   UNL     1       2.965  -0.891   0.611  0.00  0.00    -0.047 C 
BRANCH  26  30
ATOM     27  C   UNL     1      -1.098   0.303   1.171  0.00  0.00    +0.000 A 
ATOM     28  C   UNL     1      -0.086   1.242   1.238  0.00  0.00    +0.000 A 
ATOM     29  C   UNL     1       1.229   0.856   1.057  0.00  0.00    +0.002 A 
ATOM     30  C   UNL     1       1.532  -0.470   0.809  0.00  0.00    -0.064 A 
ATOM     31  C   UNL     1       0.519  -1.409   0.742  0.00  0.00    +0.002 A 
ATOM     32  C   UNL     1      -0.795  -1.023   0.922  0.00  0.00    +0.000 A 
ENDBRANCH  26  30
ENDBRANCH  23  26
ENDBRANCH  22  23
ENDBRANCH  21  22
ENDBRANCH  20  21
ENDBRANCH   1  20
TORSDOF 8
