REMARK  Name = CHEMBL196576
REMARK  7 active torsions:
REMARK  status: ('A' for Active; 'I' for Inactive)
REMARK    1  A    between atoms: C_1  and  C_2
REMARK    2  A    between atoms: C_2  and  C_3
REMARK    3  A    between atoms: C_5  and  C_22
REMARK    4  A    between atoms: C_6  and  C_8
REMARK    5  A    between atoms: N_14  and  C_15
REMARK    6  A    between atoms: C_15  and  C_16
REMARK    7  A    between atoms: C_26  and  C_28
REMARK                            x       y       z     vdW  Elec       q    Type
REMARK                         _______ _______ _______ _____ _____    ______ ____
ROOT
ATOM      1  C   UNL     1       3.345  -2.122   3.908  0.00  0.00    -0.005 A 
ATOM      2  C   UNL     1       3.101  -3.323   4.590  0.00  0.00    +0.029 A 
ATOM      3  C   UNL     1       4.103  -3.873   5.359  0.00  0.00    +0.113 A 
ATOM      4  N   UNL     1       5.282  -3.287   5.461  0.00  0.00    -0.240 NA
ATOM      5  C   UNL     1       5.558  -2.152   4.835  0.00  0.00    +0.120 A 
ATOM      6  C   UNL     1       4.607  -1.534   4.035  0.00  0.00    +0.052 A 
ATOM      7  N   UNL     1       6.816  -1.577   4.977  0.00  0.00    -0.325 N 
ATOM      8  H   UNL     1       7.486  -2.006   5.532  0.00  0.00    +0.148 HD
ENDROOT
BRANCH   1  12
ATOM      9  C   UNL     1       0.799  -0.354   1.255  0.00  0.00    +0.079 A 
ATOM     10  N   UNL     1       0.259  -0.668   2.404  0.00  0.00    -0.243 NA
ATOM     11  C   UNL     1       0.960  -1.248   3.365  0.00  0.00    +0.086 A 
ATOM     12  C   UNL     1       2.299  -1.498   3.074  0.00  0.00    +0.047 A 
ATOM     13  S   UNL     1       2.396  -0.862   1.408  0.00  0.00    -0.071 S 
BRANCH  11  14
ATOM     14  C   UNL     1       0.358  -1.607   4.670  0.00  0.00    +0.002 A 
ATOM     15  C   UNL     1       1.055  -1.364   5.853  0.00  0.00    +0.010 A 
ATOM     16  C   UNL     1       0.489  -1.701   7.065  0.00  0.00    +0.001 A 
ATOM     17  C   UNL     1      -0.768  -2.279   7.109  0.00  0.00    +0.003 A 
ATOM     18  C   UNL     1      -1.464  -2.523   5.938  0.00  0.00    -0.050 A 
ATOM     19  C   UNL     1      -0.911  -2.184   4.720  0.00  0.00    +0.013 A 
ATOM     20  C   UNL     1      -2.831  -3.153   5.994  0.00  0.00    +0.044 C 
ENDBRANCH  11  14
BRANCH   9  22
ATOM     21  C   UNL     1       0.283   1.822   0.185  0.00  0.00    +0.011 C 
ATOM     22  C   UNL     1       0.143   0.303   0.069  0.00  0.00    +0.059 C 
ENDBRANCH   9  22
ENDBRANCH   1  12
BRANCH   7  23
ATOM     23  C   UNL     1       7.130  -0.322   4.289  0.00  0.00    +0.138 C 
BRANCH  23  24
ATOM     24  C   UNL     1       8.546   0.084   4.606  0.00  0.00    -0.030 A 
ATOM     25  C   UNL     1       8.806   0.883   5.703  0.00  0.00    +0.005 A 
ATOM     26  C   UNL     1      10.105   1.256   5.994  0.00  0.00    +0.000 A 
ATOM     27  C   UNL     1      11.144   0.829   5.188  0.00  0.00    +0.000 A 
ATOM     28  C   UNL     1      10.884   0.029   4.091  0.00  0.00    +0.000 A 
ATOM     29  C   UNL     1       9.585  -0.347   3.803  0.00  0.00    +0.005 A 
ENDBRANCH  23  24
ENDBRANCH   7  23
TORSDOF 5
