REMARK  Name = CHEMBL202676
REMARK  5 active torsions:
REMARK  status: ('A' for Active; 'I' for Inactive)
REMARK    1  A    between atoms: C_1  and  O_2
REMARK    2  A    between atoms: O_2  and  C_3
REMARK    3  A    between atoms: C_6  and  C_9
REMARK    4  A    between atoms: C_14  and  C_18
REMARK    5  A    between atoms: N_24  and  C_25
REMARK                            x       y       z     vdW  Elec       q    Type
REMARK                         _______ _______ _______ _____ _____    ______ ____
ROOT
ATOM      1  C   UNL     1      -3.534  -5.477   0.131  0.00  0.00    +0.221 C 
ATOM      2  O   UNL     1      -3.709  -6.481  -0.526  0.00  0.00    -0.275 OA
ATOM      3  N   UNL     1      -4.579  -4.871   0.727  0.00  0.00    -0.270 N 
ATOM      4  C   UNL     1      -5.875  -5.335   0.502  0.00  0.00    +0.125 A 
ATOM      5  C   UNL     1      -6.955  -4.639   1.029  0.00  0.00    +0.052 A 
ATOM      6  C   UNL     1      -8.244  -5.116   0.796  0.00  0.00    -0.013 A 
ATOM      7  C   UNL     1      -8.392  -6.281   0.037  0.00  0.00    +0.028 A 
ATOM      8  C   UNL     1      -7.268  -6.913  -0.451  0.00  0.00    +0.113 A 
ATOM      9  N   UNL     1      -6.062  -6.431  -0.215  0.00  0.00    -0.240 NA
ATOM     10  H   UNL     1      -4.431  -4.111   1.312  0.00  0.00    +0.156 HD
ENDROOT
BRANCH   6  11
ATOM     11  C   UNL     1      -9.429  -4.405   1.340  0.00  0.00    -0.013 A 
ATOM     12  C   UNL     1      -9.281  -3.236   2.095  0.00  0.00    +0.028 A 
ATOM     13  C   UNL     1     -10.405  -2.605   2.583  0.00  0.00    +0.113 A 
ATOM     14  N   UNL     1     -11.611  -3.086   2.348  0.00  0.00    -0.240 NA
ATOM     15  C   UNL     1     -11.798  -4.189   1.639  0.00  0.00    +0.123 A 
ATOM     16  C   UNL     1     -10.718  -4.882   1.106  0.00  0.00    +0.052 A 
ATOM     17  N   UNL     1     -13.091  -4.655   1.420  0.00  0.00    -0.299 N 
ATOM     18  H   UNL     1     -13.231  -5.501   0.967  0.00  0.00    +0.154 HD
BRANCH  17  19
ATOM     19  C   UNL     1     -14.188  -3.904   1.854  0.00  0.00    +0.033 A 
ATOM     20  C   UNL     1     -14.122  -2.516   1.860  0.00  0.00    +0.026 A 
ATOM     21  C   UNL     1     -15.207  -1.776   2.289  0.00  0.00    +0.040 A 
ATOM     22  C   UNL     1     -16.359  -2.417   2.712  0.00  0.00    +0.124 A 
ATOM     23  C   UNL     1     -16.427  -3.800   2.707  0.00  0.00    +0.040 A 
ATOM     24  C   UNL     1     -15.347  -4.544   2.273  0.00  0.00    +0.026 A 
ATOM     25  F   UNL     1     -17.419  -1.691   3.132  0.00  0.00    -0.205 F 
ENDBRANCH  17  19
ENDBRANCH   6  11
BRANCH   1  29
ATOM     26  C   UNL     1       0.640  -5.176   1.148  0.00  0.00    +0.118 C 
ATOM     27  C   UNL     1       0.257  -5.202  -0.334  0.00  0.00    +0.032 C 
ATOM     28  C   UNL     1      -1.151  -5.780  -0.486  0.00  0.00    +0.015 C 
ATOM     29  C   UNL     1      -2.146  -4.908   0.282  0.00  0.00    +0.076 C 
ATOM     30  C   UNL     1      -1.764  -4.882   1.763  0.00  0.00    +0.015 C 
ATOM     31  C   UNL     1      -0.356  -4.304   1.916  0.00  0.00    +0.032 C 
BRANCH  26  33
ATOM     32  C   UNL     1       2.994  -5.615   1.240  0.00  0.00    +0.194 C 
ATOM     33  O   UNL     1       1.955  -4.636   1.291  0.00  0.00    -0.380 OA
ENDBRANCH  26  33
ENDBRANCH   1  29
TORSDOF 4
