REMARK  Name = CHEMBL1171613
REMARK  7 active torsions:
REMARK  status: ('A' for Active; 'I' for Inactive)
REMARK    1  A    between atoms: C_1  and  N_2
REMARK    2  A    between atoms: N_5  and  C_8
REMARK    3  A    between atoms: C_12  and  C_14
REMARK    4  A    between atoms: C_14  and  N_15
REMARK    5  A    between atoms: C_16  and  C_18
REMARK    6  A    between atoms: C_20  and  C_24
REMARK    7  A    between atoms: C_24  and  C_26
REMARK                            x       y       z     vdW  Elec       q    Type
REMARK                         _______ _______ _______ _____ _____    ______ ____
ROOT
ATOM      1  N   UNL     1       1.361  -6.697   3.891  0.00  0.00    -0.306 N 
ATOM      2  C   UNL     1       2.154  -7.481   4.649  0.00  0.00    +0.261 C 
ATOM      3  O   UNL     1       2.318  -7.222   5.826  0.00  0.00    -0.269 OA
ATOM      4  H   UNL     1       1.230  -6.904   2.952  0.00  0.00    +0.149 HD
ENDROOT
BRANCH   2   5
ATOM      5  C   UNL     1       2.820  -8.646   4.053  0.00  0.00    +0.102 A 
ATOM      6  C   UNL     1       3.639  -9.517   4.706  0.00  0.00    +0.044 A 
ATOM      7  C   UNL     1       4.058 -10.480   3.760  0.00  0.00    +0.040 A 
ATOM      8  C   UNL     1       3.466 -10.148   2.554  0.00  0.00    +0.095 A 
ATOM      9  N   UNL     1       2.719  -9.048   2.739  0.00  0.00    -0.356 N 
ATOM     10  H   UNL     1       2.192  -8.605   2.055  0.00  0.00    +0.165 HD
BRANCH   7  11
ATOM     11  C   UNL     1       4.954 -11.622   4.010  0.00  0.00    +0.197 C 
ATOM     12  O   UNL     1       5.340 -11.856   5.140  0.00  0.00    -0.287 OA
BRANCH  11  13
ATOM     13  C   UNL     1       5.384 -12.483   2.890  0.00  0.00    +0.057 A 
ATOM     14  C   UNL     1       6.681 -12.379   2.382  0.00  0.00    +0.014 A 
ATOM     15  C   UNL     1       7.076 -13.186   1.337  0.00  0.00    +0.001 A 
ATOM     16  C   UNL     1       6.191 -14.099   0.788  0.00  0.00    +0.003 A 
ATOM     17  C   UNL     1       4.905 -14.209   1.282  0.00  0.00    +0.039 A 
ATOM     18  C   UNL     1       4.496 -13.411   2.335  0.00  0.00    +0.134 A 
ATOM     19  F   UNL     1       3.241 -13.523   2.822  0.00  0.00    -0.205 F 
ENDBRANCH  11  13
ENDBRANCH   7  11
ENDBRANCH   2   5
BRANCH   1  20
ATOM     20  C   UNL     1       0.696  -5.535   4.486  0.00  0.00    +0.140 C 
BRANCH  20  25
ATOM     21  C   UNL     1      -0.318  -3.184   1.705  0.00  0.00    +0.030 A 
ATOM     22  C   UNL     1      -1.643  -3.550   1.507  0.00  0.00    +0.023 A 
ATOM     23  C   UNL     1      -2.203  -4.554   2.272  0.00  0.00    +0.002 A 
ATOM     24  C   UNL     1      -1.445  -5.196   3.235  0.00  0.00    +0.005 A 
ATOM     25  C   UNL     1      -0.126  -4.834   3.435  0.00  0.00    -0.029 A 
ATOM     26  C   UNL     1       0.442  -3.834   2.669  0.00  0.00    +0.028 A 
BRANCH  21  31
ATOM     27  C   UNL     1       1.038   1.861   0.125  0.00  0.00    -0.096 C 
ATOM     28  N   UNL     1       0.971   0.394   0.081  0.00  0.00    +0.380 N 
ATOM     29  C   UNL     1      -0.432  -0.029  -0.013  0.00  0.00    -0.060 C 
ATOM     30  C   UNL     1      -0.496  -1.551  -0.174  0.00  0.00    +0.086 C 
ATOM     31  N   UNL     1       0.251  -2.169   0.932  0.00  0.00    -0.333 N 
ATOM     32  C   UNL     1       1.615  -1.688   1.202  0.00  0.00    +0.086 C 
ATOM     33  C   UNL     1       1.580  -0.159   1.298  0.00  0.00    -0.060 C 
ATOM     34  H   UNL     1       1.475   0.059  -0.727  0.00  0.00    -0.082 HD
ENDBRANCH  21  31
ENDBRANCH  20  25
ENDBRANCH   1  20
TORSDOF 6
