REMARK  Name = CHEMBL188167
REMARK  10 active torsions:
REMARK  status: ('A' for Active; 'I' for Inactive)
REMARK    1  A    between atoms: C_1  and  C_2
REMARK    2  A    between atoms: C_5  and  N_30
REMARK    3  A    between atoms: C_7  and  N_8
REMARK    4  A    between atoms: C_12  and  O_21
REMARK    5  A    between atoms: C_13  and  O_19
REMARK    6  A    between atoms: O_19  and  C_20
REMARK    7  A    between atoms: O_21  and  C_22
REMARK    8  A    between atoms: C_22  and  C_23
REMARK    9  A    between atoms: C_23  and  N_24
REMARK   10  A    between atoms: C_31  and  C_33
REMARK                            x       y       z     vdW  Elec       q    Type
REMARK                         _______ _______ _______ _____ _____    ______ ____
ROOT
ATOM      1  N   UNL     1      -0.363   0.263   0.923  0.00  0.00    -0.299 N 
ATOM      2  C   UNL     1       0.156  -0.817   1.609  0.00  0.00    +0.134 A 
ATOM      3  C   UNL     1       0.588  -0.686   2.950  0.00  0.00    +0.044 A 
ATOM      4  C   UNL     1       0.511   0.531   3.638  0.00  0.00    +0.062 A 
ATOM      5  C   UNL     1       0.942   0.606   4.932  0.00  0.00    +0.163 A 
ATOM      6  C   UNL     1       1.460  -0.524   5.580  0.00  0.00    +0.164 A 
ATOM      7  C   UNL     1       1.547  -1.733   4.926  0.00  0.00    +0.078 A 
ATOM      8  C   UNL     1       1.111  -1.832   3.599  0.00  0.00    +0.080 A 
ATOM      9  N   UNL     1       1.173  -2.986   2.917  0.00  0.00    -0.235 NA
ATOM     10  C   UNL     1       0.757  -3.049   1.675  0.00  0.00    +0.223 A 
ATOM     11  N   UNL     1       0.257  -2.006   1.030  0.00  0.00    -0.220 NA
ATOM     12  H   UNL     1      -0.515   1.103   1.384  0.00  0.00    +0.154 HD
ENDROOT
BRANCH   1  19
ATOM     13  C   UNL     1      -2.429   1.907  -0.132  0.00  0.00    +0.045 C 
ATOM     14  C   UNL     1      -1.671   0.931  -0.993  0.00  0.00    -0.029 A 
ATOM     15  C   UNL     1      -1.970   0.820  -2.338  0.00  0.00    +0.007 A 
ATOM     16  C   UNL     1      -1.278  -0.074  -3.131  0.00  0.00    +0.024 A 
ATOM     17  C   UNL     1      -0.278  -0.866  -2.579  0.00  0.00    +0.035 A 
ATOM     18  C   UNL     1       0.025  -0.757  -1.229  0.00  0.00    +0.046 A 
ATOM     19  C   UNL     1      -0.669   0.146  -0.436  0.00  0.00    +0.037 A 
BRANCH  17  20
ATOM     20  N   UNL     1       0.422  -1.771  -3.382  0.00  0.00    -0.281 N 
ATOM     21  C   UNL     1       0.701  -1.459  -4.664  0.00  0.00    +0.248 C 
ATOM     22  O   UNL     1       0.424  -0.357  -5.095  0.00  0.00    -0.270 OA
ATOM     23  H   UNL     1       0.707  -2.624  -3.018  0.00  0.00    +0.155 HD
BRANCH  21  24
ATOM     24  C   UNL     1       1.344  -2.460  -5.546  0.00  0.00    +0.042 A 
ATOM     25  C   UNL     1       1.666  -3.737  -5.070  0.00  0.00    +0.033 A 
ATOM     26  C   UNL     1       2.265  -4.641  -5.923  0.00  0.00    +0.113 A 
ATOM     27  N   UNL     1       2.537  -4.319  -7.173  0.00  0.00    -0.240 NA
ATOM     28  C   UNL     1       2.251  -3.125  -7.666  0.00  0.00    +0.122 A 
ATOM     29  C   UNL     1       1.641  -2.156  -6.875  0.00  0.00    +0.056 A 
ATOM     30  N   UNL     1       2.559  -2.837  -8.991  0.00  0.00    -0.311 N 
ATOM     31  C   UNL     1       2.995  -3.895  -9.915  0.00  0.00    +0.134 C 
ATOM     32  C   UNL     1       2.144  -3.809 -11.187  0.00  0.00    +0.178 C 
ATOM     33  O   UNL     1       2.184  -2.471 -11.690  0.00  0.00    -0.377 OA
ATOM     34  C   UNL     1       1.632  -1.496 -10.803  0.00  0.00    +0.178 C 
ATOM     35  C   UNL     1       2.452  -1.465  -9.512  0.00  0.00    +0.134 C 
ENDBRANCH  21  24
ENDBRANCH  17  20
ENDBRANCH   1  19
BRANCH   6  36
ATOM     36  O   UNL     1       1.883  -0.425   6.867  0.00  0.00    -0.491 OA
ATOM     37  C   UNL     1       2.401  -1.611   7.473  0.00  0.00    +0.277 C 
ENDBRANCH   6  36
BRANCH   5  38
ATOM     38  O   UNL     1       0.867   1.788   5.598  0.00  0.00    -0.490 OA
BRANCH  38  39
ATOM     39  C   UNL     1       0.329   2.903   4.884  0.00  0.00    +0.211 C 
BRANCH  39  40
ATOM     40  C   UNL     1       0.325   4.136   5.790  0.00  0.00    -0.037 C 
BRANCH  40  41
ATOM     41  N   UNL     1       1.708   4.519   6.103  0.00  0.00    +0.382 N 
ATOM     42  C   UNL     1       1.702   5.592   7.104  0.00  0.00    -0.079 C 
ATOM     43  C   UNL     1       3.141   5.939   7.494  0.00  0.00    -0.019 C 
ATOM     44  C   UNL     1       3.903   6.403   6.249  0.00  0.00    -0.004 C 
ATOM     45  C   UNL     1       3.839   5.305   5.184  0.00  0.00    -0.019 C 
ATOM     46  C   UNL     1       2.374   4.982   4.880  0.00  0.00    -0.079 C 
ATOM     47  H   UNL     1       2.202   3.720   6.472  0.00  0.00    -0.082 HD
ENDBRANCH  40  41
ENDBRANCH  39  40
ENDBRANCH  38  39
ENDBRANCH   5  38
TORSDOF 8
