REMARK  Name = CHEMBL263536
REMARK  8 active torsions:
REMARK  status: ('A' for Active; 'I' for Inactive)
REMARK    1  A    between atoms: C_1  and  C_2
REMARK    2  A    between atoms: C_2  and  C_3
REMARK    3  A    between atoms: C_3  and  C_4
REMARK    4  A    between atoms: C_4  and  O_5
REMARK    5  A    between atoms: O_5  and  C_6
REMARK    6  A    between atoms: C_8  and  N_28
REMARK    7  A    between atoms: C_12  and  C_21
REMARK    8  A    between atoms: C_13  and  C_15
REMARK                            x       y       z     vdW  Elec       q    Type
REMARK                         _______ _______ _______ _____ _____    ______ ____
ROOT
ATOM      1  C   UNL     1      -2.913  -3.906   0.009  0.00  0.00    +0.135 A 
ATOM      2  C   UNL     1      -1.816  -4.754  -0.000  0.00  0.00    +0.089 A 
ATOM      3  C   UNL     1      -2.022  -6.130  -0.006  0.00  0.00    +0.122 A 
ATOM      4  N   UNL     1      -3.239  -6.646  -0.003  0.00  0.00    -0.215 NA
ATOM      5  C   UNL     1      -4.325  -5.878   0.006  0.00  0.00    +0.145 A 
ATOM      6  N   UNL     1      -5.669  -6.172   0.010  0.00  0.00    -0.338 N 
ATOM      7  C   UNL     1      -6.410  -5.014   0.019  0.00  0.00    +0.057 A 
ATOM      8  C   UNL     1      -5.555  -3.931   0.020  0.00  0.00    +0.020 A 
ATOM      9  C   UNL     1      -4.192  -4.481   0.018  0.00  0.00    +0.069 A 
ATOM     10  H   UNL     1      -6.041  -7.068   0.007  0.00  0.00    +0.167 HD
ENDROOT
BRANCH   7  11
ATOM     11  C   UNL     1      -7.885  -4.941   0.025  0.00  0.00    -0.001 A 
ATOM     12  C   UNL     1      -8.546  -4.054  -0.827  0.00  0.00    +0.013 A 
ATOM     13  C   UNL     1      -9.924  -3.990  -0.817  0.00  0.00    +0.039 A 
ATOM     14  C   UNL     1     -10.651  -4.804   0.036  0.00  0.00    +0.123 A 
ATOM     15  C   UNL     1     -10.000  -5.687   0.884  0.00  0.00    +0.039 A 
ATOM     16  C   UNL     1      -8.624  -5.764   0.878  0.00  0.00    +0.013 A 
ATOM     17  F   UNL     1     -12.001  -4.738   0.042  0.00  0.00    -0.205 F 
ENDBRANCH   7  11
BRANCH   8  18
ATOM     18  C   UNL     1      -5.934  -2.502   0.029  0.00  0.00    -0.012 A 
ATOM     19  C   UNL     1      -5.638  -1.673  -1.060  0.00  0.00    +0.028 A 
ATOM     20  C   UNL     1      -6.010  -0.346  -1.010  0.00  0.00    +0.111 A 
ATOM     21  N   UNL     1      -6.636   0.143   0.044  0.00  0.00    -0.263 NA
ATOM     22  C   UNL     1      -6.934  -0.604   1.091  0.00  0.00    +0.111 A 
ATOM     23  C   UNL     1      -6.605  -1.942   1.123  0.00  0.00    +0.028 A 
ENDBRANCH   8  18
BRANCH   3  24
ATOM     24  N   UNL     1      -0.923  -6.982  -0.016  0.00  0.00    -0.343 N 
ATOM     25  H   UNL     1      -0.025  -6.615  -0.018  0.00  0.00    +0.144 HD
ATOM     26  H   UNL     1      -1.054  -7.943  -0.020  0.00  0.00    +0.144 HD
ENDBRANCH   3  24
BRANCH   1  27
ATOM     27  O   UNL     1      -2.753  -2.558   0.015  0.00  0.00    -0.491 OA
BRANCH  27  28
ATOM     28  C   UNL     1      -1.413  -2.063   0.004  0.00  0.00    +0.229 C 
BRANCH  28  29
ATOM     29  C   UNL     1      -1.433  -0.534   0.013  0.00  0.00    +0.041 C 
BRANCH  29  31
ATOM     30  C   UNL     1      -0.019   1.526   0.010  0.00  0.00    +0.004 C 
ATOM     31  C   UNL     1       0.002  -0.004   0.002  0.00  0.00    -0.000 C 
ENDBRANCH  29  31
ENDBRANCH  28  29
ENDBRANCH  27  28
ENDBRANCH   1  27
TORSDOF 7
