REMARK  Name = CHEMBL1091260
REMARK  6 active torsions:
REMARK  status: ('A' for Active; 'I' for Inactive)
REMARK    1  A    between atoms: C_1  and  C_2
REMARK    2  A    between atoms: C_2  and  N_3
REMARK    3  A    between atoms: N_10  and  C_11
REMARK    4  A    between atoms: C_11  and  C_13
REMARK    5  A    between atoms: C_11  and  C_14
REMARK    6  A    between atoms: C_20  and  C_22
REMARK                            x       y       z     vdW  Elec       q    Type
REMARK                         _______ _______ _______ _____ _____    ______ ____
ROOT
ATOM      1  N   UNL     1       0.806  -0.707   1.036  0.00  0.00    -0.252 N 
ATOM      2  C   UNL     1       0.179  -1.081   2.219  0.00  0.00    +0.133 A 
ATOM      3  C   UNL     1      -1.198  -1.304   2.250  0.00  0.00    +0.064 A 
ATOM      4  C   UNL     1      -1.779  -1.675   3.447  0.00  0.00    +0.118 A 
ATOM      5  N   UNL     1      -1.018  -1.807   4.523  0.00  0.00    -0.223 NA
ATOM      6  C   UNL     1       0.287  -1.589   4.464  0.00  0.00    +0.217 A 
ATOM      7  N   UNL     1       0.883  -1.237   3.335  0.00  0.00    -0.199 NA
ATOM      8  N   UNL     1       1.049  -1.736   5.611  0.00  0.00    -0.307 N 
ATOM      9  C   UNL     1       2.148  -0.598   0.991  0.00  0.00    +0.252 C 
ATOM     10  O   UNL     1       2.815  -0.886   1.966  0.00  0.00    -0.270 OA
ATOM     11  H   UNL     1       2.005  -1.579   5.581  0.00  0.00    +0.149 HD
ENDROOT
BRANCH   9  12
ATOM     12  C   UNL     1       2.810  -0.127  -0.244  0.00  0.00    +0.038 A 
ATOM     13  C   UNL     1       2.216   0.867  -1.024  0.00  0.00    +0.013 A 
ATOM     14  C   UNL     1       2.840   1.300  -2.173  0.00  0.00    +0.004 A 
ATOM     15  C   UNL     1       4.055   0.754  -2.561  0.00  0.00    -0.044 A 
ATOM     16  C   UNL     1       4.649  -0.232  -1.792  0.00  0.00    -0.043 A 
ATOM     17  C   UNL     1       4.035  -0.669  -0.634  0.00  0.00    +0.017 A 
ATOM     18  C   UNL     1       5.957  -0.656  -2.426  0.00  0.00    +0.036 C 
ATOM     19  C   UNL     1       5.885  -0.145  -3.881  0.00  0.00    +0.009 C 
ATOM     20  C   UNL     1       4.924   1.057  -3.763  0.00  0.00    +0.036 C 
ENDBRANCH   9  12
BRANCH   1  22
ATOM     21  C   UNL     1      -0.593   0.972  -0.061  0.00  0.00    +0.025 C 
ATOM     22  C   UNL     1       0.008  -0.432  -0.161  0.00  0.00    +0.112 C 
ENDBRANCH   1  22
BRANCH   8  23
ATOM     23  C   UNL     1       0.409  -2.130   6.869  0.00  0.00    +0.100 C 
ATOM     24  C   UNL     1       0.292  -3.654   6.926  0.00  0.00    +0.033 C 
BRANCH  23  25
ATOM     25  C   UNL     1       1.242  -1.646   8.028  0.00  0.00    -0.027 A 
ATOM     26  C   UNL     1       2.621  -1.715   7.965  0.00  0.00    +0.005 A 
ATOM     27  C   UNL     1       3.385  -1.271   9.028  0.00  0.00    +0.000 A 
ATOM     28  C   UNL     1       2.769  -0.758  10.155  0.00  0.00    +0.000 A 
ATOM     29  C   UNL     1       1.390  -0.689  10.217  0.00  0.00    +0.000 A 
ATOM     30  C   UNL     1       0.626  -1.128   9.152  0.00  0.00    +0.005 A 
ENDBRANCH  23  25
ENDBRANCH   8  23
TORSDOF 4
