REMARK  Name = CHEMBL212964
REMARK  6 active torsions:
REMARK  status: ('A' for Active; 'I' for Inactive)
REMARK    1  A    between atoms: C_1  and  C_2
REMARK    2  A    between atoms: C_5  and  C_20
REMARK    3  A    between atoms: C_7  and  C_8
REMARK    4  A    between atoms: N_18  and  C_19
REMARK    5  A    between atoms: N_22  and  C_23
REMARK    6  A    between atoms: C_27  and  C_29
REMARK                            x       y       z     vdW  Elec       q    Type
REMARK                         _______ _______ _______ _____ _____    ______ ____
ROOT
ATOM      1  C   UNL     1      -0.048   1.502   0.010  0.00  0.00    +0.044 C 
ATOM      2  C   UNL     1      -0.019  -0.004   0.002  0.00  0.00    -0.043 A 
ATOM      3  C   UNL     1      -0.018  -0.687  -1.200  0.00  0.00    +0.005 A 
ATOM      4  C   UNL     1       0.009  -2.067  -1.216  0.00  0.00    +0.013 A 
ATOM      5  C   UNL     1       0.033  -2.781  -0.016  0.00  0.00    +0.038 A 
ATOM      6  C   UNL     1       0.031  -2.097   1.198  0.00  0.00    +0.021 A 
ATOM      7  C   UNL     1       0.011  -0.706   1.206  0.00  0.00    -0.014 A 
ENDROOT
BRANCH   7   8
ATOM      8  C   UNL     1       0.016   0.030   2.495  0.00  0.00    -0.017 A 
ATOM      9  C   UNL     1       0.929   1.077   2.695  0.00  0.00    +0.010 A 
ATOM     10  C   UNL     1       0.955   1.768   3.865  0.00  0.00    +0.029 A 
ATOM     11  C   UNL     1       0.059   1.437   4.894  0.00  0.00    +0.076 A 
ATOM     12  C   UNL     1      -0.869   0.380   4.701  0.00  0.00    +0.019 A 
ATOM     13  C   UNL     1      -0.884  -0.317   3.486  0.00  0.00    +0.020 A 
ATOM     14  C   UNL     1      -1.756   0.069   5.749  0.00  0.00    +0.124 A 
ATOM     15  N   UNL     1      -1.687   0.772   6.860  0.00  0.00    -0.222 NA
ATOM     16  C   UNL     1      -0.803   1.757   7.007  0.00  0.00    +0.215 A 
ATOM     17  N   UNL     1       0.052   2.093   6.061  0.00  0.00    -0.215 NA
ATOM     18  N   UNL     1      -0.782   2.457   8.200  0.00  0.00    -0.317 N 
ATOM     19  C   UNL     1      -1.720   2.109   9.270  0.00  0.00    +0.128 C 
ATOM     20  H   UNL     1      -0.147   3.179   8.327  0.00  0.00    +0.149 HD
ENDBRANCH   7   8
BRANCH   5  21
ATOM     21  C   UNL     1       0.060  -4.259  -0.034  0.00  0.00    +0.248 C 
ATOM     22  O   UNL     1       0.082  -4.879   1.012  0.00  0.00    -0.270 OA
ATOM     23  N   UNL     1       0.061  -4.919  -1.209  0.00  0.00    -0.281 N 
ATOM     24  H   UNL     1      -0.024  -4.428  -2.041  0.00  0.00    +0.155 HD
BRANCH  23  25
ATOM     25  C   UNL     1       0.185  -6.312  -1.228  0.00  0.00    +0.034 A 
ATOM     26  C   UNL     1       0.889  -6.934  -2.251  0.00  0.00    +0.023 A 
ATOM     27  C   UNL     1       1.010  -8.309  -2.268  0.00  0.00    +0.002 A 
ATOM     28  C   UNL     1       0.430  -9.068  -1.267  0.00  0.00    +0.012 A 
ATOM     29  C   UNL     1      -0.272  -8.452  -0.247  0.00  0.00    +0.057 A 
ATOM     30  C   UNL     1      -0.392  -7.076  -0.223  0.00  0.00    +0.035 A 
BRANCH  29  31
ATOM     31  C   UNL     1      -0.902  -9.282   0.841  0.00  0.00    +0.417 C 
ATOM     32  F   UNL     1      -0.643 -10.636   0.604  0.00  0.00    -0.166 F 
ATOM     33  F   UNL     1      -0.365  -8.914   2.079  0.00  0.00    -0.166 F 
ATOM     34  F   UNL     1      -2.285  -9.067   0.850  0.00  0.00    -0.166 F 
ENDBRANCH  29  31
ENDBRANCH  23  25
ENDBRANCH   5  21
TORSDOF 4
