REMARK  Name = CHEMBL271201
REMARK  8 active torsions:
REMARK  status: ('A' for Active; 'I' for Inactive)
REMARK    1  A    between atoms: C_1  and  C_2
REMARK    2  A    between atoms: C_5  and  N_31
REMARK    3  A    between atoms: C_7  and  C_8
REMARK    4  A    between atoms: N_10  and  C_11
REMARK    5  A    between atoms: N_17  and  C_18
REMARK    6  A    between atoms: C_21  and  N_24
REMARK    7  A    between atoms: N_27  and  C_30
REMARK    8  A    between atoms: C_32  and  C_34
REMARK                            x       y       z     vdW  Elec       q    Type
REMARK                         _______ _______ _______ _____ _____    ______ ____
ROOT
ATOM      1  C   UNL     1       1.165  -0.103   4.855  0.00  0.00    +0.070 A 
ATOM      2  C   UNL     1       1.100   1.275   5.039  0.00  0.00    +0.139 A 
ATOM      3  N   UNL     1       1.390   1.780   6.227  0.00  0.00    -0.221 NA
ATOM      4  C   UNL     1       1.738   0.992   7.232  0.00  0.00    +0.220 A 
ATOM      5  N   UNL     1       1.811  -0.324   7.094  0.00  0.00    -0.221 NA
ATOM      6  C   UNL     1       1.529  -0.899   5.937  0.00  0.00    +0.139 A 
ATOM      7  N   UNL     1       2.035   1.558   8.463  0.00  0.00    -0.284 N 
ATOM      8  H   UNL     1       1.908   2.510   8.602  0.00  0.00    +0.155 HD
ENDROOT
BRANCH   7   9
ATOM      9  C   UNL     1       2.518   0.756   9.505  0.00  0.00    +0.034 A 
ATOM     10  C   UNL     1       3.352  -0.318   9.225  0.00  0.00    +0.025 A 
ATOM     11  C   UNL     1       3.828  -1.108  10.252  0.00  0.00    +0.025 A 
ATOM     12  C   UNL     1       3.473  -0.829  11.566  0.00  0.00    +0.030 A 
ATOM     13  C   UNL     1       2.639   0.246  11.845  0.00  0.00    +0.025 A 
ATOM     14  C   UNL     1       2.167   1.039  10.819  0.00  0.00    +0.025 A 
BRANCH  12  15
ATOM     15  N   UNL     1       3.955  -1.630  12.607  0.00  0.00    -0.327 N 
ATOM     16  C   UNL     1       3.490  -1.433  13.988  0.00  0.00    +0.120 C 
ATOM     17  C   UNL     1       3.033  -2.785  14.546  0.00  0.00    +0.103 C 
ATOM     18  N   UNL     1       4.115  -3.767  14.388  0.00  0.00    -0.302 NA
ATOM     19  C   UNL     1       4.426  -3.994  12.970  0.00  0.00    +0.103 C 
ATOM     20  C   UNL     1       4.935  -2.695  12.348  0.00  0.00    +0.120 C 
ATOM     21  C   UNL     1       3.783  -5.029  15.063  0.00  0.00    +0.105 C 
ENDBRANCH  12  15
ENDBRANCH   7   9
BRANCH   1  24
ATOM     22  C   UNL     1       1.191  -0.028   2.475  0.00  0.00    +0.249 C 
ATOM     23  O   UNL     1       1.668   1.089   2.528  0.00  0.00    -0.270 OA
ATOM     24  N   UNL     1       0.865  -0.676   3.612  0.00  0.00    -0.279 N 
ATOM     25  H   UNL     1       0.423  -1.538   3.569  0.00  0.00    +0.155 HD
BRANCH  22  32
ATOM     26  C   UNL     1       2.054   1.303   0.059  0.00  0.00    +0.044 C 
ATOM     27  C   UNL     1       1.380  -0.043  -0.008  0.00  0.00    -0.038 A 
ATOM     28  C   UNL     1       1.176  -0.653  -1.229  0.00  0.00    +0.006 A 
ATOM     29  C   UNL     1       0.558  -1.887  -1.296  0.00  0.00    +0.023 A 
ATOM     30  C   UNL     1       0.138  -2.523  -0.134  0.00  0.00    +0.034 A 
ATOM     31  C   UNL     1       0.338  -1.919   1.098  0.00  0.00    +0.036 A 
ATOM     32  C   UNL     1       0.968  -0.676   1.166  0.00  0.00    +0.042 A 
BRANCH  30  33
ATOM     33  N   UNL     1      -0.488  -3.773  -0.207  0.00  0.00    -0.286 N 
ATOM     34  C   UNL     1      -0.114  -4.660  -1.150  0.00  0.00    +0.214 C 
ATOM     35  O   UNL     1       0.827  -4.413  -1.875  0.00  0.00    -0.276 OA
ATOM     36  C   UNL     1      -0.864  -5.958  -1.304  0.00  0.00    +0.109 C 
ATOM     37  H   UNL     1      -1.191  -4.001   0.422  0.00  0.00    +0.155 HD
ENDBRANCH  30  33
ENDBRANCH  22  32
ENDBRANCH   1  24
TORSDOF 5
