REMARK  Name = CHEMBL569551
REMARK  9 active torsions:
REMARK  status: ('A' for Active; 'I' for Inactive)
REMARK    1  A    between atoms: C_1  and  C_2
REMARK    2  A    between atoms: C_2  and  C_3
REMARK    3  A    between atoms: C_3  and  C_4
REMARK    4  A    between atoms: C_3  and  N_5
REMARK    5  A    between atoms: C_8  and  C_12
REMARK    6  A    between atoms: C_13  and  C_20
REMARK    7  A    between atoms: C_16  and  C_17
REMARK    8  A    between atoms: C_17  and  C_18
REMARK    9  A    between atoms: C_17  and  C_19
REMARK                            x       y       z     vdW  Elec       q    Type
REMARK                         _______ _______ _______ _____ _____    ______ ____
ROOT
ATOM      1  C   UNL     1       4.027  -0.271  -5.157  0.00  0.00    +0.052 A 
ATOM      2  C   UNL     1       5.104   0.512  -4.538  0.00  0.00    +0.121 A 
ATOM      3  N   UNL     1       6.236  -0.020  -4.928  0.00  0.00    -0.077 NA
ATOM      4  O   UNL     1       5.947  -1.115  -5.775  0.00  0.00    -0.358 OA
ATOM      5  C   UNL     1       4.620  -1.248  -5.891  0.00  0.00    +0.148 A 
ENDROOT
BRANCH   1   9
ATOM      6  N   UNL     1      -0.055  -0.114  -2.441  0.00  0.00    -0.326 N 
ATOM      7  C   UNL     1       0.581   0.032  -3.669  0.00  0.00    +0.119 A 
ATOM      8  C   UNL     1       1.947  -0.193  -3.766  0.00  0.00    +0.052 A 
ATOM      9  C   UNL     1       2.570  -0.042  -5.005  0.00  0.00    -0.008 A 
ATOM     10  C   UNL     1       1.783   0.332  -6.101  0.00  0.00    +0.028 A 
ATOM     11  C   UNL     1       0.433   0.536  -5.921  0.00  0.00    +0.113 A 
ATOM     12  N   UNL     1      -0.125   0.380  -4.734  0.00  0.00    -0.240 NA
ATOM     13  H   UNL     1      -1.010   0.038  -2.368  0.00  0.00    +0.148 HD
BRANCH   6  14
ATOM     14  C   UNL     1       0.718  -0.497  -1.257  0.00  0.00    +0.068 C 
ATOM     15  C   UNL     1       0.849  -2.021  -1.205  0.00  0.00    +0.028 C 
BRANCH  14  17
ATOM     16  C   UNL     1      -0.019   1.526   0.010  0.00  0.00    +0.005 C 
ATOM     17  C   UNL     1       0.002  -0.004   0.002  0.00  0.00    +0.018 C 
ENDBRANCH  14  17
ENDBRANCH   6  14
ENDBRANCH   1   9
BRANCH   2  18
ATOM     18  C   UNL     1       4.942   1.682  -3.641  0.00  0.00    +0.004 A 
ATOM     19  C   UNL     1       3.889   2.574  -3.840  0.00  0.00    +0.013 A 
ATOM     20  C   UNL     1       3.742   3.661  -3.003  0.00  0.00    +0.039 A 
ATOM     21  C   UNL     1       4.639   3.867  -1.967  0.00  0.00    +0.123 A 
ATOM     22  C   UNL     1       5.687   2.983  -1.766  0.00  0.00    +0.039 A 
ATOM     23  C   UNL     1       5.838   1.890  -2.594  0.00  0.00    +0.013 A 
ATOM     24  F   UNL     1       4.491   4.933  -1.151  0.00  0.00    -0.205 F 
ENDBRANCH   2  18
BRANCH   5  25
ATOM     25  C   UNL     1       3.905  -2.299  -6.700  0.00  0.00    +0.052 C 
ATOM     26  C   UNL     1       4.314  -2.176  -8.170  0.00  0.00    +0.015 C 
ATOM     27  C   UNL     1       4.284  -3.687  -6.181  0.00  0.00    +0.015 C 
ENDBRANCH   5  25
TORSDOF 5
