REMARK  Name = CHEMBL558448
REMARK  6 active torsions:
REMARK  status: ('A' for Active; 'I' for Inactive)
REMARK    1  A    between atoms: C_1  and  N_2
REMARK    2  A    between atoms: C_6  and  N_20
REMARK    3  A    between atoms: N_9  and  C_12
REMARK    4  A    between atoms: N_20  and  C_21
REMARK    5  A    between atoms: C_23  and  C_28
REMARK    6  A    between atoms: N_30  and  C_31
REMARK                            x       y       z     vdW  Elec       q    Type
REMARK                         _______ _______ _______ _____ _____    ______ ____
ROOT
ATOM      1  C   UNL     1      -2.104   1.161   0.685  0.00  0.00    +0.154 C 
ATOM      2  N   UNL     1      -1.753  -0.256   0.562  0.00  0.00    -0.296 N 
ATOM      3  C   UNL     1      -2.246  -0.967  -0.466  0.00  0.00    +0.254 A 
ATOM      4  O   UNL     1      -2.977  -0.416  -1.274  0.00  0.00    -0.268 OA
ATOM      5  C   UNL     1      -1.944  -2.321  -0.633  0.00  0.00    +0.094 A 
ATOM      6  C   UNL     1      -1.117  -2.957   0.277  0.00  0.00    +0.049 A 
ATOM      7  C   UNL     1      -0.586  -2.172   1.394  0.00  0.00    +0.059 A 
ATOM      8  C   UNL     1      -0.925  -0.824   1.495  0.00  0.00    +0.149 A 
ATOM      9  N   UNL     1      -0.300  -0.343   2.601  0.00  0.00    -0.213 N 
ATOM     10  N   UNL     1       0.430  -1.387   3.182  0.00  0.00    -0.172 NA
ATOM     11  C   UNL     1       0.261  -2.475   2.482  0.00  0.00    +0.146 A 
ENDROOT
BRANCH   9  12
ATOM     12  C   UNL     1      -0.372   0.974   3.078  0.00  0.00    +0.103 A 
ATOM     13  C   UNL     1       0.430   1.960   2.521  0.00  0.00    +0.033 A 
ATOM     14  C   UNL     1       0.358   3.256   2.992  0.00  0.00    +0.040 A 
ATOM     15  C   UNL     1      -0.514   3.574   4.020  0.00  0.00    +0.126 A 
ATOM     16  C   UNL     1      -1.315   2.593   4.579  0.00  0.00    +0.078 A 
ATOM     17  C   UNL     1      -1.251   1.295   4.106  0.00  0.00    +0.151 A 
ATOM     18  F   UNL     1      -2.037   0.338   4.647  0.00  0.00    -0.203 F 
ATOM     19  F   UNL     1      -0.582   4.843   4.479  0.00  0.00    -0.205 F 
ENDBRANCH   9  12
BRANCH   6  20
ATOM     20  N   UNL     1      -0.802  -4.294   0.136  0.00  0.00    -0.313 N 
ATOM     21  H   UNL     1      -1.506  -4.961   0.143  0.00  0.00    +0.152 HD
BRANCH  20  22
ATOM     22  C   UNL     1       0.531  -4.686  -0.017  0.00  0.00    +0.051 A 
ATOM     23  C   UNL     1       1.524  -3.728  -0.152  0.00  0.00    +0.037 A 
ATOM     24  C   UNL     1       2.853  -4.125  -0.304  0.00  0.00    +0.039 A 
ATOM     25  C   UNL     1       3.175  -5.483  -0.319  0.00  0.00    +0.014 A 
ATOM     26  C   UNL     1       2.180  -6.429  -0.184  0.00  0.00    +0.022 A 
ATOM     27  C   UNL     1       0.863  -6.037  -0.027  0.00  0.00    +0.062 A 
ATOM     28 CL   UNL     1      -0.382  -7.234   0.150  0.00  0.00    -0.082 Cl
BRANCH  24  29
ATOM     29  C   UNL     1       3.917  -3.109  -0.450  0.00  0.00    +0.244 C 
ATOM     30  O   UNL     1       3.635  -1.927  -0.437  0.00  0.00    -0.270 OA
ATOM     31  N   UNL     1       5.200  -3.494  -0.596  0.00  0.00    -0.308 N 
ATOM     32  H   UNL     1       5.426  -4.438  -0.606  0.00  0.00    +0.149 HD
BRANCH  31  33
ATOM     33  C   UNL     1       6.255  -2.488  -0.740  0.00  0.00    +0.073 C 
ATOM     34  C   UNL     1       7.325  -2.733  -1.807  0.00  0.00    +0.024 C 
ATOM     35  C   UNL     1       7.673  -2.886  -0.325  0.00  0.00    +0.024 C 
ENDBRANCH  31  33
ENDBRANCH  24  29
ENDBRANCH  20  22
ENDBRANCH   6  20
TORSDOF 5
