REMARK  Name = CHEMBL498188
REMARK  6 active torsions:
REMARK  status: ('A' for Active; 'I' for Inactive)
REMARK    1  A    between atoms: C_1  and  C_2
REMARK    2  A    between atoms: C_5  and  C_24
REMARK    3  A    between atoms: C_7  and  C_8
REMARK    4  A    between atoms: C_11  and  C_14
REMARK    5  A    between atoms: C_21  and  C_23
REMARK    6  A    between atoms: N_26  and  C_27
REMARK                            x       y       z     vdW  Elec       q    Type
REMARK                         _______ _______ _______ _____ _____    ______ ____
ROOT
ATOM      1  C   UNL     1      -0.047   1.502   0.011  0.00  0.00    +0.044 C 
ATOM      2  C   UNL     1      -0.019  -0.004   0.003  0.00  0.00    -0.043 A 
ATOM      3  C   UNL     1      -0.014  -0.687  -1.199  0.00  0.00    +0.005 A 
ATOM      4  C   UNL     1       0.011  -2.067  -1.215  0.00  0.00    +0.013 A 
ATOM      5  C   UNL     1       0.031  -2.782  -0.015  0.00  0.00    +0.038 A 
ATOM      6  C   UNL     1       0.026  -2.098   1.199  0.00  0.00    +0.021 A 
ATOM      7  C   UNL     1       0.006  -0.707   1.208  0.00  0.00    -0.014 A 
ENDROOT
BRANCH   7   8
ATOM      8  C   UNL     1       0.007   0.029   2.496  0.00  0.00    -0.018 A 
ATOM      9  C   UNL     1       0.912   1.069   2.704  0.00  0.00    +0.009 A 
ATOM     10  C   UNL     1       0.913   1.752   3.900  0.00  0.00    +0.010 A 
ATOM     11  C   UNL     1       0.008   1.403   4.904  0.00  0.00    -0.000 A 
ATOM     12  C   UNL     1      -0.898   0.361   4.694  0.00  0.00    +0.010 A 
ATOM     13  C   UNL     1      -0.901  -0.317   3.496  0.00  0.00    +0.009 A 
BRANCH  11  14
ATOM     14  C   UNL     1       0.009   2.135   6.188  0.00  0.00    +0.068 A 
ATOM     15  C   UNL     1      -0.812   1.899   7.254  0.00  0.00    +0.073 A 
ATOM     16  C   UNL     1      -0.480   2.814   8.261  0.00  0.00    +0.147 A 
ATOM     17  N   UNL     1       0.499   3.573   7.827  0.00  0.00    -0.158 NA
ATOM     18  N   UNL     1       0.833   3.167   6.528  0.00  0.00    -0.275 N 
ATOM     19  H   UNL     1       1.526   3.553   5.970  0.00  0.00    +0.189 HD
ATOM     20  N   UNL     1      -1.090   2.905   9.520  0.00  0.00    -0.269 N 
ATOM     21  C   UNL     1      -2.091   2.063   9.845  0.00  0.00    +0.215 C 
ATOM     22  O   UNL     1      -2.463   1.226   9.050  0.00  0.00    -0.276 OA
ATOM     23  C   UNL     1      -2.747   2.160  11.199  0.00  0.00    +0.109 C 
ATOM     24  H   UNL     1      -0.792   3.573  10.156  0.00  0.00    +0.156 HD
ENDBRANCH  11  14
ENDBRANCH   7   8
BRANCH   5  25
ATOM     25  C   UNL     1       0.058  -4.260  -0.034  0.00  0.00    +0.248 C 
ATOM     26  O   UNL     1       0.075  -4.880   1.011  0.00  0.00    -0.270 OA
ATOM     27  N   UNL     1       0.062  -4.919  -1.209  0.00  0.00    -0.281 N 
ATOM     28  H   UNL     1      -0.021  -4.427  -2.041  0.00  0.00    +0.155 HD
BRANCH  27  29
ATOM     29  C   UNL     1       0.186  -6.308  -1.229  0.00  0.00    +0.038 A 
ATOM     30  C   UNL     1      -0.392  -7.092  -0.229  0.00  0.00    +0.041 A 
ATOM     31  C   UNL     1      -0.250  -8.461  -0.280  0.00  0.00    +0.086 A 
ATOM     32  N   UNL     1       0.423  -9.038  -1.260  0.00  0.00    -0.350 N 
ATOM     33  C   UNL     1       0.988  -8.332  -2.228  0.00  0.00    +0.100 A 
ATOM     34  C   UNL     1       0.883  -6.947  -2.249  0.00  0.00    +0.065 A 
ATOM     35  N   UNL     1       1.687  -8.984  -3.238  0.00  0.00    -0.317 N 
ATOM     36  C   UNL     1       2.366  -8.333  -4.367  0.00  0.00    +0.106 C 
ATOM     37  C   UNL     1       2.979  -9.450  -5.238  0.00  0.00    +0.020 C 
ATOM     38  C   UNL     1       2.130 -10.692  -4.858  0.00  0.00    +0.020 C 
ATOM     39  C   UNL     1       1.874 -10.442  -3.349  0.00  0.00    +0.106 C 
ATOM     40  H   UNL     1       0.507 -10.004  -1.270  0.00  0.00    +0.166 HD
ENDBRANCH  27  29
ENDBRANCH   5  25
TORSDOF 4
