REMARK  Name = CHEMBL325706
REMARK  4 active torsions:
REMARK  status: ('A' for Active; 'I' for Inactive)
REMARK    1  A    between atoms: C_1  and  C_2
REMARK    2  A    between atoms: C_7  and  N_8
REMARK    3  A    between atoms: C_13  and  C_15
REMARK    4  A    between atoms: C_16  and  C_24
REMARK                            x       y       z     vdW  Elec       q    Type
REMARK                         _______ _______ _______ _____ _____    ______ ____
ROOT
ATOM      1  C   UNL     1       2.062   2.625   4.055  0.00  0.00    +0.101 A 
ATOM      2  C   UNL     1       3.308   2.415   4.630  0.00  0.00    +0.101 A 
ATOM      3  N   UNL     1       3.947   3.590   4.672  0.00  0.00    -0.227 NA
ATOM      4  C   UNL     1       3.173   4.535   4.154  0.00  0.00    +0.139 A 
ATOM      5  N   UNL     1       1.992   3.966   3.754  0.00  0.00    -0.297 N 
ATOM      6  C   UNL     1       1.016   4.727   3.179  0.00  0.00    +0.093 A 
ATOM      7  C   UNL     1       1.198   6.052   2.991  0.00  0.00    +0.018 A 
ATOM      8  C   UNL     1       2.399   6.664   3.387  0.00  0.00    +0.005 A 
ATOM      9  C   UNL     1       3.376   5.917   3.969  0.00  0.00    +0.047 A 
ENDROOT
BRANCH   2  10
ATOM     10  C   UNL     1       3.837   1.117   5.113  0.00  0.00    +0.022 A 
ATOM     11  C   UNL     1       3.064  -0.038   5.004  0.00  0.00    +0.011 A 
ATOM     12  C   UNL     1       3.562  -1.244   5.455  0.00  0.00    +0.002 A 
ATOM     13  C   UNL     1       4.825  -1.309   6.016  0.00  0.00    +0.021 A 
ATOM     14  C   UNL     1       5.598  -0.166   6.128  0.00  0.00    +0.060 A 
ATOM     15  C   UNL     1       5.113   1.046   5.674  0.00  0.00    +0.068 A 
ATOM     16 CL   UNL     1       6.086   2.478   5.807  0.00  0.00    -0.081 Cl
ATOM     17 CL   UNL     1       7.182  -0.257   6.832  0.00  0.00    -0.082 Cl
ENDBRANCH   2  10
BRANCH   1  23
ATOM     18  N   UNL     1       0.025  -0.016   2.417  0.00  0.00    -0.196 N 
ATOM     19  C   UNL     1      -0.917  -0.285   3.342  0.00  0.00    +0.272 A 
ATOM     20  O   UNL     1      -1.771  -1.129   3.121  0.00  0.00    -0.266 OA
ATOM     21  C   UNL     1      -0.912   0.413   4.568  0.00  0.00    +0.074 A 
ATOM     22  C   UNL     1       0.045   1.348   4.799  0.00  0.00    +0.037 A 
ATOM     23  C   UNL     1       1.022   1.610   3.809  0.00  0.00    +0.111 A 
ATOM     24  N   UNL     1       1.009   0.947   2.670  0.00  0.00    -0.162 NA
BRANCH  18  31
ATOM     25  C   UNL     1      -0.018   1.503   0.010  0.00  0.00    +0.046 C 
ATOM     26  C   UNL     1       0.002  -0.004   0.002  0.00  0.00    -0.025 A 
ATOM     27  C   UNL     1       0.006  -0.689  -1.197  0.00  0.00    +0.005 A 
ATOM     28  C   UNL     1       0.025  -2.071  -1.206  0.00  0.00    +0.000 A 
ATOM     29  C   UNL     1       0.040  -2.773  -0.014  0.00  0.00    +0.002 A 
ATOM     30  C   UNL     1       0.036  -2.095   1.188  0.00  0.00    +0.028 A 
ATOM     31  C   UNL     1       0.023  -0.706   1.201  0.00  0.00    +0.072 A 
ENDBRANCH  18  31
ENDBRANCH   1  23
TORSDOF 3
