REMARK  Name = CHEMBL1096192
REMARK  4 active torsions:
REMARK  status: ('A' for Active; 'I' for Inactive)
REMARK    1  A    between atoms: C_1  and  C_2
REMARK    2  A    between atoms: C_5  and  C_7
REMARK    3  A    between atoms: C_11  and  C_13
REMARK    4  A    between atoms: C_18  and  C_24
REMARK                            x       y       z     vdW  Elec       q    Type
REMARK                         _______ _______ _______ _____ _____    ______ ____
ROOT
ATOM      1  C   UNL     1       0.061  -7.139   1.147  0.00  0.00    +0.055 A 
ATOM      2  C   UNL     1       1.265  -7.850   1.012  0.00  0.00    +0.058 A 
ATOM      3  C   UNL     1       2.459  -7.297   1.500  0.00  0.00    +0.027 A 
ATOM      4  C   UNL     1       3.629  -7.987   1.369  0.00  0.00    +0.004 A 
ATOM      5  C   UNL     1       3.627  -9.240   0.749  0.00  0.00    +0.027 A 
ATOM      6  C   UNL     1       2.451  -9.772   0.274  0.00  0.00    +0.056 A 
ATOM      7  N   UNL     1       1.271  -9.079   0.406  0.00  0.00    -0.315 N 
ATOM      8  C   UNL     1       0.117  -9.628  -0.072  0.00  0.00    +0.095 A 
ATOM      9  C   UNL     1      -1.062  -8.987   0.033  0.00  0.00    +0.069 A 
ATOM     10  C   UNL     1      -1.128  -7.716   0.654  0.00  0.00    +0.190 A 
ATOM     11  O   UNL     1      -2.196  -7.127   0.759  0.00  0.00    -0.287 OA
ENDROOT
BRANCH   6  12
ATOM     12  C   UNL     1       2.456 -11.095  -0.380  0.00  0.00    +0.034 A 
ATOM     13  C   UNL     1       2.143 -11.208  -1.736  0.00  0.00    +0.015 A 
ATOM     14  C   UNL     1       2.150 -12.446  -2.342  0.00  0.00    +0.039 A 
ATOM     15  C   UNL     1       2.466 -13.580  -1.608  0.00  0.00    +0.126 A 
ATOM     16  C   UNL     1       2.776 -13.476  -0.263  0.00  0.00    +0.077 A 
ATOM     17  C   UNL     1       2.779 -12.241   0.355  0.00  0.00    +0.135 A 
ATOM     18  F   UNL     1       3.088 -12.139   1.667  0.00  0.00    -0.205 F 
ATOM     19  F   UNL     1       2.470 -14.790  -2.209  0.00  0.00    -0.205 F 
ENDBRANCH   6  12
BRANCH   1  24
ATOM     20  C   UNL     1      -0.119  -3.412   1.654  0.00  0.00    +0.039 A 
ATOM     21  C   UNL     1       0.001  -3.325   3.043  0.00  0.00    +0.016 A 
ATOM     22  C   UNL     1       0.138  -4.471   3.800  0.00  0.00    +0.040 A 
ATOM     23  C   UNL     1       0.158  -5.712   3.190  0.00  0.00    +0.131 A 
ATOM     24  C   UNL     1       0.039  -5.812   1.800  0.00  0.00    +0.024 A 
ATOM     25  C   UNL     1      -0.105  -4.659   1.032  0.00  0.00    +0.024 A 
ATOM     26  F   UNL     1       0.292  -6.830   3.937  0.00  0.00    -0.205 F 
BRANCH  20  31
ATOM     27  C   UNL     1      -0.528   1.382   0.251  0.00  0.00    +0.111 C 
ATOM     28  C   UNL     1      -0.442  -0.122   0.238  0.00  0.00    +0.215 A 
ATOM     29  N   UNL     1      -0.497  -0.888  -0.816  0.00  0.00    -0.112 NA
ATOM     30  N   UNL     1      -0.392  -2.119  -0.459  0.00  0.00    -0.107 NA
ATOM     31  C   UNL     1      -0.265  -2.183   0.846  0.00  0.00    +0.248 A 
ATOM     32  O   UNL     1      -0.289  -0.918   1.312  0.00  0.00    -0.421 OA
ENDBRANCH  20  31
ENDBRANCH   1  24
TORSDOF 3
