REMARK  Name = CHEMBL199435
REMARK  8 active torsions:
REMARK  status: ('A' for Active; 'I' for Inactive)
REMARK    1  A    between atoms: C_1  and  C_2
REMARK    2  A    between atoms: C_2  and  C_3
REMARK    3  A    between atoms: C_2  and  C_4
REMARK    4  A    between atoms: C_2  and  N_5
REMARK    5  A    between atoms: C_8  and  O_11
REMARK    6  A    between atoms: O_11  and  C_12
REMARK    7  A    between atoms: C_14  and  C_31
REMARK    8  A    between atoms: N_20  and  C_23
REMARK                            x       y       z     vdW  Elec       q    Type
REMARK                         _______ _______ _______ _____ _____    ______ ____
ROOT
ATOM      1  C   UNL     1       4.716  -2.417  -3.885  0.00  0.00    +0.123 A 
ATOM      2  C   UNL     1       5.457  -2.237  -2.722  0.00  0.00    +0.055 A 
ATOM      3  C   UNL     1       6.840  -2.333  -2.753  0.00  0.00    -0.003 A 
ATOM      4  C   UNL     1       7.490  -2.615  -3.974  0.00  0.00    +0.007 A 
ATOM      5  C   UNL     1       8.900  -2.719  -4.038  0.00  0.00    +0.016 A 
ATOM      6  C   UNL     1       9.491  -2.992  -5.230  0.00  0.00    +0.071 A 
ATOM      7  C   UNL     1       8.708  -3.168  -6.388  0.00  0.00    +0.256 A 
ATOM      8  O   UNL     1       9.254  -3.412  -7.450  0.00  0.00    -0.267 OA
ATOM      9  N   UNL     1       7.366  -3.071  -6.339  0.00  0.00    -0.274 N 
ATOM     10  C   UNL     1       6.729  -2.795  -5.144  0.00  0.00    +0.061 A 
ATOM     11  C   UNL     1       5.345  -2.700  -5.087  0.00  0.00    +0.072 A 
ENDROOT
BRANCH   9  12
ATOM     12  C   UNL     1       6.612  -3.251  -7.505  0.00  0.00    +0.087 A 
ATOM     13  C   UNL     1       6.319  -2.163  -8.319  0.00  0.00    +0.066 A 
ATOM     14  C   UNL     1       5.574  -2.345  -9.469  0.00  0.00    +0.022 A 
ATOM     15  C   UNL     1       5.122  -3.606  -9.811  0.00  0.00    +0.003 A 
ATOM     16  C   UNL     1       5.412  -4.690  -9.003  0.00  0.00    +0.022 A 
ATOM     17  C   UNL     1       6.161  -4.518  -7.854  0.00  0.00    +0.066 A 
ATOM     18 CL   UNL     1       6.531  -5.881  -6.845  0.00  0.00    -0.081 Cl
ATOM     19 CL   UNL     1       6.885  -0.579  -7.890  0.00  0.00    -0.081 Cl
ENDBRANCH   9  12
BRANCH   3  20
ATOM     20  C   UNL     1       7.630  -2.140  -1.515  0.00  0.00    +0.018 A 
ATOM     21  C   UNL     1       7.508  -3.044  -0.459  0.00  0.00    +0.014 A 
ATOM     22  C   UNL     1       8.245  -2.861   0.691  0.00  0.00    +0.039 A 
ATOM     23  C   UNL     1       9.108  -1.781   0.802  0.00  0.00    +0.126 A 
ATOM     24  C   UNL     1       9.234  -0.880  -0.242  0.00  0.00    +0.077 A 
ATOM     25  C   UNL     1       8.504  -1.056  -1.402  0.00  0.00    +0.134 A 
ATOM     26  F   UNL     1       8.631  -0.180  -2.423  0.00  0.00    -0.205 F 
ATOM     27  F   UNL     1       9.827  -1.607   1.932  0.00  0.00    -0.205 F 
ENDBRANCH   3  20
BRANCH   1  28
ATOM     28  O   UNL     1       3.362  -2.321  -3.841  0.00  0.00    -0.489 OA
BRANCH  28  32
ATOM     29  N   UNL     1       0.669  -0.960  -0.947  0.00  0.00    +0.383 N 
ATOM     30  C   UNL     1       0.665  -2.400  -1.228  0.00  0.00    -0.075 C 
ATOM     31  C   UNL     1       1.323  -2.661  -2.585  0.00  0.00    +0.026 C 
ATOM     32  C   UNL     1       2.766  -2.149  -2.554  0.00  0.00    +0.170 C 
ATOM     33  C   UNL     1       2.762  -0.662  -2.186  0.00  0.00    +0.026 C 
ATOM     34  C   UNL     1       2.051  -0.476  -0.844  0.00  0.00    -0.075 C 
ATOM     35  H   UNL     1       0.198  -0.472  -1.694  0.00  0.00    -0.081 HD
BRANCH  29  37
ATOM     36  C   UNL     1      -0.037   0.794   0.609  0.00  0.00    -0.010 C 
ATOM     37  C   UNL     1      -0.032  -0.708   0.319  0.00  0.00    -0.074 C 
ATOM     38  C   UNL     1       0.684  -1.444   1.454  0.00  0.00    -0.010 C 
ATOM     39  C   UNL     1      -1.473  -1.212   0.213  0.00  0.00    -0.010 C 
ENDBRANCH  29  37
ENDBRANCH  28  32
ENDBRANCH   1  28
TORSDOF 5
