REMARK  Name = CHEMBL569551
REMARK  9 active torsions:
REMARK  status: ('A' for Active; 'I' for Inactive)
REMARK    1  A    between atoms: C_1  and  C_2
REMARK    2  A    between atoms: C_2  and  C_3
REMARK    3  A    between atoms: C_3  and  C_4
REMARK    4  A    between atoms: C_3  and  N_5
REMARK    5  A    between atoms: C_8  and  C_12
REMARK    6  A    between atoms: C_13  and  C_20
REMARK    7  A    between atoms: C_16  and  C_17
REMARK    8  A    between atoms: C_17  and  C_18
REMARK    9  A    between atoms: C_17  and  C_19
REMARK                            x       y       z     vdW  Elec       q    Type
REMARK                         _______ _______ _______ _____ _____    ______ ____
ROOT
ATOM      1  C   UNL     1       2.463  -0.353   6.061  0.00  0.00    +0.052 A 
ATOM      2  C   UNL     1       1.376   0.400   6.699  0.00  0.00    +0.121 A 
ATOM      3  N   UNL     1       1.157  -0.160   7.864  0.00  0.00    -0.077 NA
ATOM      4  O   UNL     1       2.051  -1.244   8.015  0.00  0.00    -0.358 OA
ATOM      5  C   UNL     1       2.817  -1.343   6.921  0.00  0.00    +0.148 A 
ENDROOT
BRANCH   1   9
ATOM      6  N   UNL     1       2.148  -0.104   1.172  0.00  0.00    -0.328 N 
ATOM      7  C   UNL     1       2.891   0.031   2.339  0.00  0.00    +0.097 A 
ATOM      8  C   UNL     1       2.296  -0.228   3.566  0.00  0.00    +0.050 A 
ATOM      9  C   UNL     1       3.056  -0.089   4.728  0.00  0.00    -0.008 A 
ATOM     10  C   UNL     1       4.393   0.309   4.602  0.00  0.00    +0.026 A 
ATOM     11  C   UNL     1       4.908   0.546   3.347  0.00  0.00    +0.085 A 
ATOM     12  N   UNL     1       4.162   0.399   2.267  0.00  0.00    -0.350 N 
ATOM     13  H   UNL     1       2.559   0.072   0.311  0.00  0.00    +0.148 HD
ATOM     14  H   UNL     1       4.554   0.570   1.397  0.00  0.00    +0.166 HD
BRANCH   6  15
ATOM     15  C   UNL     1       0.742  -0.511   1.242  0.00  0.00    +0.068 C 
ATOM     16  C   UNL     1       0.655  -2.037   1.299  0.00  0.00    +0.028 C 
BRANCH  15  18
ATOM     17  C   UNL     1      -0.019   1.526   0.010  0.00  0.00    +0.005 C 
ATOM     18  C   UNL     1       0.002  -0.004   0.002  0.00  0.00    +0.018 C 
ENDBRANCH  15  18
ENDBRANCH   6  15
ENDBRANCH   1   9
BRANCH   2  19
ATOM     19  C   UNL     1       0.663   1.570   6.134  0.00  0.00    +0.004 A 
ATOM     20  C   UNL     1       1.347   2.489   5.340  0.00  0.00    +0.013 A 
ATOM     21  C   UNL     1       0.679   3.576   4.816  0.00  0.00    +0.039 A 
ATOM     22  C   UNL     1      -0.670   3.756   5.079  0.00  0.00    +0.123 A 
ATOM     23  C   UNL     1      -1.354   2.845   5.868  0.00  0.00    +0.039 A 
ATOM     24  C   UNL     1      -0.695   1.752   6.391  0.00  0.00    +0.013 A 
ATOM     25  F   UNL     1      -1.320   4.823   4.564  0.00  0.00    -0.205 F 
ENDBRANCH   2  19
BRANCH   5  26
ATOM     26  C   UNL     1       3.892  -2.373   6.687  0.00  0.00    +0.052 C 
ATOM     27  C   UNL     1       4.959  -2.255   7.777  0.00  0.00    +0.015 C 
ATOM     28  C   UNL     1       3.275  -3.772   6.727  0.00  0.00    +0.015 C 
ENDBRANCH   5  26
TORSDOF 5
