REMARK  Name = CHEMBL476752
REMARK  9 active torsions:
REMARK  status: ('A' for Active; 'I' for Inactive)
REMARK    1  A    between atoms: C_1  and  C_2
REMARK    2  A    between atoms: C_5  and  C_25
REMARK    3  A    between atoms: C_7  and  C_8
REMARK    4  A    between atoms: C_11  and  C_14
REMARK    5  A    between atoms: N_16  and  C_17
REMARK    6  A    between atoms: C_21  and  C_23
REMARK    7  A    between atoms: N_27  and  C_28
REMARK    8  A    between atoms: C_32  and  N_34
REMARK    9  A    between atoms: C_35  and  C_37
REMARK                            x       y       z     vdW  Elec       q    Type
REMARK                         _______ _______ _______ _____ _____    ______ ____
ROOT
ATOM      1  C   UNL     1      -1.104   0.578  -0.329  0.00  0.00    +0.044 C 
ATOM      2  C   UNL     1      -1.018  -0.825   0.216  0.00  0.00    -0.043 A 
ATOM      3  C   UNL     1      -1.357  -1.897  -0.585  0.00  0.00    +0.005 A 
ATOM      4  C   UNL     1      -1.282  -3.185  -0.093  0.00  0.00    +0.013 A 
ATOM      5  C   UNL     1      -0.861  -3.410   1.219  0.00  0.00    +0.038 A 
ATOM      6  C   UNL     1      -0.518  -2.331   2.032  0.00  0.00    +0.021 A 
ATOM      7  C   UNL     1      -0.591  -1.036   1.527  0.00  0.00    -0.014 A 
ENDROOT
BRANCH   7   8
ATOM      8  C   UNL     1      -0.222   0.117   2.383  0.00  0.00    -0.018 A 
ATOM      9  C   UNL     1       0.659   1.087   1.905  0.00  0.00    +0.009 A 
ATOM     10  C   UNL     1       1.002   2.158   2.699  0.00  0.00    +0.013 A 
ATOM     11  C   UNL     1       0.467   2.273   3.984  0.00  0.00    +0.037 A 
ATOM     12  C   UNL     1      -0.416   1.302   4.462  0.00  0.00    +0.013 A 
ATOM     13  C   UNL     1      -0.761   0.234   3.665  0.00  0.00    +0.009 A 
BRANCH  11  14
ATOM     14  C   UNL     1       0.835   3.422   4.837  0.00  0.00    +0.248 C 
ATOM     15  O   UNL     1       1.603   4.267   4.420  0.00  0.00    -0.270 OA
ATOM     16  N   UNL     1       0.318   3.533   6.077  0.00  0.00    -0.281 N 
ATOM     17  H   UNL     1      -0.351   2.901   6.382  0.00  0.00    +0.155 HD
BRANCH  16  18
ATOM     18  C   UNL     1       0.747   4.561   6.923  0.00  0.00    +0.035 A 
ATOM     19  C   UNL     1      -0.139   5.130   7.830  0.00  0.00    +0.023 A 
ATOM     20  C   UNL     1       0.279   6.145   8.669  0.00  0.00    +0.003 A 
ATOM     21  C   UNL     1       1.581   6.601   8.613  0.00  0.00    +0.019 A 
ATOM     22  C   UNL     1       2.479   6.037   7.705  0.00  0.00    +0.054 A 
ATOM     23  C   UNL     1       2.058   5.008   6.862  0.00  0.00    +0.042 A 
BRANCH  22  24
ATOM     24  C   UNL     1       3.830   6.508   7.643  0.00  0.00    +0.099 C 
ATOM     25  N   UNL     1       4.901   6.883   7.594  0.00  0.00    -0.191 NA
ENDBRANCH  22  24
ENDBRANCH  16  18
ENDBRANCH  11  14
ENDBRANCH   7   8
BRANCH   5  26
ATOM     26  C   UNL     1      -0.780  -4.789   1.746  0.00  0.00    +0.248 C 
ATOM     27  O   UNL     1      -0.414  -4.983   2.888  0.00  0.00    -0.270 OA
ATOM     28  N   UNL     1      -1.113  -5.831   0.959  0.00  0.00    -0.281 N 
ATOM     29  H   UNL     1      -1.334  -5.683   0.025  0.00  0.00    +0.155 HD
BRANCH  28  30
ATOM     30  C   UNL     1      -1.141  -7.126   1.487  0.00  0.00    +0.035 A 
ATOM     31  C   UNL     1      -0.789  -8.209   0.691  0.00  0.00    +0.023 A 
ATOM     32  C   UNL     1      -0.817  -9.488   1.212  0.00  0.00    +0.004 A 
ATOM     33  C   UNL     1      -1.192  -9.695   2.525  0.00  0.00    +0.023 A 
ATOM     34  C   UNL     1      -1.545  -8.616   3.326  0.00  0.00    +0.035 A 
ATOM     35  C   UNL     1      -1.513  -7.329   2.808  0.00  0.00    +0.046 A 
BRANCH  34  36
ATOM     36  N   UNL     1      -1.926  -8.826   4.656  0.00  0.00    -0.286 N 
ATOM     37  C   UNL     1      -1.371  -9.828   5.366  0.00  0.00    +0.214 C 
ATOM     38  O   UNL     1      -0.473 -10.486   4.886  0.00  0.00    -0.276 OA
ATOM     39  C   UNL     1      -1.865 -10.129   6.757  0.00  0.00    +0.109 C 
ATOM     40  H   UNL     1      -2.590  -8.250   5.067  0.00  0.00    +0.155 HD
ENDBRANCH  34  36
ENDBRANCH  28  30
ENDBRANCH   5  26
TORSDOF 7
