REMARK  Name = CHEMBL264627
REMARK  5 active torsions:
REMARK  status: ('A' for Active; 'I' for Inactive)
REMARK    1  A    between atoms: C_4  and  N_8
REMARK    2  A    between atoms: C_11  and  C_27
REMARK    3  A    between atoms: C_13  and  C_19
REMARK    4  A    between atoms: N_30  and  C_33
REMARK    5  A    between atoms: C_33  and  C_34
REMARK                            x       y       z     vdW  Elec       q    Type
REMARK                         _______ _______ _______ _____ _____    ______ ____
ROOT
ATOM      1  N   UNL     1       3.625  -0.652  -0.037  0.00  0.00    -0.221 N 
ATOM      2  C   UNL     1       4.197  -0.965  -1.272  0.00  0.00    +0.048 A 
ATOM      3  C   UNL     1       3.566  -0.607  -2.457  0.00  0.00    +0.028 A 
ATOM      4  C   UNL     1       4.143  -0.923  -3.672  0.00  0.00    -0.042 A 
ATOM      5  C   UNL     1       5.348  -1.595  -3.722  0.00  0.00    +0.013 A 
ATOM      6  C   UNL     1       5.991  -1.959  -2.538  0.00  0.00    -0.010 A 
ATOM      7  C   UNL     1       5.409  -1.641  -1.320  0.00  0.00    -0.001 A 
ATOM      8  C   UNL     1       6.068  -2.015  -0.012  0.00  0.00    +0.143 C 
ATOM      9  N   UNL     1       5.364  -1.629   1.223  0.00  0.00    -0.295 N 
ATOM     10  C   UNL     1       4.196  -0.970   1.132  0.00  0.00    +0.311 C 
ATOM     11  O   UNL     1       3.628  -0.652   2.159  0.00  0.00    -0.252 OA
ATOM     12  H   UNL     1       5.741  -1.844   2.090  0.00  0.00    +0.151 HD
ENDROOT
BRANCH   1  16
ATOM     13  C   UNL     1      -0.017   1.379   0.010  0.00  0.00    +0.003 A 
ATOM     14  C   UNL     1       1.169   2.089   0.002  0.00  0.00    +0.022 A 
ATOM     15  C   UNL     1       2.378   1.419  -0.013  0.00  0.00    +0.064 A 
ATOM     16  C   UNL     1       2.401   0.030  -0.021  0.00  0.00    +0.079 A 
ATOM     17  C   UNL     1       1.208  -0.680  -0.013  0.00  0.00    +0.064 A 
ATOM     18  C   UNL     1       0.002  -0.004   0.002  0.00  0.00    +0.022 A 
ATOM     19 CL   UNL     1       1.230  -2.416  -0.023  0.00  0.00    -0.082 Cl
ATOM     20 CL   UNL     1       3.867   2.313  -0.024  0.00  0.00    -0.082 Cl
ENDBRANCH   1  16
BRANCH   6  21
ATOM     21  C   UNL     1       7.287  -2.682  -2.582  0.00  0.00    +0.001 A 
ATOM     22  C   UNL     1       8.418  -2.056  -3.102  0.00  0.00    +0.013 A 
ATOM     23  C   UNL     1       9.621  -2.731  -3.140  0.00  0.00    +0.039 A 
ATOM     24  C   UNL     1       9.705  -4.030  -2.663  0.00  0.00    +0.125 A 
ATOM     25  C   UNL     1       8.584  -4.656  -2.146  0.00  0.00    +0.059 A 
ATOM     26  C   UNL     1       7.377  -3.986  -2.097  0.00  0.00    +0.051 A 
ATOM     27 CL   UNL     1       5.973  -4.769  -1.441  0.00  0.00    -0.083 Cl
ATOM     28  F   UNL     1      10.885  -4.687  -2.704  0.00  0.00    -0.205 F 
ENDBRANCH   6  21
BRANCH   4  29
ATOM     29  C   UNL     1       3.452  -0.531  -4.953  0.00  0.00    +0.016 C 
ATOM     30  C   UNL     1       3.154  -1.786  -5.778  0.00  0.00    -0.011 C 
ATOM     31  C   UNL     1       2.524  -1.375  -7.111  0.00  0.00    -0.078 C 
ATOM     32  N   UNL     1       3.454  -0.512  -7.850  0.00  0.00    +0.380 N 
ATOM     33  C   UNL     1       3.688   0.726  -7.097  0.00  0.00    -0.078 C 
ATOM     34  C   UNL     1       4.362   0.396  -5.763  0.00  0.00    -0.011 C 
ATOM     35  H   UNL     1       4.329  -0.996  -7.981  0.00  0.00    -0.082 HD
BRANCH  32  36
ATOM     36  C   UNL     1       2.878  -0.184  -9.161  0.00  0.00    -0.075 C 
BRANCH  36  37
ATOM     37  C   UNL     1       3.896   0.612  -9.980  0.00  0.00    -0.028 C 
ATOM     38  C   UNL     1       3.831   2.129  -9.738  0.00  0.00    +0.002 C 
ATOM     39  C   UNL     1       4.053   2.301 -11.250  0.00  0.00    +0.000 C 
ATOM     40  C   UNL     1       3.437   0.902 -11.419  0.00  0.00    +0.002 C 
ENDBRANCH  36  37
ENDBRANCH  32  36
ENDBRANCH   4  29
TORSDOF 5
