REMARK  Name = CHEMBL1091259
REMARK  6 active torsions:
REMARK  status: ('A' for Active; 'I' for Inactive)
REMARK    1  A    between atoms: C_1  and  C_2
REMARK    2  A    between atoms: C_2  and  N_3
REMARK    3  A    between atoms: N_10  and  C_11
REMARK    4  A    between atoms: C_11  and  C_13
REMARK    5  A    between atoms: C_11  and  C_14
REMARK    6  A    between atoms: C_20  and  C_22
REMARK                            x       y       z     vdW  Elec       q    Type
REMARK                         _______ _______ _______ _____ _____    ______ ____
ROOT
ATOM      1  N   UNL     1       0.732  -0.416   1.217  0.00  0.00    -0.252 N 
ATOM      2  C   UNL     1       0.055  -0.575   2.420  0.00  0.00    +0.133 A 
ATOM      3  C   UNL     1      -1.309  -0.293   2.508  0.00  0.00    +0.064 A 
ATOM      4  C   UNL     1      -1.940  -0.466   3.725  0.00  0.00    +0.118 A 
ATOM      5  N   UNL     1      -1.238  -0.890   4.765  0.00  0.00    -0.223 NA
ATOM      6  C   UNL     1       0.056  -1.150   4.652  0.00  0.00    +0.217 A 
ATOM      7  N   UNL     1       0.697  -1.003   3.502  0.00  0.00    -0.199 NA
ATOM      8  N   UNL     1       0.755  -1.592   5.762  0.00  0.00    -0.307 N 
ATOM      9  C   UNL     1       2.022  -0.792   1.114  0.00  0.00    +0.255 C 
ATOM     10  O   UNL     1       2.570  -1.346   2.047  0.00  0.00    -0.269 OA
ATOM     11  H   UNL     1       1.703  -1.786   5.693  0.00  0.00    +0.149 HD
ENDROOT
BRANCH   9  12
ATOM     12  C   UNL     1       2.769  -0.530  -0.130  0.00  0.00    +0.079 A 
ATOM     13  C   UNL     1       2.320  -1.062  -1.340  0.00  0.00    +0.017 A 
ATOM     14  C   UNL     1       3.017  -0.821  -2.504  0.00  0.00    +0.001 A 
ATOM     15  C   UNL     1       4.169  -0.050  -2.474  0.00  0.00    +0.007 A 
ATOM     16  C   UNL     1       4.623   0.477  -1.286  0.00  0.00    -0.002 A 
ATOM     17  C   UNL     1       3.933   0.260  -0.101  0.00  0.00    +0.136 A 
ATOM     18  O   UNL     1       4.533   0.890   0.943  0.00  0.00    -0.491 OA
ATOM     19  C   UNL     1       5.892   1.200   0.591  0.00  0.00    +0.234 C 
ATOM     20  C   UNL     1       5.831   1.329  -0.946  0.00  0.00    +0.080 C 
ENDBRANCH   9  12
BRANCH   1  22
ATOM     21  C   UNL     1       0.120   1.686   0.127  0.00  0.00    +0.025 C 
ATOM     22  C   UNL     1       0.042   0.159   0.059  0.00  0.00    +0.112 C 
ENDBRANCH   1  22
BRANCH   8  23
ATOM     23  C   UNL     1       0.063  -1.767   7.041  0.00  0.00    +0.100 C 
ATOM     24  C   UNL     1      -0.590  -3.151   7.083  0.00  0.00    +0.033 C 
BRANCH  23  25
ATOM     25  C   UNL     1       1.054  -1.645   8.169  0.00  0.00    -0.027 A 
ATOM     26  C   UNL     1       2.315  -2.199   8.045  0.00  0.00    +0.005 A 
ATOM     27  C   UNL     1       3.224  -2.087   9.080  0.00  0.00    +0.000 A 
ATOM     28  C   UNL     1       2.874  -1.420  10.239  0.00  0.00    +0.000 A 
ATOM     29  C   UNL     1       1.614  -0.866  10.363  0.00  0.00    +0.000 A 
ATOM     30  C   UNL     1       0.706  -0.974   9.326  0.00  0.00    +0.005 A 
ENDBRANCH  23  25
ENDBRANCH   8  23
TORSDOF 4
