REMARK  Name = CHEMBL188114
REMARK  12 active torsions:
REMARK  status: ('A' for Active; 'I' for Inactive)
REMARK    1  A    between atoms: C_1  and  C_2
REMARK    2  A    between atoms: C_5  and  N_27
REMARK    3  A    between atoms: C_7  and  N_8
REMARK    4  A    between atoms: C_12  and  O_21
REMARK    5  A    between atoms: C_13  and  O_19
REMARK    6  A    between atoms: O_19  and  C_20
REMARK    7  A    between atoms: O_21  and  C_22
REMARK    8  A    between atoms: C_22  and  C_23
REMARK    9  A    between atoms: C_23  and  N_24
REMARK   10  A    between atoms: N_24  and  C_25
REMARK   11  A    between atoms: N_24  and  C_26
REMARK   12  A    between atoms: C_28  and  C_30
REMARK                            x       y       z     vdW  Elec       q    Type
REMARK                         _______ _______ _______ _____ _____    ______ ____
ROOT
ATOM      1  C   UNL     1      -0.014   1.355  -0.061  0.00  0.00    +0.045 C 
ATOM      2  C   UNL     1       0.248  -0.126  -0.159  0.00  0.00    -0.029 A 
ATOM      3  C   UNL     1       0.159  -0.763  -1.382  0.00  0.00    +0.007 A 
ATOM      4  C   UNL     1       0.398  -2.120  -1.476  0.00  0.00    +0.024 A 
ATOM      5  C   UNL     1       0.728  -2.850  -0.340  0.00  0.00    +0.035 A 
ATOM      6  C   UNL     1       0.818  -2.213   0.889  0.00  0.00    +0.046 A 
ATOM      7  C   UNL     1       0.583  -0.848   0.979  0.00  0.00    +0.037 A 
ENDROOT
BRANCH   7   8
ATOM      8  N   UNL     1       0.678  -0.202   2.215  0.00  0.00    -0.299 N 
ATOM      9  C   UNL     1       0.553  -0.926   3.384  0.00  0.00    +0.134 A 
ATOM     10  C   UNL     1       0.779  -0.319   4.642  0.00  0.00    +0.044 A 
ATOM     11  C   UNL     1       1.137   1.030   4.761  0.00  0.00    +0.062 A 
ATOM     12  C   UNL     1       1.344   1.569   5.998  0.00  0.00    +0.163 A 
ATOM     13  C   UNL     1       1.202   0.786   7.153  0.00  0.00    +0.164 A 
ATOM     14  C   UNL     1       0.851  -0.542   7.064  0.00  0.00    +0.078 A 
ATOM     15  C   UNL     1       0.634  -1.115   5.805  0.00  0.00    +0.080 A 
ATOM     16  N   UNL     1       0.290  -2.405   5.664  0.00  0.00    -0.235 NA
ATOM     17  C   UNL     1       0.092  -2.914   4.471  0.00  0.00    +0.223 A 
ATOM     18  N   UNL     1       0.211  -2.207   3.358  0.00  0.00    -0.220 NA
ATOM     19  H   UNL     1       0.833   0.755   2.251  0.00  0.00    +0.154 HD
BRANCH  13  20
ATOM     20  O   UNL     1       1.414   1.345   8.373  0.00  0.00    -0.491 OA
ATOM     21  C   UNL     1       1.254   0.496   9.512  0.00  0.00    +0.277 C 
ENDBRANCH  13  20
BRANCH  12  22
ATOM     22  O   UNL     1       1.692   2.878   6.112  0.00  0.00    -0.490 OA
BRANCH  22  23
ATOM     23  C   UNL     1       1.821   3.623   4.899  0.00  0.00    +0.211 C 
BRANCH  23  24
ATOM     24  C   UNL     1       2.215   5.065   5.225  0.00  0.00    -0.038 C 
BRANCH  24  25
ATOM     25  N   UNL     1       3.551   5.082   5.836  0.00  0.00    +0.378 N 
ATOM     26  C   UNL     1       4.543   4.620   4.855  0.00  0.00    -0.096 C 
ATOM     27  C   UNL     1       3.879   6.450   6.258  0.00  0.00    -0.096 C 
ATOM     28  H   UNL     1       3.562   4.470   6.638  0.00  0.00    -0.082 HD
ENDBRANCH  24  25
ENDBRANCH  23  24
ENDBRANCH  22  23
ENDBRANCH  12  22
ENDBRANCH   7   8
BRANCH   5  29
ATOM     29  N   UNL     1       0.969  -4.224  -0.436  0.00  0.00    -0.281 N 
ATOM     30  C   UNL     1       1.655  -4.716  -1.487  0.00  0.00    +0.248 C 
ATOM     31  O   UNL     1       1.986  -3.980  -2.395  0.00  0.00    -0.270 OA
ATOM     32  H   UNL     1       0.642  -4.823   0.253  0.00  0.00    +0.155 HD
BRANCH  30  33
ATOM     33  C   UNL     1       2.005  -6.154  -1.534  0.00  0.00    +0.042 A 
ATOM     34  C   UNL     1       1.629  -7.020  -0.501  0.00  0.00    +0.033 A 
ATOM     35  C   UNL     1       1.974  -8.354  -0.581  0.00  0.00    +0.113 A 
ATOM     36  N   UNL     1       2.650  -8.819  -1.613  0.00  0.00    -0.240 NA
ATOM     37  C   UNL     1       3.028  -8.039  -2.613  0.00  0.00    +0.122 A 
ATOM     38  C   UNL     1       2.715  -6.683  -2.613  0.00  0.00    +0.056 A 
ATOM     39  N   UNL     1       3.740  -8.580  -3.677  0.00  0.00    -0.311 N 
ATOM     40  C   UNL     1       3.895 -10.036  -3.822  0.00  0.00    +0.134 C 
ATOM     41  C   UNL     1       3.497 -10.426  -5.250  0.00  0.00    +0.178 C 
ATOM     42  O   UNL     1       4.222  -9.615  -6.178  0.00  0.00    -0.377 OA
ATOM     43  C   UNL     1       3.939  -8.217  -6.078  0.00  0.00    +0.178 C 
ATOM     44  C   UNL     1       4.355  -7.715  -4.696  0.00  0.00    +0.134 C 
ENDBRANCH  30  33
ENDBRANCH   5  29
TORSDOF 8
