REMARK  Name = CHEMBL1209013
REMARK  12 active torsions:
REMARK  status: ('A' for Active; 'I' for Inactive)
REMARK    1  A    between atoms: C_1  and  C_2
REMARK    2  A    between atoms: C_4  and  C_8
REMARK    3  A    between atoms: C_11  and  C_18
REMARK    4  A    between atoms: C_18  and  C_20
REMARK    5  A    between atoms: N_22  and  C_23
REMARK    6  A    between atoms: C_25  and  C_33
REMARK    7  A    between atoms: C_27  and  C_31
REMARK    8  A    between atoms: C_28  and  O_29
REMARK    9  A    between atoms: O_29  and  C_30
REMARK   10  A    between atoms: C_33  and  C_34
REMARK   11  A    between atoms: C_33  and  C_35
REMARK   12  A    between atoms: C_33  and  C_36
REMARK                            x       y       z     vdW  Elec       q    Type
REMARK                         _______ _______ _______ _____ _____    ______ ____
ROOT
ATOM      1  C   UNL     1      -0.039  -4.987  -6.177  0.00  0.00    +0.248 C 
ATOM      2  O   UNL     1       0.819  -5.810  -6.429  0.00  0.00    -0.282 OA
ENDROOT
BRANCH   1   6
ATOM      3  C   UNL     1       0.049  -2.829  -2.474  0.00  0.00    -0.010 A 
ATOM      4  C   UNL     1      -0.881  -2.534  -3.459  0.00  0.00    +0.010 A 
ATOM      5  C   UNL     1      -0.913  -3.227  -4.654  0.00  0.00    +0.013 A 
ATOM      6  C   UNL     1      -0.002  -4.254  -4.907  0.00  0.00    +0.035 A 
ATOM      7  C   UNL     1       0.992  -4.587  -3.885  0.00  0.00    -0.006 A 
ATOM      8  C   UNL     1       1.003  -3.855  -2.674  0.00  0.00    -0.009 A 
ATOM      9  C   UNL     1       1.955  -4.166  -1.693  0.00  0.00    +0.009 A 
ATOM     10  C   UNL     1       2.858  -5.161  -1.920  0.00  0.00    +0.001 A 
ATOM     11  C   UNL     1       2.849  -5.876  -3.114  0.00  0.00    +0.001 A 
ATOM     12  C   UNL     1       1.929  -5.606  -4.085  0.00  0.00    +0.009 A 
BRANCH   3  16
ATOM     13  C   UNL     1       0.006   1.519  -0.004  0.00  0.00    +0.065 C 
ATOM     14  C   UNL     1       0.027   0.013  -0.011  0.00  0.00    +0.039 A 
ATOM     15  C   UNL     1       0.028  -0.662  -1.215  0.00  0.00    +0.031 A 
ATOM     16  C   UNL     1       0.048  -2.062  -1.208  0.00  0.00    -0.014 A 
ATOM     17  C   UNL     1       0.066  -2.716   0.029  0.00  0.00    +0.028 A 
ATOM     18  C   UNL     1       0.064  -1.961   1.185  0.00  0.00    +0.111 A 
ATOM     19  N   UNL     1       0.050  -0.643   1.133  0.00  0.00    -0.260 NA
ENDBRANCH   3  16
ENDBRANCH   1   6
BRANCH   1  20
ATOM     20  C   UNL     1      -1.130  -4.724  -7.158  0.00  0.00    +0.289 C 
ATOM     21  O   UNL     1      -1.935  -3.839  -6.948  0.00  0.00    -0.266 OA
ATOM     22  N   UNL     1      -1.224  -5.469  -8.277  0.00  0.00    -0.276 N 
ATOM     23  H   UNL     1      -0.633  -6.228  -8.406  0.00  0.00    +0.155 HD
BRANCH  22  24
ATOM     24  C   UNL     1      -2.173  -5.147  -9.254  0.00  0.00    +0.077 A 
ATOM     25  C   UNL     1      -2.647  -3.848  -9.359  0.00  0.00    +0.031 A 
ATOM     26  C   UNL     1      -3.586  -3.522 -10.323  0.00  0.00    -0.039 A 
ATOM     27  C   UNL     1      -4.059  -4.486 -11.188  0.00  0.00    +0.026 A 
ATOM     28  C   UNL     1      -3.591  -5.800 -11.095  0.00  0.00    +0.095 A 
ATOM     29  C   UNL     1      -2.637  -6.130 -10.125  0.00  0.00    +0.158 A 
BRANCH  26  30
ATOM     30  C   UNL     1      -4.093  -2.107 -10.428  0.00  0.00    -0.013 C 
ATOM     31  C   UNL     1      -2.922  -1.166 -10.716  0.00  0.00    +0.015 C 
ATOM     32  C   UNL     1      -5.114  -2.014 -11.564  0.00  0.00    +0.015 C 
ATOM     33  C   UNL     1      -4.758  -1.706  -9.110  0.00  0.00    +0.015 C 
ENDBRANCH  26  30
BRANCH  29  34
ATOM     34  O   UNL     1      -2.172  -7.402 -10.030  0.00  0.00    -0.492 OA
ATOM     35  C   UNL     1      -2.885  -8.291  -9.167  0.00  0.00    +0.277 C 
ENDBRANCH  29  34
BRANCH  28  36
ATOM     36  C   UNL     1      -4.082  -6.803 -11.992  0.00  0.00    +0.103 C 
ATOM     37  N   UNL     1      -4.471  -7.599 -12.703  0.00  0.00    -0.191 NA
ENDBRANCH  28  36
ENDBRANCH  22  24
ENDBRANCH   1  20
TORSDOF 7
