REMARK  Name = CHEMBL545353
REMARK  7 active torsions:
REMARK  status: ('A' for Active; 'I' for Inactive)
REMARK    1  A    between atoms: C_1  and  C_2
REMARK    2  A    between atoms: C_2  and  C_4
REMARK    3  A    between atoms: C_2  and  N_10
REMARK    4  A    between atoms: C_15  and  C_17
REMARK    5  A    between atoms: C_19  and  C_33
REMARK    6  A    between atoms: C_22  and  C_23
REMARK    7  A    between atoms: C_27  and  C_29
REMARK                            x       y       z     vdW  Elec       q    Type
REMARK                         _______ _______ _______ _____ _____    ______ ____
ROOT
ATOM      1  C   UNL     1       0.816  -1.687   5.811  0.00  0.00    +0.030 A 
ATOM      2  C   UNL     1       0.201  -1.762   7.065  0.00  0.00    +0.037 A 
ATOM      3  C   UNL     1       0.945  -2.252   8.125  0.00  0.00    +0.067 A 
ATOM      4  N   UNL     1       2.196  -2.632   7.938  0.00  0.00    -0.153 NA
ATOM      5  N   UNL     1       2.773  -2.570   6.794  0.00  0.00    -0.148 NA
ATOM      6  C   UNL     1       2.150  -2.122   5.711  0.00  0.00    +0.102 A 
ENDROOT
BRANCH   1  12
ATOM      7  N   UNL     1      -0.546  -2.135   1.254  0.00  0.00    -0.307 N 
ATOM      8  C   UNL     1      -0.566  -1.400   2.427  0.00  0.00    +0.216 A 
ATOM      9  N   UNL     1      -1.237  -0.258   2.462  0.00  0.00    -0.223 NA
ATOM     10  C   UNL     1      -1.280   0.474   3.564  0.00  0.00    +0.116 A 
ATOM     11  C   UNL     1      -0.613   0.035   4.694  0.00  0.00    +0.048 A 
ATOM     12  C   UNL     1       0.086  -1.174   4.628  0.00  0.00    +0.078 A 
ATOM     13  N   UNL     1       0.081  -1.859   3.486  0.00  0.00    -0.214 NA
ATOM     14  H   UNL     1      -0.062  -2.975   1.216  0.00  0.00    +0.149 HD
BRANCH   7  16
ATOM     15  C   UNL     1      -0.357  -0.672  -0.696  0.00  0.00    +0.033 C 
ATOM     16  C   UNL     1      -1.256  -1.644   0.070  0.00  0.00    +0.100 C 
BRANCH  16  17
ATOM     17  C   UNL     1      -1.612  -2.807  -0.820  0.00  0.00    -0.027 A 
ATOM     18  C   UNL     1      -0.713  -3.841  -0.999  0.00  0.00    +0.005 A 
ATOM     19  C   UNL     1      -1.039  -4.908  -1.815  0.00  0.00    +0.000 A 
ATOM     20  C   UNL     1      -2.265  -4.940  -2.452  0.00  0.00    +0.000 A 
ATOM     21  C   UNL     1      -3.165  -3.906  -2.273  0.00  0.00    +0.000 A 
ATOM     22  C   UNL     1      -2.840  -2.842  -1.453  0.00  0.00    +0.005 A 
ENDBRANCH  16  17
ENDBRANCH   7  16
ENDBRANCH   1  12
BRANCH   3  23
ATOM     23  C   UNL     1       0.327  -2.351   9.495  0.00  0.00    +0.036 C 
ATOM     24  C   UNL     1      -1.158  -2.704   9.363  0.00  0.00    -0.010 C 
ATOM     25  C   UNL     1      -1.797  -2.724  10.753  0.00  0.00    -0.082 C 
ATOM     26  N   UNL     1      -1.660  -1.403  11.379  0.00  0.00    +0.379 N 
ATOM     27  C   UNL     1      -0.240  -1.090  11.574  0.00  0.00    -0.082 C 
ATOM     28  C   UNL     1       0.460  -1.006  10.216  0.00  0.00    -0.010 C 
ATOM     29  H   UNL     1      -2.079  -0.705  10.782  0.00  0.00    -0.086 HD
ATOM     30  H   UNL     1      -2.130  -1.405  12.272  0.00  0.00    -0.086 HD
ENDBRANCH   3  23
BRANCH   6  31
ATOM     31  C   UNL     1       2.856  -2.075   4.409  0.00  0.00    +0.003 A 
ATOM     32  C   UNL     1       2.744  -0.950   3.593  0.00  0.00    +0.010 A 
ATOM     33  C   UNL     1       3.404  -0.912   2.381  0.00  0.00    +0.001 A 
ATOM     34  C   UNL     1       4.175  -1.986   1.976  0.00  0.00    +0.012 A 
ATOM     35  C   UNL     1       4.290  -3.105   2.782  0.00  0.00    +0.055 A 
ATOM     36  C   UNL     1       3.639  -3.153   3.998  0.00  0.00    +0.022 A 
BRANCH  35  37
ATOM     37  C   UNL     1       5.131  -4.272   2.333  0.00  0.00    +0.417 C 
ATOM     38  F   UNL     1       5.690  -3.990   1.081  0.00  0.00    -0.166 F 
ATOM     39  F   UNL     1       6.155  -4.493   3.261  0.00  0.00    -0.166 F 
ATOM     40  F   UNL     1       4.331  -5.415   2.240  0.00  0.00    -0.166 F 
ENDBRANCH  35  37
ENDBRANCH   6  31
TORSDOF 6
