REMARK  Name = CHEMBL477582
REMARK  7 active torsions:
REMARK  status: ('A' for Active; 'I' for Inactive)
REMARK    1  A    between atoms: C_1  and  C_2
REMARK    2  A    between atoms: C_5  and  N_21
REMARK    3  A    between atoms: C_7  and  C_8
REMARK    4  A    between atoms: C_11  and  C_14
REMARK    5  A    between atoms: N_16  and  C_17
REMARK    6  A    between atoms: C_17  and  C_18
REMARK    7  A    between atoms: C_22  and  C_24
REMARK                            x       y       z     vdW  Elec       q    Type
REMARK                         _______ _______ _______ _____ _____    ______ ____
ROOT
ATOM      1  C   UNL     1      -0.045   1.502   0.030  0.00  0.00    +0.044 C 
ATOM      2  C   UNL     1      -0.018  -0.004   0.016  0.00  0.00    -0.043 A 
ATOM      3  C   UNL     1      -0.005  -0.684  -1.186  0.00  0.00    +0.006 A 
ATOM      4  C   UNL     1       0.021  -2.065  -1.203  0.00  0.00    +0.023 A 
ATOM      5  C   UNL     1       0.033  -2.779  -0.011  0.00  0.00    +0.034 A 
ATOM      6  C   UNL     1       0.021  -2.105   1.201  0.00  0.00    +0.032 A 
ATOM      7  C   UNL     1       0.000  -0.712   1.217  0.00  0.00    -0.013 A 
ENDROOT
BRANCH   7   8
ATOM      8  C   UNL     1      -0.008   0.016   2.509  0.00  0.00    -0.018 A 
ATOM      9  C   UNL     1       0.896   1.056   2.729  0.00  0.00    +0.009 A 
ATOM     10  C   UNL     1       0.889   1.732   3.928  0.00  0.00    +0.013 A 
ATOM     11  C   UNL     1      -0.023   1.377   4.925  0.00  0.00    +0.037 A 
ATOM     12  C   UNL     1      -0.928   0.336   4.703  0.00  0.00    +0.013 A 
ATOM     13  C   UNL     1      -0.923  -0.335   3.502  0.00  0.00    +0.009 A 
BRANCH  11  14
ATOM     14  C   UNL     1      -0.030   2.102   6.212  0.00  0.00    +0.244 C 
ATOM     15  O   UNL     1       0.757   3.007   6.404  0.00  0.00    -0.270 OA
ATOM     16  N   UNL     1      -0.911   1.759   7.173  0.00  0.00    -0.311 N 
ATOM     17  H   UNL     1      -1.540   1.037   7.020  0.00  0.00    +0.149 HD
BRANCH  16  18
ATOM     18  C   UNL     1      -0.918   2.478   8.450  0.00  0.00    +0.108 C 
BRANCH  18  19
ATOM     19  C   UNL     1      -2.005   1.896   9.356  0.00  0.00    +0.006 C 
ATOM     20  C   UNL     1      -3.161   2.816   9.754  0.00  0.00    +0.005 C 
ATOM     21  C   UNL     1      -2.096   2.435  10.785  0.00  0.00    +0.005 C 
ENDBRANCH  18  19
ENDBRANCH  16  18
ENDBRANCH  11  14
ENDBRANCH   7   8
BRANCH   5  22
ATOM     22  N   UNL     1       0.059  -4.177  -0.032  0.00  0.00    -0.279 N 
ATOM     23  C   UNL     1       0.742  -4.854   0.912  0.00  0.00    +0.284 C 
ATOM     24  O   UNL     1       1.267  -4.253   1.831  0.00  0.00    -0.266 OA
ATOM     25  H   UNL     1      -0.416  -4.660  -0.727  0.00  0.00    +0.155 HD
BRANCH  23  26
ATOM     26  C   UNL     1       0.853  -6.314   0.832  0.00  0.00    +0.189 A 
ATOM     27  C   UNL     1       1.508  -7.119   1.720  0.00  0.00    +0.054 A 
ATOM     28  C   UNL     1       1.358  -8.435   1.257  0.00  0.00    +0.042 A 
ATOM     29  C   UNL     1       0.628  -8.377   0.122  0.00  0.00    +0.196 A 
ATOM     30  O   UNL     1       0.321  -7.098  -0.129  0.00  0.00    -0.458 OA
ENDBRANCH  23  26
ENDBRANCH   5  22
TORSDOF 6
