REMARK  Name = CHEMBL526078
REMARK  5 active torsions:
REMARK  status: ('A' for Active; 'I' for Inactive)
REMARK    1  A    between atoms: C_1  and  C_2
REMARK    2  A    between atoms: C_5  and  C_18
REMARK    3  A    between atoms: C_7  and  C_8
REMARK    4  A    between atoms: N_20  and  C_21
REMARK    5  A    between atoms: C_25  and  N_27
REMARK                            x       y       z     vdW  Elec       q    Type
REMARK                         _______ _______ _______ _____ _____    ______ ____
ROOT
ATOM      1  C   UNL     1      -0.109   1.505  -0.025  0.00  0.00    +0.044 C 
ATOM      2  C   UNL     1      -0.068  -0.002  -0.028  0.00  0.00    -0.043 A 
ATOM      3  C   UNL     1      -0.067  -0.689  -1.226  0.00  0.00    +0.005 A 
ATOM      4  C   UNL     1      -0.030  -2.069  -1.237  0.00  0.00    +0.013 A 
ATOM      5  C   UNL     1       0.007  -2.778  -0.034  0.00  0.00    +0.038 A 
ATOM      6  C   UNL     1       0.006  -2.089   1.177  0.00  0.00    +0.021 A 
ATOM      7  C   UNL     1      -0.026  -0.698   1.180  0.00  0.00    -0.014 A 
ENDROOT
BRANCH   7   8
ATOM      8  C   UNL     1      -0.021   0.043   2.465  0.00  0.00    -0.014 A 
ATOM      9  C   UNL     1       0.880   1.094   2.659  0.00  0.00    +0.009 A 
ATOM     10  C   UNL     1       0.894   1.782   3.837  0.00  0.00    +0.016 A 
ATOM     11  C   UNL     1       0.004   1.438   4.856  0.00  0.00    +0.063 A 
ATOM     12  C   UNL     1      -0.905   0.384   4.672  0.00  0.00    +0.170 A 
ATOM     13  C   UNL     1      -0.916  -0.308   3.469  0.00  0.00    +0.058 A 
ATOM     14  O   UNL     1      -1.629   0.277   5.805  0.00  0.00    -0.353 OA
ATOM     15  N   UNL     1      -1.201   1.255   6.731  0.00  0.00    -0.062 NA
ATOM     16  C   UNL     1      -0.237   1.961   6.210  0.00  0.00    +0.167 A 
ATOM     17  N   UNL     1       0.436   3.012   6.817  0.00  0.00    -0.340 N 
ATOM     18  H   UNL     1       1.142   3.476   6.341  0.00  0.00    +0.144 HD
ATOM     19  H   UNL     1       0.200   3.282   7.719  0.00  0.00    +0.144 HD
ENDBRANCH   7   8
BRANCH   5  20
ATOM     20  C   UNL     1       0.046  -4.256  -0.046  0.00  0.00    +0.248 C 
ATOM     21  O   UNL     1       0.079  -4.871   1.001  0.00  0.00    -0.270 OA
ATOM     22  N   UNL     1       0.047  -4.920  -1.219  0.00  0.00    -0.281 N 
ATOM     23  H   UNL     1      -0.044  -4.433  -2.053  0.00  0.00    +0.155 HD
BRANCH  22  24
ATOM     24  C   UNL     1       0.179  -6.312  -1.234  0.00  0.00    +0.035 A 
ATOM     25  C   UNL     1      -0.395  -7.076  -0.225  0.00  0.00    +0.023 A 
ATOM     26  C   UNL     1      -0.266  -8.451  -0.238  0.00  0.00    +0.004 A 
ATOM     27  C   UNL     1       0.435  -9.072  -1.255  0.00  0.00    +0.023 A 
ATOM     28  C   UNL     1       1.011  -8.314  -2.267  0.00  0.00    +0.032 A 
ATOM     29  C   UNL     1       0.878  -6.933  -2.259  0.00  0.00    +0.046 A 
BRANCH  28  30
ATOM     30  N   UNL     1       1.719  -8.943  -3.294  0.00  0.00    -0.325 N 
ATOM     31  C   UNL     1       2.443  -8.157  -4.306  0.00  0.00    +0.133 C 
ATOM     32  C   UNL     1       3.874  -8.696  -4.405  0.00  0.00    +0.178 C 
ATOM     33  O   UNL     1       3.831 -10.110  -4.611  0.00  0.00    -0.377 OA
ATOM     34  C   UNL     1       3.229 -10.840  -3.538  0.00  0.00    +0.178 C 
ATOM     35  C   UNL     1       1.769 -10.410  -3.392  0.00  0.00    +0.133 C 
ENDBRANCH  28  30
ENDBRANCH  22  24
ENDBRANCH   5  20
TORSDOF 4
