REMARK  Name = CHEMBL519294
REMARK  5 active torsions:
REMARK  status: ('A' for Active; 'I' for Inactive)
REMARK    1  A    between atoms: C_3  and  C_9
REMARK    2  A    between atoms: C_5  and  C_7
REMARK    3  A    between atoms: C_9  and  C_10
REMARK    4  A    between atoms: C_13  and  C_23
REMARK    5  A    between atoms: C_14  and  C_16
REMARK                            x       y       z     vdW  Elec       q    Type
REMARK                         _______ _______ _______ _____ _____    ______ ____
ROOT
ATOM      1  C   UNL     1       4.114   2.458   1.395  0.00  0.00    +0.113 A 
ATOM      2  N   UNL     1       5.321   2.133   1.902  0.00  0.00    -0.340 N 
ATOM      3  H   UNL     1       6.047   1.701   1.426  0.00  0.00    +0.167 HD
ATOM      4  C   UNL     1       5.332   2.529   3.222  0.00  0.00    +0.093 A 
ATOM      5  C   UNL     1       4.092   3.095   3.464  0.00  0.00    +0.098 A 
ATOM      6  N   UNL     1       3.391   3.030   2.318  0.00  0.00    -0.231 NA
ENDROOT
BRANCH   4   7
ATOM      7  C   UNL     1       6.441   2.381   4.182  0.00  0.00    +0.094 A 
ATOM      8  C   UNL     1       7.407   1.381   4.005  0.00  0.00    +0.050 A 
ATOM      9  C   UNL     1       8.427   1.281   4.931  0.00  0.00    +0.116 A 
ATOM     10  N   UNL     1       8.463   2.127   5.951  0.00  0.00    -0.223 NA
ATOM     11  C   UNL     1       7.537   3.064   6.095  0.00  0.00    +0.213 A 
ATOM     12  N   UNL     1       6.545   3.200   5.230  0.00  0.00    -0.213 NA
ATOM     13  N   UNL     1       7.613   3.926   7.175  0.00  0.00    -0.327 N 
ATOM     14  H   UNL     1       8.337   3.840   7.814  0.00  0.00    +0.145 HD
ATOM     15  H   UNL     1       6.942   4.617   7.292  0.00  0.00    +0.145 HD
ENDBRANCH   4   7
BRANCH   5  16
ATOM     16  C   UNL     1       3.625   3.668   4.747  0.00  0.00    +0.003 A 
ATOM     17  C   UNL     1       4.033   3.104   5.956  0.00  0.00    +0.013 A 
ATOM     18  C   UNL     1       3.595   3.642   7.148  0.00  0.00    +0.039 A 
ATOM     19  C   UNL     1       2.751   4.741   7.147  0.00  0.00    +0.123 A 
ATOM     20  C   UNL     1       2.342   5.305   5.949  0.00  0.00    +0.039 A 
ATOM     21  C   UNL     1       2.780   4.778   4.751  0.00  0.00    +0.013 A 
ATOM     22  F   UNL     1       2.324   5.264   8.317  0.00  0.00    -0.205 F 
ENDBRANCH   5  16
BRANCH   1  23
ATOM     23  C   UNL     1       3.671   2.204  -0.023  0.00  0.00    +0.109 C 
BRANCH  23  26
ATOM     24  C   UNL     1      -0.017   1.375   0.010  0.00  0.00    +0.002 A 
ATOM     25  C   UNL     1       1.170   2.086   0.002  0.00  0.00    +0.004 A 
ATOM     26  C   UNL     1       2.383   1.421  -0.013  0.00  0.00    -0.039 A 
ATOM     27  C   UNL     1       2.416   0.041  -0.021  0.00  0.00    +0.023 A 
ATOM     28  C   UNL     1       1.223  -0.682  -0.013  0.00  0.00    +0.052 A 
ATOM     29  C   UNL     1       0.002  -0.004   0.002  0.00  0.00    +0.019 A 
BRANCH  28  30
ATOM     30  C   UNL     1       1.250  -2.114  -0.022  0.00  0.00    +0.099 C 
ATOM     31  N   UNL     1       1.271  -3.250  -0.029  0.00  0.00    -0.191 NA
ENDBRANCH  28  30
ENDBRANCH  23  26
ENDBRANCH   1  23
TORSDOF 5
