REMARK  Name = CHEMBL1172017
REMARK  4 active torsions:
REMARK  status: ('A' for Active; 'I' for Inactive)
REMARK    1  A    between atoms: C_6  and  C_7
REMARK    2  A    between atoms: C_8  and  C_15
REMARK    3  A    between atoms: N_21  and  C_22
REMARK    4  A    between atoms: C_25  and  O_28
REMARK                            x       y       z     vdW  Elec       q    Type
REMARK                         _______ _______ _______ _____ _____    ______ ____
ROOT
ATOM      1  C   UNL     1      -0.391  -3.195  -0.168  0.00  0.00    +0.005 A 
ATOM      2  C   UNL     1       0.969  -2.858  -0.085  0.00  0.00    +0.030 A 
ATOM      3  C   UNL     1       1.914  -3.853  -0.187  0.00  0.00    +0.113 A 
ATOM      4  N   UNL     1       1.558  -5.114  -0.361  0.00  0.00    -0.240 NA
ATOM      5  C   UNL     1       0.287  -5.479  -0.446  0.00  0.00    +0.119 A 
ATOM      6  C   UNL     1      -0.729  -4.540  -0.347  0.00  0.00    +0.053 A 
ATOM      7  N   UNL     1      -0.031  -6.821  -0.629  0.00  0.00    -0.326 N 
ATOM      8  H   UNL     1       0.675  -7.482  -0.695  0.00  0.00    +0.148 HD
ENDROOT
BRANCH   1  10
ATOM      9  C   UNL     1      -1.461  -0.970  -0.723  0.00  0.00    +0.075 A 
ATOM     10  C   UNL     1      -1.436  -2.158  -0.064  0.00  0.00    +0.075 A 
ATOM     11  N   UNL     1      -2.579  -2.217   0.727  0.00  0.00    -0.306 N 
ATOM     12  H   UNL     1      -2.831  -2.950   1.311  0.00  0.00    +0.170 HD
ATOM     13  C   UNL     1      -3.276  -1.080   0.543  0.00  0.00    +0.325 A 
ATOM     14  O   UNL     1      -4.331  -0.800   1.083  0.00  0.00    -0.247 OA
ATOM     15  N   UNL     1      -2.612  -0.301  -0.332  0.00  0.00    -0.306 N 
ATOM     16  H   UNL     1      -2.892   0.576  -0.638  0.00  0.00    +0.170 HD
BRANCH   9  22
ATOM     17  C   UNL     1       0.032  -1.315  -2.686  0.00  0.00    +0.013 A 
ATOM     18  C   UNL     1       0.980  -0.850  -3.573  0.00  0.00    +0.039 A 
ATOM     19  C   UNL     1       1.459   0.446  -3.463  0.00  0.00    +0.123 A 
ATOM     20  C   UNL     1       0.990   1.281  -2.462  0.00  0.00    +0.039 A 
ATOM     21  C   UNL     1       0.042   0.827  -1.569  0.00  0.00    +0.013 A 
ATOM     22  C   UNL     1      -0.445  -0.478  -1.676  0.00  0.00    +0.001 A 
ATOM     23  F   UNL     1       2.388   0.896  -4.335  0.00  0.00    -0.205 F 
ENDBRANCH   9  22
ENDBRANCH   1  10
BRANCH   7  24
ATOM     24  C   UNL     1      -1.434  -7.234  -0.724  0.00  0.00    +0.072 C 
ATOM     25  C   UNL     1      -1.999  -7.444   0.682  0.00  0.00    +0.025 C 
ATOM     26  C   UNL     1      -3.464  -7.875   0.584  0.00  0.00    +0.033 C 
ATOM     27  C   UNL     1      -3.558  -9.184  -0.204  0.00  0.00    +0.115 C 
ATOM     28  C   UNL     1      -2.993  -8.974  -1.610  0.00  0.00    +0.033 C 
ATOM     29  C   UNL     1      -1.528  -8.542  -1.512  0.00  0.00    +0.025 C 
BRANCH  27  30
ATOM     30  O   UNL     1      -4.926  -9.587  -0.296  0.00  0.00    -0.392 OA
ATOM     31  H   UNL     1      -5.061 -10.411  -0.784  0.00  0.00    +0.210 HD
ENDBRANCH  27  30
ENDBRANCH   7  24
TORSDOF 4
