REMARK  Name = CHEMBL62794
REMARK  6 active torsions:
REMARK  status: ('A' for Active; 'I' for Inactive)
REMARK    1  A    between atoms: C_1  and  C_2
REMARK    2  A    between atoms: C_7  and  C_8
REMARK    3  A    between atoms: C_10  and  N_16
REMARK    4  A    between atoms: C_13  and  C_14
REMARK    5  A    between atoms: C_14  and  O_15
REMARK    6  A    between atoms: N_16  and  C_17
REMARK                            x       y       z     vdW  Elec       q    Type
REMARK                         _______ _______ _______ _____ _____    ______ ____
ROOT
ATOM      1  C   UNL     1       0.221  -0.059   2.523  0.00  0.00    -0.011 A 
ATOM      2  C   UNL     1       1.415  -0.078   3.239  0.00  0.00    +0.032 A 
ATOM      3  C   UNL     1       1.477   0.512   4.492  0.00  0.00    +0.043 A 
ATOM      4  C   UNL     1       0.349   1.121   5.030  0.00  0.00    +0.024 A 
ATOM      5  C   UNL     1      -0.835   1.139   4.319  0.00  0.00    +0.008 A 
ATOM      6  C   UNL     1      -0.904   0.558   3.068  0.00  0.00    -0.014 A 
ENDROOT
BRANCH   1  13
ATOM      7  C   UNL     1       1.379   1.289   0.242  0.00  0.00    +0.044 C 
ATOM      8  C   UNL     1       0.702  -0.047   0.077  0.00  0.00    -0.040 A 
ATOM      9  C   UNL     1       0.637  -0.639  -1.167  0.00  0.00    +0.042 A 
ATOM     10  C   UNL     1       0.015  -1.868  -1.320  0.00  0.00    +0.124 A 
ATOM     11  C   UNL     1      -0.543  -2.507  -0.225  0.00  0.00    +0.039 A 
ATOM     12  C   UNL     1      -0.482  -1.923   1.023  0.00  0.00    +0.011 A 
ATOM     13  C   UNL     1       0.147  -0.689   1.182  0.00  0.00    -0.014 A 
ATOM     14  F   UNL     1      -0.048  -2.443  -2.541  0.00  0.00    -0.205 F 
ENDBRANCH   1  13
BRANCH   3  15
ATOM     15  N   UNL     1       2.676   0.496   5.215  0.00  0.00    -0.222 N 
ATOM     16  C   UNL     1       3.273  -0.678   5.503  0.00  0.00    +0.308 C 
ATOM     17  O   UNL     1       2.819  -1.716   5.061  0.00  0.00    -0.252 OA
ATOM     18  N   UNL     1       4.374  -0.701   6.280  0.00  0.00    -0.313 N 
ATOM     19  H   UNL     1       4.694   0.116   6.693  0.00  0.00    +0.147 HD
ATOM     20  H   UNL     1       4.847  -1.536   6.427  0.00  0.00    +0.147 HD
BRANCH  15  21
ATOM     21  C   UNL     1       3.255   1.699   5.641  0.00  0.00    +0.079 A 
ATOM     22  C   UNL     1       4.159   2.364   4.822  0.00  0.00    +0.064 A 
ATOM     23  C   UNL     1       4.728   3.551   5.245  0.00  0.00    +0.022 A 
ATOM     24  C   UNL     1       4.397   4.077   6.481  0.00  0.00    +0.003 A 
ATOM     25  C   UNL     1       3.498   3.417   7.298  0.00  0.00    +0.022 A 
ATOM     26  C   UNL     1       2.922   2.232   6.880  0.00  0.00    +0.064 A 
ATOM     27 CL   UNL     1       1.787   1.409   7.903  0.00  0.00    -0.082 Cl
ATOM     28 CL   UNL     1       4.575   1.705   3.271  0.00  0.00    -0.082 Cl
ENDBRANCH  15  21
ENDBRANCH   3  15
BRANCH   6  29
ATOM     29  C   UNL     1      -2.197   0.586   2.294  0.00  0.00    +0.191 C 
BRANCH  29  30
ATOM     30  O   UNL     1      -3.223   1.167   3.102  0.00  0.00    -0.390 OA
ATOM     31  H   UNL     1      -4.085   1.218   2.667  0.00  0.00    +0.210 HD
ENDBRANCH  29  30
ENDBRANCH   6  29
TORSDOF 5
