REMARK  Name = CHEMBL415712
REMARK  3 active torsions:
REMARK  status: ('A' for Active; 'I' for Inactive)
REMARK    1  A    between atoms: C_6  and  C_7
REMARK    2  A    between atoms: C_9  and  C_25
REMARK    3  A    between atoms: N_18  and  C_19
REMARK                            x       y       z     vdW  Elec       q    Type
REMARK                         _______ _______ _______ _____ _____    ______ ____
ROOT
ATOM      1  C   UNL     1      -1.655  -0.782  -0.783  0.00  0.00    +0.147 A 
ATOM      2  N   UNL     1      -2.683  -0.315  -0.111  0.00  0.00    -0.232 NA
ATOM      3  C   UNL     1      -3.128  -1.257   0.730  0.00  0.00    +0.063 A 
ATOM      4  C   UNL     1      -2.360  -2.354   0.587  0.00  0.00    +0.118 A 
ATOM      5  N   UNL     1      -1.423  -2.067  -0.374  0.00  0.00    -0.283 N 
ATOM      6  C   UNL     1      -0.425  -2.920  -0.843  0.00  0.00    +0.144 A 
ATOM      7  C   UNL     1      -0.745  -4.196  -1.305  0.00  0.00    +0.066 A 
ATOM      8  C   UNL     1       0.277  -5.008  -1.760  0.00  0.00    +0.118 A 
ATOM      9  N   UNL     1       1.521  -4.554  -1.745  0.00  0.00    -0.223 NA
ATOM     10  C   UNL     1       1.795  -3.337  -1.300  0.00  0.00    +0.217 A 
ATOM     11  N   UNL     1       0.843  -2.527  -0.861  0.00  0.00    -0.197 NA
ATOM     12  N   UNL     1       3.108  -2.898  -1.301  0.00  0.00    -0.311 N 
ATOM     13  H   UNL     1       3.322  -2.008  -0.978  0.00  0.00    +0.149 HD
ENDROOT
BRANCH   3  14
ATOM     14  C   UNL     1      -4.292  -1.113   1.676  0.00  0.00    +0.036 C 
ATOM     15  C   UNL     1      -5.020  -2.455   1.799  0.00  0.00    -0.010 C 
ATOM     16  C   UNL     1      -6.151  -2.324   2.821  0.00  0.00    -0.082 C 
ATOM     17  N   UNL     1      -5.595  -1.945   4.126  0.00  0.00    +0.379 N 
ATOM     18  C   UNL     1      -4.958  -0.626   4.032  0.00  0.00    -0.082 C 
ATOM     19  C   UNL     1      -3.781  -0.693   3.057  0.00  0.00    -0.010 C 
ATOM     20  H   UNL     1      -6.337  -1.911   4.810  0.00  0.00    -0.086 HD
ATOM     21  H   UNL     1      -4.910  -2.629   4.410  0.00  0.00    -0.086 HD
ENDBRANCH   3  14
BRANCH   1  27
ATOM     22  C   UNL     1      -0.096  -0.744  -2.725  0.00  0.00    +0.014 A 
ATOM     23  C   UNL     1       0.621  -0.054  -3.680  0.00  0.00    +0.039 A 
ATOM     24  C   UNL     1       0.559   1.330  -3.731  0.00  0.00    +0.123 A 
ATOM     25  C   UNL     1      -0.222   2.027  -2.822  0.00  0.00    +0.039 A 
ATOM     26  C   UNL     1      -0.943   1.347  -1.863  0.00  0.00    +0.014 A 
ATOM     27  C   UNL     1      -0.884  -0.047  -1.808  0.00  0.00    +0.018 A 
ATOM     28  F   UNL     1       1.262   2.001  -4.668  0.00  0.00    -0.205 F 
ENDBRANCH   1  27
BRANCH  12  29
ATOM     29  C   UNL     1       4.174  -3.776  -1.788  0.00  0.00    +0.073 C 
ATOM     30  C   UNL     1       4.635  -4.696  -0.656  0.00  0.00    +0.022 C 
ATOM     31  C   UNL     1       5.749  -5.613  -1.166  0.00  0.00    +0.002 C 
ATOM     32  C   UNL     1       6.928  -4.765  -1.647  0.00  0.00    +0.000 C 
ATOM     33  C   UNL     1       6.466  -3.846  -2.779  0.00  0.00    +0.002 C 
ATOM     34  C   UNL     1       5.353  -2.928  -2.270  0.00  0.00    +0.022 C 
ENDBRANCH  12  29
TORSDOF 3
