REMARK  Name = CHEMBL478650
REMARK  6 active torsions:
REMARK  status: ('A' for Active; 'I' for Inactive)
REMARK    1  A    between atoms: C_1  and  C_2
REMARK    2  A    between atoms: C_5  and  C_21
REMARK    3  A    between atoms: C_7  and  C_8
REMARK    4  A    between atoms: C_11  and  C_14
REMARK    5  A    between atoms: N_16  and  C_17
REMARK    6  A    between atoms: C_17  and  C_18
REMARK                            x       y       z     vdW  Elec       q    Type
REMARK                         _______ _______ _______ _____ _____    ______ ____
ROOT
ATOM      1  C   UNL     1      -0.018   1.503   0.010  0.00  0.00    +0.044 C 
ATOM      2  C   UNL     1       0.002  -0.004   0.002  0.00  0.00    -0.043 A 
ATOM      3  C   UNL     1       0.006  -0.686  -1.199  0.00  0.00    +0.005 A 
ATOM      4  C   UNL     1       0.024  -2.067  -1.216  0.00  0.00    +0.013 A 
ATOM      5  C   UNL     1       0.039  -2.781  -0.016  0.00  0.00    +0.038 A 
ATOM      6  C   UNL     1       0.036  -2.098   1.199  0.00  0.00    +0.021 A 
ATOM      7  C   UNL     1       0.023  -0.706   1.207  0.00  0.00    -0.014 A 
ENDROOT
BRANCH   5   8
ATOM      8  C   UNL     1       0.058  -4.259  -0.034  0.00  0.00    +0.250 C 
ATOM      9  O   UNL     1       0.072  -4.880   1.011  0.00  0.00    -0.270 OA
ATOM     10  N   UNL     1       0.061  -4.919  -1.209  0.00  0.00    -0.259 N 
ATOM     11  C   UNL     1       0.079  -6.308  -1.226  0.00  0.00    +0.188 A 
ATOM     12  N   UNL     1       0.089  -7.174  -0.222  0.00  0.00    -0.126 NA
ATOM     13  N   UNL     1       0.105  -8.420  -0.417  0.00  0.00    -0.148 NA
ATOM     14  C   UNL     1       0.111  -8.940  -1.629  0.00  0.00    +0.183 A 
ATOM     15  S   UNL     1       0.086  -7.444  -2.611  0.00  0.00    -0.039 S 
ATOM     16  H   UNL     1       0.050  -4.424  -2.043  0.00  0.00    +0.157 HD
ENDBRANCH   5   8
BRANCH   7  17
ATOM     17  C   UNL     1       0.025   0.029   2.495  0.00  0.00    -0.018 A 
ATOM     18  C   UNL     1       0.935   1.065   2.704  0.00  0.00    +0.009 A 
ATOM     19  C   UNL     1       0.938   1.749   3.899  0.00  0.00    +0.013 A 
ATOM     20  C   UNL     1       0.029   1.404   4.903  0.00  0.00    +0.037 A 
ATOM     21  C   UNL     1      -0.882   0.366   4.692  0.00  0.00    +0.013 A 
ATOM     22  C   UNL     1      -0.886  -0.313   3.494  0.00  0.00    +0.009 A 
BRANCH  20  23
ATOM     23  C   UNL     1       0.031   2.136   6.186  0.00  0.00    +0.244 C 
ATOM     24  O   UNL     1       0.824   3.039   6.369  0.00  0.00    -0.270 OA
ATOM     25  N   UNL     1      -0.846   1.803   7.153  0.00  0.00    -0.311 N 
ATOM     26  H   UNL     1      -1.479   1.083   7.007  0.00  0.00    +0.149 HD
BRANCH  25  27
ATOM     27  C   UNL     1      -0.844   2.530   8.425  0.00  0.00    +0.108 C 
BRANCH  27  28
ATOM     28  C   UNL     1      -1.929   1.958   9.341  0.00  0.00    +0.006 C 
ATOM     29  C   UNL     1      -3.078   2.886   9.739  0.00  0.00    +0.005 C 
ATOM     30  C   UNL     1      -2.011   2.506  10.767  0.00  0.00    +0.005 C 
ENDBRANCH  27  28
ENDBRANCH  25  27
ENDBRANCH  20  23
ENDBRANCH   7  17
TORSDOF 5
