REMARK  Name = CHEMBL379760
REMARK  11 active torsions:
REMARK  status: ('A' for Active; 'I' for Inactive)
REMARK    1  A    between atoms: C_1  and  C_2
REMARK    2  A    between atoms: C_2  and  C_4
REMARK    3  A    between atoms: C_2  and  N_8
REMARK    4  A    between atoms: C_4  and  C_5
REMARK    5  A    between atoms: C_4  and  C_6
REMARK    6  A    between atoms: C_4  and  O_7
REMARK    7  A    between atoms: C_13  and  N_15
REMARK    8  A    between atoms: N_15  and  C_16
REMARK    9  A    between atoms: C_19  and  O_22
REMARK   10  A    between atoms: O_22  and  C_23
REMARK   11  A    between atoms: N_26  and  C_27
REMARK                            x       y       z     vdW  Elec       q    Type
REMARK                         _______ _______ _______ _____ _____    ______ ____
ROOT
ATOM      1  N   UNL     1      -5.390  -1.159  -2.114  0.00  0.00    -0.208 N 
ATOM      2  C   UNL     1      -5.962  -1.574  -0.966  0.00  0.00    +0.316 C 
ATOM      3  O   UNL     1      -7.171  -1.669  -0.889  0.00  0.00    -0.252 OA
ATOM      4  N   UNL     1      -5.193  -1.884   0.097  0.00  0.00    -0.267 N 
ATOM      5  H   UNL     1      -4.227  -1.890   0.011  0.00  0.00    +0.156 HD
ENDROOT
BRANCH   1  11
ATOM      6  N   UNL     1      -1.398  -3.423  -3.114  0.00  0.00    -0.308 N 
ATOM      7  C   UNL     1      -2.040  -2.259  -2.728  0.00  0.00    +0.217 A 
ATOM      8  N   UNL     1      -1.319  -1.173  -2.487  0.00  0.00    -0.223 NA
ATOM      9  C   UNL     1      -1.898  -0.041  -2.116  0.00  0.00    +0.118 A 
ATOM     10  C   UNL     1      -3.273   0.003  -1.979  0.00  0.00    +0.064 A 
ATOM     11  C   UNL     1      -4.004  -1.157  -2.239  0.00  0.00    +0.138 A 
ATOM     12  N   UNL     1      -3.359  -2.256  -2.612  0.00  0.00    -0.199 NA
ATOM     13  H   UNL     1      -1.915  -4.223  -3.296  0.00  0.00    +0.149 HD
BRANCH   6  15
ATOM     14  C   UNL     1       0.693  -3.723  -1.882  0.00  0.00    +0.031 C 
ATOM     15  C   UNL     1       0.060  -3.445  -3.247  0.00  0.00    +0.101 C 
BRANCH  15  16
ATOM     16  C   UNL     1       0.466  -4.545  -4.231  0.00  0.00    +0.078 C 
ATOM     17  C   UNL     1      -0.167  -4.267  -5.596  0.00  0.00    +0.043 C 
ATOM     18  C   UNL     1       1.989  -4.568  -4.370  0.00  0.00    +0.043 C 
BRANCH  16  19
ATOM     19  O   UNL     1       0.012  -5.810  -3.744  0.00  0.00    -0.387 OA
ATOM     20  H   UNL     1       0.235  -6.555  -4.319  0.00  0.00    +0.210 HD
ENDBRANCH  16  19
ENDBRANCH  15  16
ENDBRANCH   6  15
ENDBRANCH   1  11
BRANCH   4  21
ATOM     21  C   UNL     1      -5.789  -2.197   1.324  0.00  0.00    +0.053 A 
ATOM     22  C   UNL     1      -7.017  -2.844   1.357  0.00  0.00    +0.025 A 
ATOM     23  C   UNL     1      -7.602  -3.152   2.569  0.00  0.00    +0.002 A 
ATOM     24  C   UNL     1      -6.967  -2.816   3.751  0.00  0.00    +0.002 A 
ATOM     25  C   UNL     1      -5.744  -2.171   3.723  0.00  0.00    +0.022 A 
ATOM     26  C   UNL     1      -5.150  -1.865   2.513  0.00  0.00    +0.062 A 
ATOM     27 CL   UNL     1      -3.612  -1.062   2.478  0.00  0.00    -0.082 Cl
ENDBRANCH   4  21
BRANCH   1  28
ATOM     28  C   UNL     1      -6.191  -0.730  -3.182  0.00  0.00    +0.044 A 
ATOM     29  C   UNL     1      -6.914   0.451  -3.077  0.00  0.00    +0.027 A 
ATOM     30  C   UNL     1      -7.703   0.873  -4.128  0.00  0.00    +0.047 A 
ATOM     31  C   UNL     1      -7.774   0.117  -5.290  0.00  0.00    +0.120 A 
ATOM     32  C   UNL     1      -7.052  -1.063  -5.395  0.00  0.00    +0.047 A 
ATOM     33  C   UNL     1      -6.258  -1.483  -4.346  0.00  0.00    +0.027 A 
BRANCH  31  34
ATOM     34  O   UNL     1      -8.552   0.533  -6.324  0.00  0.00    -0.495 OA
ATOM     35  C   UNL     1      -8.577  -0.294  -7.489  0.00  0.00    +0.277 C 
ENDBRANCH  31  34
ENDBRANCH   1  28
TORSDOF 7
