REMARK  Name = CHEMBL479028
REMARK  10 active torsions:
REMARK  status: ('A' for Active; 'I' for Inactive)
REMARK    1  A    between atoms: C_1  and  C_2
REMARK    2  A    between atoms: C_5  and  C_29
REMARK    3  A    between atoms: C_7  and  C_8
REMARK    4  A    between atoms: C_11  and  C_14
REMARK    5  A    between atoms: N_16  and  C_17
REMARK    6  A    between atoms: C_17  and  C_18
REMARK    7  A    between atoms: C_22  and  N_24
REMARK    8  A    between atoms: N_24  and  S_25
REMARK    9  A    between atoms: S_25  and  C_28
REMARK   10  A    between atoms: N_31  and  C_32
REMARK                            x       y       z     vdW  Elec       q    Type
REMARK                         _______ _______ _______ _____ _____    ______ ____
ROOT
ATOM      1  C   UNL     1       0.026   0.029   2.495  0.00  0.00    -0.018 A 
ATOM      2  C   UNL     1       0.936   1.065   2.704  0.00  0.00    +0.009 A 
ATOM      3  C   UNL     1       0.940   1.748   3.900  0.00  0.00    +0.013 A 
ATOM      4  C   UNL     1       0.030   1.404   4.903  0.00  0.00    +0.037 A 
ATOM      5  C   UNL     1      -0.881   0.366   4.692  0.00  0.00    +0.013 A 
ATOM      6  C   UNL     1      -0.886  -0.312   3.494  0.00  0.00    +0.009 A 
ENDROOT
BRANCH   1  13
ATOM      7  C   UNL     1      -0.018   1.503   0.010  0.00  0.00    +0.044 C 
ATOM      8  C   UNL     1       0.002  -0.004   0.002  0.00  0.00    -0.043 A 
ATOM      9  C   UNL     1       0.006  -0.686  -1.199  0.00  0.00    +0.005 A 
ATOM     10  C   UNL     1       0.024  -2.067  -1.215  0.00  0.00    +0.013 A 
ATOM     11  C   UNL     1       0.039  -2.781  -0.016  0.00  0.00    +0.037 A 
ATOM     12  C   UNL     1       0.036  -2.098   1.199  0.00  0.00    +0.021 A 
ATOM     13  C   UNL     1       0.023  -0.706   1.207  0.00  0.00    -0.014 A 
BRANCH  11  14
ATOM     14  C   UNL     1       0.057  -4.260  -0.034  0.00  0.00    +0.244 C 
ATOM     15  O   UNL     1       0.070  -4.880   1.011  0.00  0.00    -0.270 OA
ATOM     16  N   UNL     1       0.060  -4.919  -1.209  0.00  0.00    -0.308 N 
ATOM     17  H   UNL     1       0.050  -4.424  -2.043  0.00  0.00    +0.149 HD
BRANCH  16  18
ATOM     18  C   UNL     1       0.078  -6.384  -1.227  0.00  0.00    +0.073 C 
ATOM     19  C   UNL     1       1.018  -7.066  -2.223  0.00  0.00    +0.024 C 
ATOM     20  C   UNL     1      -0.493  -7.082  -2.463  0.00  0.00    +0.024 C 
ENDBRANCH  16  18
ENDBRANCH  11  14
ENDBRANCH   1  13
BRANCH   4  21
ATOM     21  C   UNL     1       0.034   2.135   6.186  0.00  0.00    +0.244 C 
ATOM     22  O   UNL     1       0.827   3.038   6.369  0.00  0.00    -0.270 OA
ATOM     23  N   UNL     1      -0.844   1.803   7.154  0.00  0.00    -0.307 N 
ATOM     24  H   UNL     1      -1.477   1.083   7.008  0.00  0.00    +0.149 HD
BRANCH  23  25
ATOM     25  C   UNL     1      -0.841   2.529   8.426  0.00  0.00    +0.140 C 
BRANCH  25  26
ATOM     26  C   UNL     1      -1.909   1.966   9.328  0.00  0.00    -0.028 A 
ATOM     27  C   UNL     1      -3.189   2.489   9.292  0.00  0.00    +0.005 A 
ATOM     28  C   UNL     1      -4.172   1.976  10.118  0.00  0.00    +0.002 A 
ATOM     29  C   UNL     1      -3.879   0.939  10.982  0.00  0.00    +0.027 A 
ATOM     30  C   UNL     1      -2.594   0.411  11.020  0.00  0.00    +0.074 A 
ATOM     31  C   UNL     1      -1.610   0.926  10.185  0.00  0.00    +0.031 A 
BRANCH  30  32
ATOM     32  N   UNL     1      -2.294  -0.637  11.893  0.00  0.00    -0.103 NA
BRANCH  32  33
ATOM     33  S   UNL     1      -3.470  -1.253  12.883  0.00  0.00    +0.059 S 
ATOM     34  O   UNL     1      -3.816  -0.179  13.747  0.00  0.00    -0.154 OA
ATOM     35  O   UNL     1      -4.433  -1.810  11.999  0.00  0.00    -0.154 OA
ATOM     36  C   UNL     1      -2.647  -2.570  13.821  0.00  0.00    +0.220 C 
ENDBRANCH  32  33
ENDBRANCH  30  32
ENDBRANCH  25  26
ENDBRANCH  23  25
ENDBRANCH   4  21
TORSDOF 8
