REMARK  Name = CHEMBL361431
REMARK  11 active torsions:
REMARK  status: ('A' for Active; 'I' for Inactive)
REMARK    1  A    between atoms: C_1  and  C_2
REMARK    2  A    between atoms: C_2  and  C_3
REMARK    3  A    between atoms: C_3  and  N_4
REMARK    4  A    between atoms: C_7  and  O_10
REMARK    5  A    between atoms: O_10  and  C_11
REMARK    6  A    between atoms: C_15  and  N_17
REMARK    7  A    between atoms: N_17  and  C_18
REMARK    8  A    between atoms: C_20  and  N_25
REMARK    9  A    between atoms: C_23  and  C_24
REMARK   10  A    between atoms: C_26  and  C_28
REMARK   11  A    between atoms: C_32  and  N_34
REMARK                            x       y       z     vdW  Elec       q    Type
REMARK                         _______ _______ _______ _____ _____    ______ ____
ROOT
ATOM      1  C   UNL     1       4.667 -10.731  -3.525  0.00  0.00    +0.037 A 
ATOM      2  C   UNL     1       5.671 -10.031  -4.180  0.00  0.00    +0.046 A 
ATOM      3  C   UNL     1       6.550 -10.704  -5.017  0.00  0.00    +0.035 A 
ATOM      4  C   UNL     1       6.422 -12.076  -5.196  0.00  0.00    +0.024 A 
ATOM      5  C   UNL     1       5.422 -12.770  -4.543  0.00  0.00    +0.007 A 
ATOM      6  C   UNL     1       4.549 -12.104  -3.705  0.00  0.00    -0.029 A 
ATOM      7  C   UNL     1       3.463 -12.865  -2.990  0.00  0.00    +0.045 C 
ENDROOT
BRANCH   3   8
ATOM      8  N   UNL     1       7.562 -10.002  -5.679  0.00  0.00    -0.281 N 
ATOM      9  C   UNL     1       8.709 -10.628  -6.011  0.00  0.00    +0.248 C 
ATOM     10  O   UNL     1       8.905 -11.771  -5.647  0.00  0.00    -0.270 OA
ATOM     11  H   UNL     1       7.439  -9.066  -5.899  0.00  0.00    +0.155 HD
BRANCH   9  12
ATOM     12  C   UNL     1       9.728  -9.923  -6.817  0.00  0.00    +0.039 A 
ATOM     13  C   UNL     1       9.508  -8.608  -7.231  0.00  0.00    +0.013 A 
ATOM     14  C   UNL     1      10.461  -7.952  -7.983  0.00  0.00    +0.003 A 
ATOM     15  C   UNL     1      11.635  -8.593  -8.330  0.00  0.00    +0.023 A 
ATOM     16  C   UNL     1      11.865  -9.902  -7.923  0.00  0.00    +0.031 A 
ATOM     17  C   UNL     1      10.916 -10.568  -7.162  0.00  0.00    +0.036 A 
BRANCH  16  18
ATOM     18  N   UNL     1      13.053 -10.546  -8.277  0.00  0.00    -0.325 N 
ATOM     19  C   UNL     1      13.262 -11.971  -7.975  0.00  0.00    +0.133 C 
ATOM     20  C   UNL     1      13.723 -12.675  -9.256  0.00  0.00    +0.178 C 
ATOM     21  O   UNL     1      14.841 -11.971  -9.803  0.00  0.00    -0.377 OA
ATOM     22  C   UNL     1      14.551 -10.628 -10.197  0.00  0.00    +0.178 C 
ATOM     23  C   UNL     1      14.130  -9.821  -8.969  0.00  0.00    +0.133 C 
ENDBRANCH  16  18
ENDBRANCH   9  12
ENDBRANCH   3   8
BRANCH   1  24
ATOM     24  N   UNL     1       3.780 -10.057  -2.681  0.00  0.00    -0.299 N 
ATOM     25  H   UNL     1       2.902 -10.428  -2.504  0.00  0.00    +0.154 HD
BRANCH  24  30
ATOM     26  C   UNL     1       5.764  -7.266  -1.659  0.00  0.00    +0.320 A 
ATOM     27  N   UNL     1       4.910  -6.528  -0.968  0.00  0.00    -0.203 NA
ATOM     28  C   UNL     1       3.652  -6.913  -0.807  0.00  0.00    +0.119 A 
ATOM     29  C   UNL     1       3.232  -8.101  -1.372  0.00  0.00    +0.064 A 
ATOM     30  C   UNL     1       4.157  -8.857  -2.096  0.00  0.00    +0.130 A 
ATOM     31  N   UNL     1       5.401  -8.407  -2.220  0.00  0.00    -0.180 NA
BRANCH  26  32
ATOM     32  O   UNL     1       7.042  -6.837  -1.801  0.00  0.00    -0.459 OA
BRANCH  32  36
ATOM     33  N   UNL     1       9.403  -3.946   0.082  0.00  0.00    +0.380 N 
ATOM     34  C   UNL     1       8.908  -3.623  -1.261  0.00  0.00    -0.075 C 
ATOM     35  C   UNL     1       8.491  -4.909  -1.978  0.00  0.00    +0.026 C 
ATOM     36  C   UNL     1       7.384  -5.598  -1.176  0.00  0.00    +0.173 C 
ATOM     37  C   UNL     1       7.886  -5.864   0.246  0.00  0.00    +0.026 C 
ATOM     38  C   UNL     1       8.325  -4.542   0.881  0.00  0.00    -0.075 C 
ATOM     39  H   UNL     1      10.167  -4.601   0.009  0.00  0.00    -0.082 HD
BRANCH  33  40
ATOM     40  C   UNL     1       9.874  -2.719   0.738  0.00  0.00    -0.079 C 
BRANCH  40  42
ATOM     41  C   UNL     1      11.569  -0.885   0.657  0.00  0.00    +0.002 C 
ATOM     42  C   UNL     1      11.079  -2.164  -0.025  0.00  0.00    -0.022 C 
ENDBRANCH  40  42
ENDBRANCH  33  40
ENDBRANCH  32  36
ENDBRANCH  26  32
ENDBRANCH  24  30
ENDBRANCH   1  24
TORSDOF 9
