REMARK  Name = CHEMBL172232
REMARK  6 active torsions:
REMARK  status: ('A' for Active; 'I' for Inactive)
REMARK    1  A    between atoms: C_1  and  C_2
REMARK    2  A    between atoms: C_6  and  C_8
REMARK    3  A    between atoms: C_9  and  C_20
REMARK    4  A    between atoms: C_12  and  C_14
REMARK    5  A    between atoms: N_26  and  C_31
REMARK    6  A    between atoms: N_29  and  C_30
REMARK                            x       y       z     vdW  Elec       q    Type
REMARK                         _______ _______ _______ _____ _____    ______ ____
ROOT
ATOM      1  C   UNL     1       0.053  -2.846   2.461  0.00  0.00    +0.097 A 
ATOM      2  C   UNL     1      -0.565  -4.059   2.702  0.00  0.00    +0.074 A 
ATOM      3  N   UNL     1      -0.285  -4.378   4.011  0.00  0.00    -0.341 N 
ATOM      4  H   UNL     1      -0.578  -5.173   4.484  0.00  0.00    +0.167 HD
ATOM      5  C   UNL     1       0.476  -3.375   4.517  0.00  0.00    +0.111 A 
ATOM      6  N   UNL     1       0.676  -2.476   3.595  0.00  0.00    -0.232 NA
ENDROOT
BRANCH   2   7
ATOM      7  C   UNL     1      -1.365  -4.853   1.748  0.00  0.00    +0.003 A 
ATOM      8  C   UNL     1      -2.317  -4.223   0.941  0.00  0.00    +0.012 A 
ATOM      9  C   UNL     1      -3.065  -4.962   0.049  0.00  0.00    +0.028 A 
ATOM     10  C   UNL     1      -2.873  -6.333  -0.050  0.00  0.00    +0.070 A 
ATOM     11  C   UNL     1      -1.923  -6.969   0.754  0.00  0.00    +0.070 A 
ATOM     12  C   UNL     1      -1.166  -6.230   1.647  0.00  0.00    +0.038 A 
ATOM     13  N   UNL     1      -1.963  -8.323   0.430  0.00  0.00    -0.295 N 
ATOM     14  C   UNL     1      -2.894  -8.503  -0.525  0.00  0.00    +0.330 A 
ATOM     15  O   UNL     1      -3.180  -9.572  -1.032  0.00  0.00    -0.246 OA
ATOM     16  N   UNL     1      -3.460  -7.322  -0.836  0.00  0.00    -0.295 N 
ATOM     17  C   UNL     1      -4.515  -7.112  -1.831  0.00  0.00    +0.154 C 
ATOM     18  C   UNL     1      -1.133  -9.373   1.027  0.00  0.00    +0.154 C 
ENDBRANCH   2   7
BRANCH   5  19
ATOM     19  C   UNL     1       1.011  -3.313   5.924  0.00  0.00    +0.051 C 
ATOM     20  C   UNL     1       1.353  -4.727   6.404  0.00  0.00    -0.008 C 
ATOM     21  C   UNL     1       1.821  -4.666   7.860  0.00  0.00    -0.082 C 
ATOM     22  N   UNL     1       0.753  -4.108   8.698  0.00  0.00    +0.379 N 
ATOM     23  C   UNL     1       0.469  -2.727   8.290  0.00  0.00    -0.082 C 
ATOM     24  C   UNL     1      -0.051  -2.714   6.850  0.00  0.00    -0.008 C 
ATOM     25  H   UNL     1      -0.081  -4.667   8.594  0.00  0.00    -0.086 HD
ATOM     26  H   UNL     1       1.044  -4.119   9.664  0.00  0.00    -0.086 HD
ENDBRANCH   5  19
BRANCH   1  32
ATOM     27  C   UNL     1      -0.018   1.503   0.010  0.00  0.00    +0.044 C 
ATOM     28  C   UNL     1       0.002  -0.004   0.002  0.00  0.00    -0.050 A 
ATOM     29  C   UNL     1       0.006  -0.688  -1.201  0.00  0.00    +0.003 A 
ATOM     30  C   UNL     1       0.025  -2.071  -1.217  0.00  0.00    +0.001 A 
ATOM     31  C   UNL     1       0.040  -2.777  -0.031  0.00  0.00    +0.010 A 
ATOM     32  C   UNL     1       0.036  -2.094   1.184  0.00  0.00    +0.003 A 
ATOM     33  C   UNL     1       0.023  -0.699   1.194  0.00  0.00    +0.013 A 
ENDBRANCH   1  32
TORSDOF 3
