REMARK  Name = CHEMBL481882
REMARK  6 active torsions:
REMARK  status: ('A' for Active; 'I' for Inactive)
REMARK    1  A    between atoms: C_1  and  S_2
REMARK    2  A    between atoms: S_2  and  C_3
REMARK    3  A    between atoms: C_6  and  C_16
REMARK    4  A    between atoms: C_7  and  C_9
REMARK    5  A    between atoms: N_22  and  C_23
REMARK    6  A    between atoms: C_23  and  C_24
REMARK                            x       y       z     vdW  Elec       q    Type
REMARK                         _______ _______ _______ _____ _____    ______ ____
ROOT
ATOM      1  C   UNL     1       0.785  -0.431   1.532  0.00  0.00    +0.167 A 
ATOM      2  N   UNL     1       1.052  -1.695   1.962  0.00  0.00    -0.332 N 
ATOM      3  H   UNL     1       0.721  -2.518   1.571  0.00  0.00    +0.168 HD
ATOM      4  C   UNL     1       1.884  -1.584   3.062  0.00  0.00    +0.075 A 
ATOM      5  C   UNL     1       2.091  -0.232   3.257  0.00  0.00    +0.098 A 
ATOM      6  N   UNL     1       1.410   0.429   2.302  0.00  0.00    -0.221 NA
ENDROOT
BRANCH   4   7
ATOM      7  C   UNL     1       2.438  -2.688   3.866  0.00  0.00    +0.005 A 
ATOM      8  C   UNL     1       2.378  -2.660   5.269  0.00  0.00    +0.030 A 
ATOM      9  C   UNL     1       2.906  -3.710   5.984  0.00  0.00    +0.113 A 
ATOM     10  N   UNL     1       3.465  -4.738   5.370  0.00  0.00    -0.240 NA
ATOM     11  C   UNL     1       3.545  -4.809   4.049  0.00  0.00    +0.120 A 
ATOM     12  C   UNL     1       3.033  -3.796   3.252  0.00  0.00    +0.053 A 
ATOM     13  N   UNL     1       4.145  -5.914   3.455  0.00  0.00    -0.322 N 
ATOM     14  H   UNL     1       4.502  -6.628   4.007  0.00  0.00    +0.148 HD
BRANCH  13  15
ATOM     15  C   UNL     1       4.238  -6.001   1.996  0.00  0.00    +0.177 C 
BRANCH  15  16
ATOM     16  C   UNL     1       4.925  -7.286   1.612  0.00  0.00    +0.122 A 
ATOM     17  C   UNL     1       4.318  -8.463   1.375  0.00  0.00    +0.046 A 
ATOM     18  C   UNL     1       5.335  -9.390   1.050  0.00  0.00    +0.041 A 
ATOM     19  C   UNL     1       6.502  -8.725   1.107  0.00  0.00    +0.195 A 
ATOM     20  O   UNL     1       6.248  -7.449   1.442  0.00  0.00    -0.466 OA
ENDBRANCH  15  16
ENDBRANCH  13  15
ENDBRANCH   4   7
BRANCH   5  21
ATOM     21  C   UNL     1       2.919   0.381   4.322  0.00  0.00    +0.003 A 
ATOM     22  C   UNL     1       4.165  -0.160   4.638  0.00  0.00    +0.013 A 
ATOM     23  C   UNL     1       4.932   0.414   5.630  0.00  0.00    +0.039 A 
ATOM     24  C   UNL     1       4.467   1.526   6.313  0.00  0.00    +0.123 A 
ATOM     25  C   UNL     1       3.229   2.068   6.003  0.00  0.00    +0.039 A 
ATOM     26  C   UNL     1       2.458   1.504   5.008  0.00  0.00    +0.013 A 
ATOM     27  F   UNL     1       5.221   2.084   7.285  0.00  0.00    -0.205 F 
ENDBRANCH   5  21
BRANCH   1  29
ATOM     28  C   UNL     1      -0.179   1.797   0.100  0.00  0.00    +0.093 C 
ATOM     29  S   UNL     1      -0.231  -0.016   0.153  0.00  0.00    -0.091 S 
ENDBRANCH   1  29
TORSDOF 5
