REMARK  Name = CHEMBL1208955
REMARK  11 active torsions:
REMARK  status: ('A' for Active; 'I' for Inactive)
REMARK    1  A    between atoms: C_1  and  C_2
REMARK    2  A    between atoms: C_2  and  C_3
REMARK    3  A    between atoms: C_2  and  C_4
REMARK    4  A    between atoms: C_2  and  C_5
REMARK    5  A    between atoms: C_7  and  C_34
REMARK    6  A    between atoms: C_8  and  O_32
REMARK    7  A    between atoms: C_9  and  N_11
REMARK    8  A    between atoms: C_12  and  C_14
REMARK    9  A    between atoms: C_14  and  C_16
REMARK   10  A    between atoms: C_19  and  C_26
REMARK   11  A    between atoms: O_32  and  C_33
REMARK                            x       y       z     vdW  Elec       q    Type
REMARK                         _______ _______ _______ _____ _____    ______ ____
ROOT
ATOM      1  N   UNL     1       4.035  -0.247  -2.807  0.00  0.00    -0.276 N 
ATOM      2  C   UNL     1       4.646   0.611  -1.966  0.00  0.00    +0.289 C 
ATOM      3  O   UNL     1       4.079   0.984  -0.960  0.00  0.00    -0.266 OA
ATOM      4  H   UNL     1       4.511  -0.594  -3.577  0.00  0.00    +0.155 HD
ENDROOT
BRANCH   1   9
ATOM      5  C   UNL     1       0.953  -1.179  -1.022  0.00  0.00    -0.039 A 
ATOM      6  C   UNL     1       0.087  -1.411  -2.071  0.00  0.00    +0.026 A 
ATOM      7  C   UNL     1       0.528  -1.256  -3.388  0.00  0.00    +0.095 A 
ATOM      8  C   UNL     1       1.849  -0.867  -3.637  0.00  0.00    +0.158 A 
ATOM      9  C   UNL     1       2.712  -0.636  -2.568  0.00  0.00    +0.077 A 
ATOM     10  C   UNL     1       2.258  -0.788  -1.266  0.00  0.00    +0.031 A 
BRANCH   5  12
ATOM     11  C   UNL     1       0.608  -0.017   1.141  0.00  0.00    +0.015 C 
ATOM     12  C   UNL     1       0.472  -1.347   0.396  0.00  0.00    -0.013 C 
ATOM     13  C   UNL     1       1.317  -2.413   1.098  0.00  0.00    +0.015 C 
ATOM     14  C   UNL     1      -0.995  -1.781   0.390  0.00  0.00    +0.015 C 
ENDBRANCH   5  12
BRANCH   8  15
ATOM     15  O   UNL     1       2.288  -0.714  -4.912  0.00  0.00    -0.492 OA
ATOM     16  C   UNL     1       2.142   0.581  -5.499  0.00  0.00    +0.277 C 
ENDBRANCH   8  15
BRANCH   7  17
ATOM     17  C   UNL     1      -0.368  -1.496  -4.479  0.00  0.00    +0.103 C 
ATOM     18  N   UNL     1      -1.079  -1.687  -5.344  0.00  0.00    -0.191 NA
ENDBRANCH   7  17
ENDBRANCH   1   9
BRANCH   2  19
ATOM     19  C   UNL     1       6.019   1.103  -2.273  0.00  0.00    +0.248 C 
ATOM     20  O   UNL     1       6.551   0.805  -3.324  0.00  0.00    -0.282 OA
BRANCH  19  21
ATOM     21  C   UNL     1       6.729   1.945  -1.306  0.00  0.00    +0.035 A 
ATOM     22  C   UNL     1       6.080   2.397  -0.157  0.00  0.00    +0.013 A 
ATOM     23  C   UNL     1       6.726   3.191   0.768  0.00  0.00    +0.010 A 
ATOM     24  C   UNL     1       8.050   3.575   0.597  0.00  0.00    -0.009 A 
ATOM     25  C   UNL     1       8.783   3.133  -0.586  0.00  0.00    -0.009 A 
ATOM     26  C   UNL     1       8.127   2.314  -1.534  0.00  0.00    -0.006 A 
ATOM     27  C   UNL     1       8.821   1.880  -2.668  0.00  0.00    +0.009 A 
ATOM     28  C   UNL     1      10.124   2.248  -2.843  0.00  0.00    +0.001 A 
ATOM     29  C   UNL     1      10.773   3.047  -1.907  0.00  0.00    +0.001 A 
ATOM     30  C   UNL     1      10.120   3.497  -0.797  0.00  0.00    +0.009 A 
BRANCH  24  31
ATOM     31  C   UNL     1       8.713   4.427   1.607  0.00  0.00    +0.001 A 
ATOM     32  C   UNL     1       8.100   5.602   2.061  0.00  0.00    +0.011 A 
ATOM     33  C   UNL     1       8.763   6.364   3.006  0.00  0.00    +0.020 A 
ATOM     34  C   UNL     1       9.998   5.946   3.469  0.00  0.00    +0.111 A 
ATOM     35  N   UNL     1      10.552   4.834   3.023  0.00  0.00    -0.263 NA
ATOM     36  C   UNL     1       9.959   4.072   2.128  0.00  0.00    +0.119 A 
ENDBRANCH  24  31
ENDBRANCH  19  21
ENDBRANCH   2  19
TORSDOF 7
