REMARK  Name = CHEMBL258895
REMARK  9 active torsions:
REMARK  status: ('A' for Active; 'I' for Inactive)
REMARK    1  A    between atoms: C_1  and  C_2
REMARK    2  A    between atoms: C_5  and  N_31
REMARK    3  A    between atoms: C_7  and  N_8
REMARK    4  A    between atoms: C_11  and  C_30
REMARK    5  A    between atoms: C_12  and  C_18
REMARK    6  A    between atoms: N_20  and  C_21
REMARK    7  A    between atoms: C_21  and  C_23
REMARK    8  A    between atoms: C_21  and  C_24
REMARK    9  A    between atoms: C_32  and  C_34
REMARK                            x       y       z     vdW  Elec       q    Type
REMARK                         _______ _______ _______ _____ _____    ______ ____
ROOT
ATOM      1  N   UNL     1       0.253  -0.417   1.669  0.00  0.00    -0.297 N 
ATOM      2  C   UNL     1       0.412  -0.981   2.918  0.00  0.00    +0.151 A 
ATOM      3  C   UNL     1       0.470  -0.161   4.073  0.00  0.00    +0.109 A 
ATOM      4  C   UNL     1       0.400   1.199   4.270  0.00  0.00    -0.008 A 
ATOM      5  C   UNL     1       0.522   1.416   5.658  0.00  0.00    +0.060 A 
ATOM      6  C   UNL     1       0.662   0.175   6.257  0.00  0.00    +0.126 A 
ATOM      7  N   UNL     1       0.631  -0.769   5.305  0.00  0.00    -0.234 N 
ATOM      8  N   UNL     1       0.727  -2.168   5.349  0.00  0.00    -0.155 NA
ATOM      9  C   UNL     1       0.665  -2.862   4.247  0.00  0.00    +0.245 A 
ATOM     10  N   UNL     1       0.507  -2.293   3.053  0.00  0.00    -0.217 NA
ATOM     11  C   UNL     1       0.226   2.253   3.208  0.00  0.00    +0.047 C 
ATOM     12  H   UNL     1       0.246   0.548   1.569  0.00  0.00    +0.154 HD
ENDROOT
BRANCH   1  19
ATOM     13  C   UNL     1       0.768   0.708  -0.891  0.00  0.00    +0.045 C 
ATOM     14  C   UNL     1       0.342  -0.727  -0.724  0.00  0.00    -0.029 A 
ATOM     15  C   UNL     1       0.196  -1.538  -1.833  0.00  0.00    +0.007 A 
ATOM     16  C   UNL     1      -0.195  -2.855  -1.684  0.00  0.00    +0.024 A 
ATOM     17  C   UNL     1      -0.443  -3.368  -0.417  0.00  0.00    +0.035 A 
ATOM     18  C   UNL     1      -0.298  -2.557   0.699  0.00  0.00    +0.046 A 
ATOM     19  C   UNL     1       0.100  -1.236   0.546  0.00  0.00    +0.037 A 
BRANCH  17  20
ATOM     20  N   UNL     1      -0.839  -4.701  -0.267  0.00  0.00    -0.281 N 
ATOM     21  C   UNL     1      -0.416  -5.632  -1.144  0.00  0.00    +0.248 C 
ATOM     22  O   UNL     1       0.385  -5.334  -2.008  0.00  0.00    -0.270 OA
ATOM     23  H   UNL     1      -1.418  -4.955   0.469  0.00  0.00    +0.155 HD
BRANCH  21  24
ATOM     24  C   UNL     1      -0.927  -7.020  -1.055  0.00  0.00    +0.042 A 
ATOM     25  C   UNL     1      -1.854  -7.382  -0.071  0.00  0.00    +0.033 A 
ATOM     26  C   UNL     1      -2.307  -8.684  -0.020  0.00  0.00    +0.113 A 
ATOM     27  N   UNL     1      -1.879  -9.586  -0.883  0.00  0.00    -0.240 NA
ATOM     28  C   UNL     1      -1.004  -9.290  -1.830  0.00  0.00    +0.122 A 
ATOM     29  C   UNL     1      -0.501  -7.999  -1.954  0.00  0.00    +0.056 A 
ATOM     30  N   UNL     1      -0.585 -10.278  -2.713  0.00  0.00    -0.311 N 
ATOM     31  C   UNL     1      -1.254 -11.588  -2.756  0.00  0.00    +0.134 C 
ATOM     32  C   UNL     1      -1.611 -11.901  -4.214  0.00  0.00    +0.178 C 
ATOM     33  O   UNL     1      -0.444 -11.758  -5.026  0.00  0.00    -0.377 OA
ATOM     34  C   UNL     1       0.095 -10.433  -5.048  0.00  0.00    +0.178 C 
ATOM     35  C   UNL     1       0.536 -10.043  -3.637  0.00  0.00    +0.134 C 
ENDBRANCH  21  24
ENDBRANCH  17  20
ENDBRANCH   1  19
BRANCH   5  36
ATOM     36  C   UNL     1       0.503   2.722   6.344  0.00  0.00    +0.246 C 
ATOM     37  O   UNL     1       0.374   3.745   5.701  0.00  0.00    -0.270 OA
ATOM     38  N   UNL     1       0.631   2.780   7.685  0.00  0.00    -0.305 N 
ATOM     39  H   UNL     1       0.734   1.964   8.198  0.00  0.00    +0.150 HD
BRANCH  38  40
ATOM     40  C   UNL     1       0.613   4.077   8.366  0.00  0.00    +0.100 C 
ATOM     41  C   UNL     1      -0.835   4.493   8.633  0.00  0.00    +0.033 C 
BRANCH  40  42
ATOM     42  C   UNL     1       1.353   3.967   9.675  0.00  0.00    -0.027 A 
ATOM     43  C   UNL     1       1.213   2.834  10.455  0.00  0.00    +0.005 A 
ATOM     44  C   UNL     1       1.891   2.733  11.655  0.00  0.00    +0.000 A 
ATOM     45  C   UNL     1       2.710   3.765  12.075  0.00  0.00    +0.000 A 
ATOM     46  C   UNL     1       2.851   4.897  11.294  0.00  0.00    +0.000 A 
ATOM     47  C   UNL     1       2.176   4.996  10.092  0.00  0.00    +0.005 A 
ENDBRANCH  40  42
ENDBRANCH  38  40
ENDBRANCH   5  36
TORSDOF 6
