REMARK  Name = CHEMBL23828
REMARK  4 active torsions:
REMARK  status: ('A' for Active; 'I' for Inactive)
REMARK    1  A    between atoms: C_6  and  C_7
REMARK    2  A    between atoms: C_8  and  C_19
REMARK    3  A    between atoms: C_11  and  C_13
REMARK    4  A    between atoms: C_13  and  O_18
REMARK                            x       y       z     vdW  Elec       q    Type
REMARK                         _______ _______ _______ _____ _____    ______ ____
ROOT
ATOM      1  C   UNL     1      -1.265  -0.763   0.011  0.00  0.00    +0.074 A 
ATOM      2  C   UNL     1      -1.583  -1.856  -0.775  0.00  0.00    +0.097 A 
ATOM      3  N   UNL     1      -2.833  -2.239  -0.448  0.00  0.00    -0.229 NA
ATOM      4  H   UNL     1      -2.451   0.174   1.469  0.00  0.00    +0.167 HD
ATOM      5  C   UNL     1      -3.300  -1.454   0.483  0.00  0.00    +0.140 A 
ATOM      6  N   UNL     1      -2.362  -0.527   0.804  0.00  0.00    -0.339 N 
ENDROOT
BRANCH   1  12
ATOM      7  C   UNL     1      -0.017   1.392   0.010  0.00  0.00    +0.013 A 
ATOM      8  C   UNL     1       1.169   2.095   0.002  0.00  0.00    +0.039 A 
ATOM      9  C   UNL     1       2.379   1.419  -0.013  0.00  0.00    +0.123 A 
ATOM     10  C   UNL     1       2.404   0.033  -0.022  0.00  0.00    +0.039 A 
ATOM     11  C   UNL     1       1.224  -0.680  -0.014  0.00  0.00    +0.013 A 
ATOM     12  C   UNL     1       0.002  -0.004   0.002  0.00  0.00    +0.001 A 
ATOM     13  F   UNL     1       3.538   2.113  -0.021  0.00  0.00    -0.205 F 
ENDBRANCH   1  12
BRANCH   2  14
ATOM     14  C   UNL     1      -0.711  -2.490  -1.788  0.00  0.00    +0.005 A 
ATOM     15  C   UNL     1       0.169  -1.723  -2.561  0.00  0.00    +0.030 A 
ATOM     16  C   UNL     1       0.963  -2.354  -3.494  0.00  0.00    +0.111 A 
ATOM     17  N   UNL     1       0.902  -3.662  -3.663  0.00  0.00    -0.263 NA
ATOM     18  C   UNL     1       0.087  -4.422  -2.956  0.00  0.00    +0.111 A 
ATOM     19  C   UNL     1      -0.738  -3.874  -1.997  0.00  0.00    +0.030 A 
ENDBRANCH   2  14
BRANCH   5  20
ATOM     20  C   UNL     1      -4.666  -1.564   1.109  0.00  0.00    +0.123 C 
ATOM     21  C   UNL     1      -4.854  -2.966   1.726  0.00  0.00    +0.043 C 
ATOM     22  C   UNL     1      -6.339  -3.307   1.447  0.00  0.00    +0.003 C 
ATOM     23  C   UNL     1      -6.564  -2.721   0.031  0.00  0.00    +0.003 C 
ATOM     24  C   UNL     1      -5.753  -1.408   0.032  0.00  0.00    +0.043 C 
BRANCH  20  25
ATOM     25  O   UNL     1      -4.825  -0.561   2.114  0.00  0.00    -0.381 OA
ATOM     26  H   UNL     1      -4.175  -0.612   2.828  0.00  0.00    +0.211 HD
ENDBRANCH  20  25
ENDBRANCH   5  20
TORSDOF 4
