REMARK  Name = CHEMBL87289
REMARK  5 active torsions:
REMARK  status: ('A' for Active; 'I' for Inactive)
REMARK    1  A    between atoms: C_1  and  C_2
REMARK    2  A    between atoms: C_2  and  C_8
REMARK    3  A    between atoms: C_10  and  N_19
REMARK    4  A    between atoms: N_11  and  C_13
REMARK    5  A    between atoms: N_22  and  C_23
REMARK                            x       y       z     vdW  Elec       q    Type
REMARK                         _______ _______ _______ _____ _____    ______ ____
ROOT
ATOM      1  C   UNL     1      -1.412  -0.525   0.014  0.00  0.00    +0.071 A 
ATOM      2  C   UNL     1      -2.463  -0.053  -0.778  0.00  0.00    +0.069 A 
ATOM      3  C   UNL     1      -3.571  -0.785  -0.481  0.00  0.00    +0.130 A 
ATOM      4  N   UNL     1      -3.220  -1.690   0.473  0.00  0.00    -0.218 N 
ATOM      5  N   UNL     1      -1.861  -1.504   0.758  0.00  0.00    -0.169 NA
ENDROOT
BRANCH   1   7
ATOM      6  C   UNL     1      -0.026   1.531   0.026  0.00  0.00    +0.018 C 
ATOM      7  C   UNL     1      -0.000   0.002   0.009  0.00  0.00    +0.012 C 
ATOM      8  C   UNL     1       0.719  -0.482  -1.252  0.00  0.00    +0.013 C 
ATOM      9  C   UNL     1       2.153   0.053  -1.257  0.00  0.00    +0.001 C 
ATOM     10  C   UNL     1       2.893  -0.459  -0.019  0.00  0.00    +0.000 C 
ATOM     11  C   UNL     1       2.173   0.024   1.241  0.00  0.00    +0.001 C 
ATOM     12  C   UNL     1       0.739  -0.510   1.247  0.00  0.00    +0.013 C 
ENDBRANCH   1   7
BRANCH   4  13
ATOM     13  C   UNL     1      -4.065  -2.640   1.062  0.00  0.00    +0.067 A 
ATOM     14  C   UNL     1      -5.401  -2.338   1.288  0.00  0.00    +0.028 A 
ATOM     15  C   UNL     1      -6.231  -3.277   1.868  0.00  0.00    +0.002 A 
ATOM     16  C   UNL     1      -5.733  -4.517   2.223  0.00  0.00    +0.000 A 
ATOM     17  C   UNL     1      -4.403  -4.821   1.999  0.00  0.00    +0.002 A 
ATOM     18  C   UNL     1      -3.569  -3.888   1.414  0.00  0.00    +0.028 A 
ENDBRANCH   4  13
BRANCH   3  19
ATOM     19  N   UNL     1      -4.836  -0.635  -1.049  0.00  0.00    -0.254 N 
ATOM     20  C   UNL     1      -5.045   0.308  -1.990  0.00  0.00    +0.309 C 
ATOM     21  O   UNL     1      -4.130   1.028  -2.342  0.00  0.00    -0.252 OA
ATOM     22  N   UNL     1      -6.267   0.453  -2.539  0.00  0.00    -0.269 N 
ATOM     23  H   UNL     1      -5.566  -1.209  -0.768  0.00  0.00    +0.158 HD
ATOM     24  H   UNL     1      -6.979  -0.164  -2.308  0.00  0.00    +0.156 HD
BRANCH  22  25
ATOM     25  C   UNL     1      -6.509   1.494  -3.443  0.00  0.00    +0.035 A 
ATOM     26  C   UNL     1      -5.513   1.896  -4.323  0.00  0.00    +0.023 A 
ATOM     27  C   UNL     1      -5.755   2.923  -5.214  0.00  0.00    +0.002 A 
ATOM     28  C   UNL     1      -6.987   3.550  -5.231  0.00  0.00    +0.000 A 
ATOM     29  C   UNL     1      -7.981   3.152  -4.356  0.00  0.00    +0.002 A 
ATOM     30  C   UNL     1      -7.747   2.122  -3.466  0.00  0.00    +0.023 A 
ENDBRANCH  22  25
ENDBRANCH   3  19
TORSDOF 4
