REMARK  Name = CHEMBL388252
REMARK  2 active torsions:
REMARK  status: ('A' for Active; 'I' for Inactive)
REMARK    1  A    between atoms: C_5  and  N_7
REMARK    2  A    between atoms: C_16  and  C_18
REMARK                            x       y       z     vdW  Elec       q    Type
REMARK                         _______ _______ _______ _____ _____    ______ ____
ROOT
ATOM      1  N   UNL     1       1.250  -2.223  -0.294  0.00  0.00    -0.235 N 
ATOM      2  C   UNL     1       0.164  -3.002  -0.124  0.00  0.00    +0.051 A 
ATOM      3  C   UNL     1       0.576  -4.295  -0.156  0.00  0.00    +0.011 A 
ATOM      4  C   UNL     1       1.956  -4.306  -0.347  0.00  0.00    +0.140 A 
ATOM      5  N   UNL     1       2.364  -3.063  -0.437  0.00  0.00    -0.174 NA
ATOM      6  C   UNL     1      -0.352  -5.477  -0.008  0.00  0.00    +0.146 C 
ATOM      7  N   UNL     1      -1.656  -4.955   0.438  0.00  0.00    -0.293 N 
ATOM      8  C   UNL     1      -2.190  -3.754  -0.220  0.00  0.00    +0.114 C 
ATOM      9  C   UNL     1      -1.265  -2.566   0.073  0.00  0.00    +0.075 C 
ATOM     10  C   UNL     1      -2.343  -5.565   1.424  0.00  0.00    +0.248 C 
ATOM     11  O   UNL     1      -3.454  -5.171   1.725  0.00  0.00    -0.270 OA
ENDROOT
BRANCH  10  12
ATOM     12  C   UNL     1      -1.748  -6.709   2.138  0.00  0.00    +0.046 A 
ATOM     13  C   UNL     1      -1.223  -7.786   1.428  0.00  0.00    +0.014 A 
ATOM     14  C   UNL     1      -0.665  -8.857   2.101  0.00  0.00    +0.003 A 
ATOM     15  C   UNL     1      -0.618  -8.880   3.481  0.00  0.00    +0.026 A 
ATOM     16  C   UNL     1      -1.133  -7.820   4.217  0.00  0.00    +0.047 A 
ATOM     17  C   UNL     1      -1.699  -6.721   3.547  0.00  0.00    +0.012 A 
ATOM     18  C   UNL     1      -2.133  -5.792   4.586  0.00  0.00    +0.028 A 
ATOM     19  C   UNL     1      -1.818  -6.349   5.769  0.00  0.00    +0.083 A 
ATOM     20  N   UNL     1      -1.227  -7.564   5.568  0.00  0.00    -0.361 N 
ATOM     21  H   UNL     1      -0.912  -8.153   6.271  0.00  0.00    +0.165 HD
ENDBRANCH  10  12
BRANCH   1  26
ATOM     22  C   UNL     1       0.605   1.286   0.607  0.00  0.00    +0.002 A 
ATOM     23  C   UNL     1       1.288   1.945  -0.399  0.00  0.00    +0.002 A 
ATOM     24  C   UNL     1       1.958   1.225  -1.370  0.00  0.00    +0.022 A 
ATOM     25  C   UNL     1       1.948  -0.157  -1.339  0.00  0.00    +0.066 A 
ATOM     26  C   UNL     1       1.263  -0.821  -0.330  0.00  0.00    +0.084 A 
ATOM     27  C   UNL     1       0.591  -0.095   0.644  0.00  0.00    +0.029 A 
ATOM     28 CL   UNL     1       2.789  -1.060  -2.559  0.00  0.00    -0.081 Cl
ENDBRANCH   1  26
TORSDOF 2
