REMARK  Name = CHEMBL192848
REMARK  6 active torsions:
REMARK  status: ('A' for Active; 'I' for Inactive)
REMARK    1  A    between atoms: C_1  and  C_2
REMARK    2  A    between atoms: C_2  and  C_3
REMARK    3  A    between atoms: C_2  and  S_4
REMARK    4  A    between atoms: S_4  and  N_7
REMARK    5  A    between atoms: C_10  and  C_17
REMARK    6  A    between atoms: C_18  and  C_23
REMARK                            x       y       z     vdW  Elec       q    Type
REMARK                         _______ _______ _______ _____ _____    ______ ____
ROOT
ATOM      1  N   UNL     1       0.470  -0.247   2.958  0.00  0.00    -0.183 N 
ATOM      2  C   UNL     1       0.525   1.028   3.498  0.00  0.00    +0.094 A 
ATOM      3  C   UNL     1       1.364   2.112   3.311  0.00  0.00    +0.039 A 
ATOM      4  C   UNL     1       1.142   3.287   4.030  0.00  0.00    +0.003 A 
ATOM      5  C   UNL     1       0.076   3.365   4.935  0.00  0.00    +0.012 A 
ATOM      6  C   UNL     1      -0.753   2.298   5.121  0.00  0.00    +0.030 A 
ATOM      7  C   UNL     1      -0.543   1.114   4.407  0.00  0.00    +0.093 A 
ATOM      8  N   UNL     1      -1.186  -0.083   4.382  0.00  0.00    -0.213 NA
ATOM      9  C   UNL     1      -0.596  -0.882   3.527  0.00  0.00    +0.214 A 
ATOM     10  N   UNL     1      -0.992  -2.173   3.247  0.00  0.00    -0.328 N 
ATOM     11  H   UNL     1      -0.498  -2.702   2.601  0.00  0.00    +0.145 HD
ATOM     12  H   UNL     1      -1.763  -2.552   3.697  0.00  0.00    +0.145 HD
ENDROOT
BRANCH   4  13
ATOM     13  C   UNL     1       2.032   4.448   3.837  0.00  0.00    +0.074 A 
ATOM     14  C   UNL     1       2.624   5.214   4.825  0.00  0.00    +0.096 A 
ATOM     15  N   UNL     1       3.353   6.168   4.216  0.00  0.00    -0.235 NA
ATOM     16  C   UNL     1       3.249   6.038   2.923  0.00  0.00    +0.197 A 
ATOM     17  N   UNL     1       2.444   4.983   2.638  0.00  0.00    -0.344 N 
ATOM     18  H   UNL     1       2.203   4.666   1.754  0.00  0.00    +0.167 HD
BRANCH  14  19
ATOM     19  C   UNL     1       2.480   5.021   6.287  0.00  0.00    +0.002 A 
ATOM     20  C   UNL     1       2.522   3.737   6.831  0.00  0.00    +0.010 A 
ATOM     21  C   UNL     1       2.388   3.563   8.193  0.00  0.00    +0.001 A 
ATOM     22  C   UNL     1       2.212   4.659   9.019  0.00  0.00    +0.000 A 
ATOM     23  C   UNL     1       2.170   5.935   8.485  0.00  0.00    +0.001 A 
ATOM     24  C   UNL     1       2.309   6.122   7.125  0.00  0.00    +0.010 A 
ENDBRANCH  14  19
ENDBRANCH   4  13
BRANCH   1  25
ATOM     25  S   UNL     1       1.502  -0.881   1.827  0.00  0.00    +0.060 S 
ATOM     26  O   UNL     1       1.453  -2.285   2.039  0.00  0.00    -0.153 OA
ATOM     27  O   UNL     1       2.716  -0.163   2.001  0.00  0.00    -0.153 OA
BRANCH  25  29
ATOM     28  C   UNL     1       0.637   1.056   0.100  0.00  0.00    +0.033 C 
ATOM     29  C   UNL     1       0.753  -0.464   0.228  0.00  0.00    +0.148 C 
ATOM     30  C   UNL     1       1.631  -1.006  -0.902  0.00  0.00    +0.033 C 
ENDBRANCH  25  29
ENDBRANCH   1  25
TORSDOF 4
