REMARK  Name = CHEMBL129678
REMARK  3 active torsions:
REMARK  status: ('A' for Active; 'I' for Inactive)
REMARK    1  A    between atoms: C_7  and  C_11
REMARK    2  A    between atoms: C_16  and  C_17
REMARK    3  A    between atoms: C_21  and  C_23
REMARK                            x       y       z     vdW  Elec       q    Type
REMARK                         _______ _______ _______ _____ _____    ______ ____
ROOT
ATOM      1  C   UNL     1       0.091  -2.969  -0.051  0.00  0.00    +0.028 A 
ATOM      2  C   UNL     1      -0.283  -3.855   0.918  0.00  0.00    +0.114 A 
ATOM      3  N   UNL     1      -1.506  -4.321   0.600  0.00  0.00    -0.284 N 
ATOM      4  H   UNL     1      -2.017  -4.967   1.113  0.00  0.00    +0.188 HD
ATOM      5  N   UNL     1      -1.915  -3.718  -0.595  0.00  0.00    -0.173 NA
ATOM      6  C   UNL     1      -0.967  -2.900  -0.994  0.00  0.00    +0.100 A 
ENDROOT
BRANCH   1  13
ATOM      7  C   UNL     1       0.267   1.284   0.346  0.00  0.00    +0.001 A 
ATOM      8  C   UNL     1       1.488   1.951   0.289  0.00  0.00    +0.002 A 
ATOM      9  C   UNL     1       2.652   1.270   0.106  0.00  0.00    +0.028 A 
ATOM     10  C   UNL     1       2.628  -0.129  -0.028  0.00  0.00    +0.072 A 
ATOM     11  C   UNL     1       1.385  -0.804   0.031  0.00  0.00    +0.008 A 
ATOM     12  C   UNL     1       0.205  -0.071   0.220  0.00  0.00    +0.010 A 
ATOM     13  C   UNL     1       1.363  -2.215  -0.105  0.00  0.00    -0.004 A 
ATOM     14  C   UNL     1       2.577  -2.867  -0.290  0.00  0.00    +0.029 A 
ATOM     15  C   UNL     1       3.752  -2.130  -0.335  0.00  0.00    +0.112 A 
ATOM     16  N   UNL     1       3.757  -0.823  -0.208  0.00  0.00    -0.255 NA
ENDBRANCH   1  13
BRANCH   6  17
ATOM     17  C   UNL     1      -0.997  -2.057  -2.214  0.00  0.00    +0.003 A 
ATOM     18  C   UNL     1       0.142  -1.936  -3.009  0.00  0.00    +0.010 A 
ATOM     19  C   UNL     1       0.108  -1.151  -4.143  0.00  0.00    +0.001 A 
ATOM     20  C   UNL     1      -1.053  -0.484  -4.492  0.00  0.00    +0.012 A 
ATOM     21  C   UNL     1      -2.186  -0.600  -3.707  0.00  0.00    +0.055 A 
ATOM     22  C   UNL     1      -2.165  -1.388  -2.573  0.00  0.00    +0.022 A 
BRANCH  21  23
ATOM     23  C   UNL     1      -3.446   0.129  -4.093  0.00  0.00    +0.417 C 
ATOM     24  F   UNL     1      -3.225   0.851  -5.271  0.00  0.00    -0.166 F 
ATOM     25  F   UNL     1      -4.476  -0.795  -4.299  0.00  0.00    -0.166 F 
ATOM     26  F   UNL     1      -3.808   1.010  -3.068  0.00  0.00    -0.166 F 
ENDBRANCH  21  23
ENDBRANCH   6  17
TORSDOF 3
