REMARK  Name = CHEMBL522877
REMARK  4 active torsions:
REMARK  status: ('A' for Active; 'I' for Inactive)
REMARK    1  A    between atoms: C_1  and  C_2
REMARK    2  A    between atoms: C_7  and  C_8
REMARK    3  A    between atoms: C_23  and  C_25
REMARK    4  A    between atoms: N_29  and  C_30
REMARK                            x       y       z     vdW  Elec       q    Type
REMARK                         _______ _______ _______ _____ _____    ______ ____
ROOT
ATOM      1  C   UNL     1       0.657   0.541   2.496  0.00  0.00    -0.013 A 
ATOM      2  C   UNL     1      -0.495   1.294   2.772  0.00  0.00    +0.009 A 
ATOM      3  C   UNL     1      -0.696   1.838   4.003  0.00  0.00    +0.012 A 
ATOM      4  C   UNL     1       0.256   1.647   5.011  0.00  0.00    +0.025 A 
ATOM      5  C   UNL     1       1.425   0.886   4.744  0.00  0.00    +0.006 A 
ATOM      6  C   UNL     1       1.614   0.330   3.475  0.00  0.00    +0.018 A 
ATOM      7  C   UNL     1       2.353   0.721   5.791  0.00  0.00    +0.143 A 
ATOM      8  N   UNL     1       2.104   1.269   6.957  0.00  0.00    -0.155 NA
ATOM      9  N   UNL     1       1.052   1.956   7.205  0.00  0.00    -0.134 NA
ATOM     10  C   UNL     1       0.107   2.184   6.310  0.00  0.00    +0.152 A 
ATOM     11  N   UNL     1      -1.010   2.935   6.638  0.00  0.00    -0.306 N 
ATOM     12  C   UNL     1      -1.043   4.387   6.401  0.00  0.00    +0.135 C 
ATOM     13  C   UNL     1      -1.490   5.078   7.695  0.00  0.00    +0.179 C 
ATOM     14  O   UNL     1      -2.707   4.481   8.151  0.00  0.00    -0.376 OA
ATOM     15  C   UNL     1      -2.589   3.097   8.487  0.00  0.00    +0.182 C 
ATOM     16  C   UNL     1      -2.200   2.303   7.229  0.00  0.00    +0.097 C 
ATOM     17  C   UNL     1      -1.881   0.856   7.609  0.00  0.00    +0.030 C 
ENDROOT
BRANCH   1  24
ATOM     18  C   UNL     1       0.996   2.289   0.228  0.00  0.00    +0.044 C 
ATOM     19  C   UNL     1       1.013   0.794   0.044  0.00  0.00    -0.039 A 
ATOM     20  C   UNL     1       1.197   0.258  -1.219  0.00  0.00    +0.005 A 
ATOM     21  C   UNL     1       1.215  -1.107  -1.404  0.00  0.00    +0.015 A 
ATOM     22  C   UNL     1       1.047  -1.961  -0.312  0.00  0.00    +0.063 A 
ATOM     23  C   UNL     1       0.860  -1.429   0.971  0.00  0.00    +0.177 A 
ATOM     24  C   UNL     1       0.849  -0.039   1.145  0.00  0.00    +0.031 A 
ATOM     25  O   UNL     1       0.726  -2.467   1.820  0.00  0.00    -0.352 OA
ATOM     26  N   UNL     1       0.824  -3.680   1.101  0.00  0.00    -0.062 NA
ATOM     27  C   UNL     1       1.014  -3.424  -0.164  0.00  0.00    +0.170 A 
ATOM     28  N   UNL     1       1.159  -4.358  -1.180  0.00  0.00    -0.323 N 
ATOM     29  H   UNL     1       1.296  -4.063  -2.094  0.00  0.00    +0.148 HD
BRANCH  28  30
ATOM     30  C   UNL     1       1.103  -5.790  -0.873  0.00  0.00    +0.072 C 
ATOM     31  C   UNL     1       2.142  -6.696  -1.537  0.00  0.00    +0.024 C 
ATOM     32  C   UNL     1       0.683  -6.738  -1.998  0.00  0.00    +0.024 C 
ENDBRANCH  28  30
ENDBRANCH   1  24
TORSDOF 2
