REMARK  Name = CHEMBL302379
REMARK  5 active torsions:
REMARK  status: ('A' for Active; 'I' for Inactive)
REMARK    1  A    between atoms: C_1  and  C_2
REMARK    2  A    between atoms: C_2  and  C_3
REMARK    3  A    between atoms: C_2  and  C_4
REMARK    4  A    between atoms: C_2  and  C_5
REMARK    5  A    between atoms: N_13  and  C_14
REMARK                            x       y       z     vdW  Elec       q    Type
REMARK                         _______ _______ _______ _____ _____    ______ ____
ROOT
ATOM      1  C   UNL     1       0.717  -0.512  -1.222  0.00  0.00    +0.144 A 
ATOM      2  C   UNL     1       1.988  -0.240  -1.565  0.00  0.00    +0.092 A 
ATOM      3  C   UNL     1       2.259  -0.883  -2.793  0.00  0.00    +0.169 A 
ATOM      4  N   UNL     1       1.175  -1.516  -3.163  0.00  0.00    -0.063 NA
ATOM      5  O   UNL     1       0.186  -1.296  -2.174  0.00  0.00    -0.357 OA
ATOM      6  N   UNL     1       3.467  -0.849  -3.489  0.00  0.00    -0.251 N 
ATOM      7  C   UNL     1       4.511  -0.155  -2.994  0.00  0.00    +0.309 C 
ATOM      8  O   UNL     1       4.399   0.442  -1.941  0.00  0.00    -0.252 OA
ATOM      9  N   UNL     1       5.678  -0.122  -3.667  0.00  0.00    -0.268 N 
ATOM     10  H   UNL     1       3.556  -1.325  -4.330  0.00  0.00    +0.158 HD
ATOM     11  H   UNL     1       5.789  -0.650  -4.473  0.00  0.00    +0.156 HD
ENDROOT
BRANCH   9  12
ATOM     12  C   UNL     1       6.732   0.674  -3.202  0.00  0.00    +0.055 A 
ATOM     13  C   UNL     1       6.927   0.843  -1.837  0.00  0.00    +0.025 A 
ATOM     14  C   UNL     1       7.966   1.629  -1.381  0.00  0.00    +0.003 A 
ATOM     15  C   UNL     1       8.814   2.249  -2.280  0.00  0.00    +0.021 A 
ATOM     16  C   UNL     1       8.624   2.084  -3.641  0.00  0.00    +0.061 A 
ATOM     17  C   UNL     1       7.588   1.293  -4.104  0.00  0.00    +0.080 A 
ATOM     18 CL   UNL     1       7.353   1.079  -5.811  0.00  0.00    -0.080 Cl
ATOM     19 CL   UNL     1       9.690   2.865  -4.767  0.00  0.00    -0.082 Cl
ENDBRANCH   9  12
BRANCH   1  21
ATOM     20  C   UNL     1      -0.018   1.504   0.020  0.00  0.00    +0.019 C 
ATOM     21  C   UNL     1       0.012  -0.025   0.018  0.00  0.00    +0.023 C 
ATOM     22  C   UNL     1       0.758  -0.523   1.257  0.00  0.00    +0.019 C 
ATOM     23  C   UNL     1      -1.420  -0.564   0.035  0.00  0.00    +0.019 C 
ENDBRANCH   1  21
TORSDOF 2
