REMARK  Name = CHEMBL512255
REMARK  6 active torsions:
REMARK  status: ('A' for Active; 'I' for Inactive)
REMARK    1  A    between atoms: C_1  and  O_2
REMARK    2  A    between atoms: O_2  and  C_3
REMARK    3  A    between atoms: C_6  and  C_28
REMARK    4  A    between atoms: C_8  and  C_9
REMARK    5  A    between atoms: N_19  and  C_20
REMARK    6  A    between atoms: N_30  and  N_31
REMARK                            x       y       z     vdW  Elec       q    Type
REMARK                         _______ _______ _______ _____ _____    ______ ____
ROOT
ATOM      1  C   UNL     1      -0.478  -3.573   0.730  0.00  0.00    +0.105 A 
ATOM      2  C   UNL     1      -0.099  -4.591  -0.255  0.00  0.00    +0.046 A 
ATOM      3  C   UNL     1      -0.764  -5.212  -1.319  0.00  0.00    +0.017 A 
ATOM      4  C   UNL     1      -0.086  -6.147  -2.050  0.00  0.00    +0.044 A 
ATOM      5  C   UNL     1       1.236  -6.453  -1.720  0.00  0.00    +0.125 A 
ATOM      6  N   UNL     1       1.849  -5.858  -0.712  0.00  0.00    -0.213 NA
ATOM      7  C   UNL     1       1.233  -4.943   0.029  0.00  0.00    +0.158 A 
ATOM      8  N   UNL     1       1.620  -4.189   1.104  0.00  0.00    -0.260 N 
ATOM      9  H   UNL     1       2.494  -4.219   1.523  0.00  0.00    +0.191 HD
ATOM     10  N   UNL     1       0.562  -3.366   1.500  0.00  0.00    -0.171 NA
ATOM     11  N   UNL     1       1.921  -7.404  -2.466  0.00  0.00    -0.297 N 
ATOM     12  H   UNL     1       1.516  -7.778  -3.264  0.00  0.00    +0.154 HD
ENDROOT
BRANCH  11  13
ATOM     13  C   UNL     1       3.196  -7.824  -2.066  0.00  0.00    +0.068 A 
ATOM     14  C   UNL     1       3.598  -7.662  -0.747  0.00  0.00    +0.029 A 
ATOM     15  C   UNL     1       4.856  -8.076  -0.354  0.00  0.00    +0.040 A 
ATOM     16  C   UNL     1       5.716  -8.652  -1.273  0.00  0.00    +0.126 A 
ATOM     17  C   UNL     1       5.319  -8.814  -2.590  0.00  0.00    +0.078 A 
ATOM     18  C   UNL     1       4.058  -8.407  -2.987  0.00  0.00    +0.147 A 
ATOM     19  F   UNL     1       3.667  -8.571  -4.270  0.00  0.00    -0.203 F 
ATOM     20  F   UNL     1       6.946  -9.056  -0.886  0.00  0.00    -0.205 F 
ENDBRANCH  11  13
BRANCH   1  26
ATOM     21  C   UNL     1      -1.858  -1.505   0.977  0.00  0.00    +0.129 A 
ATOM     22  C   UNL     1      -3.090  -0.872   1.065  0.00  0.00    +0.047 A 
ATOM     23  C   UNL     1      -4.253  -1.608   1.016  0.00  0.00    +0.017 A 
ATOM     24  C   UNL     1      -4.199  -2.998   0.876  0.00  0.00    +0.039 A 
ATOM     25  C   UNL     1      -2.965  -3.642   0.785  0.00  0.00    +0.026 A 
ATOM     26  C   UNL     1      -1.793  -2.897   0.830  0.00  0.00    +0.045 A 
BRANCH  24  27
ATOM     27  C   UNL     1      -5.448  -3.784   0.824  0.00  0.00    +0.258 C 
ATOM     28  O   UNL     1      -5.401  -4.993   0.702  0.00  0.00    -0.269 OA
ATOM     29  N   UNL     1      -6.640  -3.162   0.911  0.00  0.00    -0.244 N 
ATOM     30  H   UNL     1      -6.678  -2.198   1.008  0.00  0.00    +0.170 HD
BRANCH  29  31
ATOM     31  N   UNL     1      -7.795  -3.889   0.863  0.00  0.00    -0.222 NA
ATOM     32  C   UNL     1      -8.592  -3.535  -0.321  0.00  0.00    +0.133 C 
ATOM     33  C   UNL     1      -9.845  -4.413  -0.367  0.00  0.00    +0.177 C 
ATOM     34  O   UNL     1     -10.581  -4.251   0.848  0.00  0.00    -0.377 OA
ATOM     35  C   UNL     1      -9.835  -4.588   2.021  0.00  0.00    +0.177 C 
ATOM     36  C   UNL     1      -8.582  -3.711   2.092  0.00  0.00    +0.133 C 
ENDBRANCH  29  31
ENDBRANCH  24  27
BRANCH  21  38
ATOM     37  C   UNL     1      -0.856   0.639   1.177  0.00  0.00    +0.277 C 
ATOM     38  O   UNL     1      -0.716  -0.775   1.026  0.00  0.00    -0.494 OA
ENDBRANCH  21  38
ENDBRANCH   1  26
TORSDOF 5
