REMARK  Name = CHEMBL62459
REMARK  6 active torsions:
REMARK  status: ('A' for Active; 'I' for Inactive)
REMARK    1  A    between atoms: C_1  and  C_2
REMARK    2  A    between atoms: C_2  and  C_3
REMARK    3  A    between atoms: C_2  and  C_4
REMARK    4  A    between atoms: C_2  and  C_5
REMARK    5  A    between atoms: C_7  and  N_11
REMARK    6  A    between atoms: N_14  and  C_15
REMARK                            x       y       z     vdW  Elec       q    Type
REMARK                         _______ _______ _______ _____ _____    ______ ____
ROOT
ATOM      1  N   UNL     1       3.572  -1.171  -3.284  0.00  0.00    -0.254 N 
ATOM      2  C   UNL     1       4.689  -0.783  -2.636  0.00  0.00    +0.309 C 
ATOM      3  O   UNL     1       4.609  -0.297  -1.525  0.00  0.00    -0.252 OA
ATOM      4  N   UNL     1       5.894  -0.934  -3.221  0.00  0.00    -0.268 N 
ATOM      5  H   UNL     1       3.636  -1.559  -4.170  0.00  0.00    +0.158 HD
ATOM      6  H   UNL     1       5.964  -1.380  -4.079  0.00  0.00    +0.156 HD
ENDROOT
BRANCH   4   7
ATOM      7  C   UNL     1       7.044  -0.445  -2.590  0.00  0.00    +0.055 A 
ATOM      8  C   UNL     1       7.144  -0.476  -1.206  0.00  0.00    +0.025 A 
ATOM      9  C   UNL     1       8.280   0.006  -0.585  0.00  0.00    +0.003 A 
ATOM     10  C   UNL     1       9.318   0.520  -1.341  0.00  0.00    +0.021 A 
ATOM     11  C   UNL     1       9.223   0.553  -2.721  0.00  0.00    +0.061 A 
ATOM     12  C   UNL     1       8.090   0.066  -3.349  0.00  0.00    +0.080 A 
ATOM     13 CL   UNL     1       7.973   0.099  -5.080  0.00  0.00    -0.080 Cl
ATOM     14 CL   UNL     1      10.528   1.200  -3.666  0.00  0.00    -0.082 Cl
ENDBRANCH   4   7
BRANCH   1  17
ATOM     15  C   UNL     1       0.711  -0.515  -1.225  0.00  0.00    +0.070 A 
ATOM     16  C   UNL     1       2.090  -0.489  -1.445  0.00  0.00    +0.069 A 
ATOM     17  C   UNL     1       2.325  -1.015  -2.678  0.00  0.00    +0.122 A 
ATOM     18  N   UNL     1       1.130  -1.359  -3.210  0.00  0.00    -0.264 N 
ATOM     19  H   UNL     1       0.988  -1.759  -4.082  0.00  0.00    +0.190 HD
ATOM     20  N   UNL     1       0.136  -1.039  -2.277  0.00  0.00    -0.177 NA
BRANCH  15  22
ATOM     21  C   UNL     1      -0.025   1.500   0.018  0.00  0.00    +0.017 C 
ATOM     22  C   UNL     1       0.006  -0.029   0.016  0.00  0.00    +0.006 C 
ATOM     23  C   UNL     1       0.752  -0.527   1.255  0.00  0.00    +0.017 C 
ATOM     24  C   UNL     1      -1.426  -0.568   0.033  0.00  0.00    +0.017 C 
ENDBRANCH  15  22
ENDBRANCH   1  17
TORSDOF 3
