REMARK  Name = CHEMBL559885
REMARK  6 active torsions:
REMARK  status: ('A' for Active; 'I' for Inactive)
REMARK    1  A    between atoms: C_4  and  C_7
REMARK    2  A    between atoms: C_7  and  C_8
REMARK    3  A    between atoms: C_8  and  C_9
REMARK    4  A    between atoms: N_16  and  O_17
REMARK    5  A    between atoms: N_20  and  C_21
REMARK    6  A    between atoms: C_21  and  C_22
REMARK                            x       y       z     vdW  Elec       q    Type
REMARK                         _______ _______ _______ _____ _____    ______ ____
ROOT
ATOM      1  C   UNL     1       5.487  -1.699   1.381  0.00  0.00    -0.036 A 
ATOM      2  C   UNL     1       5.511  -3.077   1.473  0.00  0.00    +0.004 A 
ATOM      3  C   UNL     1       6.720  -3.751   1.456  0.00  0.00    +0.002 A 
ATOM      4  C   UNL     1       7.910  -3.058   1.349  0.00  0.00    +0.024 A 
ATOM      5  C   UNL     1       7.904  -1.671   1.256  0.00  0.00    +0.047 A 
ATOM      6  C   UNL     1       6.679  -0.994   1.268  0.00  0.00    +0.033 A 
ATOM      7  C   UNL     1       6.995   0.450   1.149  0.00  0.00    +0.174 C 
ATOM      8  N   UNL     1       6.159   1.447   1.124  0.00  0.00    -0.082 NA
ATOM      9  C   UNL     1       8.478   0.508   1.066  0.00  0.00    +0.273 C 
ATOM     10  O   UNL     1       9.150   1.515   0.960  0.00  0.00    -0.268 OA
ATOM     11  N   UNL     1       8.942  -0.751   1.141  0.00  0.00    -0.261 N 
ENDROOT
BRANCH   8  12
ATOM     12  O   UNL     1       6.641   2.773   1.004  0.00  0.00    -0.409 OA
ATOM     13  H   UNL     1       5.945   3.445   0.994  0.00  0.00    +0.328 HD
ENDBRANCH   8  12
BRANCH   1  14
ATOM     14  C   UNL     1       4.171  -0.963   1.399  0.00  0.00    +0.040 C 
BRANCH  14  15
ATOM     15  C   UNL     1       3.711  -0.707  -0.038  0.00  0.00    +0.040 C 
BRANCH  15  19
ATOM     16  C   UNL     1      -0.017   1.378   0.010  0.00  0.00    +0.000 A 
ATOM     17  C   UNL     1       1.171   2.086   0.002  0.00  0.00    +0.000 A 
ATOM     18  C   UNL     1       2.377   1.411  -0.013  0.00  0.00    +0.003 A 
ATOM     19  C   UNL     1       2.396   0.029  -0.020  0.00  0.00    -0.047 A 
ATOM     20  C   UNL     1       1.208  -0.679  -0.012  0.00  0.00    +0.003 A 
ATOM     21  C   UNL     1       0.002  -0.004   0.002  0.00  0.00    +0.000 A 
ENDBRANCH  15  19
ENDBRANCH  14  15
ENDBRANCH   1  14
BRANCH  11  22
ATOM     22  C   UNL     1      10.361  -1.110   1.093  0.00  0.00    +0.153 C 
BRANCH  22  23
ATOM     23  C   UNL     1      10.776  -1.329  -0.340  0.00  0.00    +0.015 A 
ATOM     24  C   UNL     1      10.868  -2.612  -0.844  0.00  0.00    +0.047 A 
ATOM     25  C   UNL     1      11.249  -2.813  -2.159  0.00  0.00    +0.124 A 
ATOM     26  C   UNL     1      11.540  -1.729  -2.970  0.00  0.00    +0.047 A 
ATOM     27  C   UNL     1      11.449  -0.445  -2.469  0.00  0.00    +0.023 A 
ATOM     28  C   UNL     1      11.059  -0.241  -1.154  0.00  0.00    +0.134 A 
ATOM     29  O   UNL     1      10.952   1.019  -0.652  0.00  0.00    -0.465 OA
ATOM     30  C   UNL     1      11.588   2.065  -1.391  0.00  0.00    +0.394 C 
ATOM     31  O   UNL     1      11.240   1.925  -2.774  0.00  0.00    -0.339 OA
ATOM     32  C   UNL     1      11.771   0.728  -3.360  0.00  0.00    +0.202 C 
ATOM     33  F   UNL     1      11.339  -4.068  -2.651  0.00  0.00    -0.205 F 
ENDBRANCH  22  23
ENDBRANCH  11  22
TORSDOF 6
