REMARK  Name = CHEMBL404115
REMARK  7 active torsions:
REMARK  status: ('A' for Active; 'I' for Inactive)
REMARK    1  A    between atoms: C_1  and  C_2
REMARK    2  A    between atoms: C_2  and  C_3
REMARK    3  A    between atoms: C_3  and  C_5
REMARK    4  A    between atoms: C_3  and  N_6
REMARK    5  A    between atoms: C_12  and  C_16
REMARK    6  A    between atoms: C_17  and  C_23
REMARK    7  A    between atoms: C_21  and  N_22
REMARK                            x       y       z     vdW  Elec       q    Type
REMARK                         _______ _______ _______ _____ _____    ______ ____
ROOT
ATOM      1  C   UNL     1       6.273   0.590   7.732  0.00  0.00    +0.049 A 
ATOM      2  C   UNL     1       6.364   1.725   8.577  0.00  0.00    +0.105 A 
ATOM      3  N   UNL     1       7.497   1.651   9.239  0.00  0.00    -0.172 NA
ATOM      4  N   UNL     1       8.171   0.486   8.856  0.00  0.00    -0.263 N 
ATOM      5  H   UNL     1       9.031   0.192   9.194  0.00  0.00    +0.190 HD
ATOM      6  C   UNL     1       7.414  -0.164   7.935  0.00  0.00    +0.120 A 
ENDROOT
BRANCH   1  13
ATOM      7  N   UNL     1       1.544  -0.853   1.773  0.00  0.00    -0.321 N 
ATOM      8  C   UNL     1       2.378  -0.598   2.843  0.00  0.00    +0.159 A 
ATOM      9  N   UNL     1       2.100  -0.618   4.126  0.00  0.00    -0.225 NA
ATOM     10  C   UNL     1       3.024  -0.345   5.074  0.00  0.00    +0.080 A 
ATOM     11  C   UNL     1       2.854  -0.332   6.479  0.00  0.00    +0.029 A 
ATOM     12  C   UNL     1       3.889  -0.035   7.307  0.00  0.00    +0.011 A 
ATOM     13  C   UNL     1       5.160   0.269   6.808  0.00  0.00    -0.011 A 
ATOM     14  C   UNL     1       5.364   0.265   5.428  0.00  0.00    +0.026 A 
ATOM     15  C   UNL     1       4.318  -0.035   4.595  0.00  0.00    +0.041 A 
ATOM     16  S   UNL     1       4.112  -0.165   2.835  0.00  0.00    -0.052 S 
ATOM     17  H   UNL     1       1.889  -0.805   0.867  0.00  0.00    +0.148 HD
BRANCH   7  18
ATOM     18  C   UNL     1       0.138  -1.194   2.004  0.00  0.00    +0.069 C 
ATOM     19  C   UNL     1       0.015  -2.696   2.269  0.00  0.00    +0.028 C 
BRANCH  18  21
ATOM     20  C   UNL     1      -0.664   0.694   0.577  0.00  0.00    +0.005 C 
ATOM     21  C   UNL     1      -0.686  -0.824   0.769  0.00  0.00    +0.018 C 
ENDBRANCH  18  21
ENDBRANCH   7  18
ENDBRANCH   1  13
BRANCH   2  22
ATOM     22  C   UNL     1       5.356   2.806   8.693  0.00  0.00    +0.038 A 
ATOM     23  C   UNL     1       4.815   3.384   7.546  0.00  0.00    +0.013 A 
ATOM     24  C   UNL     1       3.877   4.390   7.659  0.00  0.00    +0.001 A 
ATOM     25  C   UNL     1       3.473   4.827   8.908  0.00  0.00    +0.003 A 
ATOM     26  C   UNL     1       4.006   4.259  10.051  0.00  0.00    +0.039 A 
ATOM     27  C   UNL     1       4.942   3.246   9.951  0.00  0.00    +0.133 A 
ATOM     28  F   UNL     1       5.458   2.688  11.067  0.00  0.00    -0.205 F 
ENDBRANCH   2  22
BRANCH   6  29
ATOM     29  N   UNL     1       7.729  -1.364   7.311  0.00  0.00    -0.343 N 
ATOM     30  H   UNL     1       7.119  -1.747   6.662  0.00  0.00    +0.144 HD
ATOM     31  H   UNL     1       8.559  -1.818   7.523  0.00  0.00    +0.144 HD
ENDBRANCH   6  29
TORSDOF 5
