REMARK  Name = CHEMBL70053
REMARK  8 active torsions:
REMARK  status: ('A' for Active; 'I' for Inactive)
REMARK    1  A    between atoms: C_1  and  C_2
REMARK    2  A    between atoms: C_2  and  C_32
REMARK    3  A    between atoms: C_5  and  C_8
REMARK    4  A    between atoms: C_11  and  C_21
REMARK    5  A    between atoms: C_12  and  C_14
REMARK    6  A    between atoms: N_27  and  C_28
REMARK    7  A    between atoms: C_28  and  C_29
REMARK    8  A    between atoms: N_37  and  C_40
REMARK                            x       y       z     vdW  Elec       q    Type
REMARK                         _______ _______ _______ _____ _____    ______ ____
ROOT
ATOM      1  C   UNL     1      -1.352  -3.843   1.034  0.00  0.00    +0.165 A 
ATOM      2  N   UNL     1      -2.401  -4.391   0.491  0.00  0.00    -0.225 NA
ATOM      3  H   UNL     1       0.332  -4.679   1.934  0.00  0.00    +0.167 HD
ATOM      4  C   UNL     1      -2.303  -5.732   0.573  0.00  0.00    +0.115 A 
ATOM      5  C   UNL     1      -1.109  -6.022   1.212  0.00  0.00    +0.076 A 
ATOM      6  N   UNL     1      -0.520  -4.814   1.491  0.00  0.00    -0.337 N 
ENDROOT
BRANCH   4   7
ATOM      7  C   UNL     1      -3.289  -6.714   0.074  0.00  0.00    +0.096 A 
ATOM      8  C   UNL     1      -4.634  -6.358  -0.076  0.00  0.00    +0.050 A 
ATOM      9  C   UNL     1      -5.519  -7.309  -0.546  0.00  0.00    +0.116 A 
ATOM     10  N   UNL     1      -5.072  -8.522  -0.839  0.00  0.00    -0.223 NA
ATOM     11  C   UNL     1      -3.793  -8.833  -0.688  0.00  0.00    +0.216 A 
ATOM     12  N   UNL     1      -2.910  -7.951  -0.246  0.00  0.00    -0.213 NA
ATOM     13  N   UNL     1      -3.368 -10.111  -1.006  0.00  0.00    -0.313 N 
ATOM     14  H   UNL     1      -2.434 -10.353  -0.900  0.00  0.00    +0.149 HD
BRANCH  13  15
ATOM     15  C   UNL     1      -4.328 -11.100  -1.502  0.00  0.00    +0.108 C 
BRANCH  15  16
ATOM     16  C   UNL     1      -3.605 -12.421  -1.775  0.00  0.00    +0.006 C 
ATOM     17  C   UNL     1      -3.570 -12.921  -3.220  0.00  0.00    +0.005 C 
ATOM     18  C   UNL     1      -4.459 -13.621  -2.190  0.00  0.00    +0.005 C 
ENDBRANCH  15  16
ENDBRANCH  13  15
ENDBRANCH   4   7
BRANCH   1  23
ATOM     19  C   UNL     1       0.243   1.506   0.131  0.00  0.00    +0.025 C 
ATOM     20  C   UNL     1       0.000   0.002  -0.001  0.00  0.00    +0.091 C 
ATOM     21  C   UNL     1      -1.506  -0.280   0.020  0.00  0.00    +0.181 C 
ATOM     22  O   UNL     1      -1.714  -1.695   0.030  0.00  0.00    -0.344 OA
ATOM     23  C   UNL     1      -1.097  -2.361   1.135  0.00  0.00    +0.318 C 
ATOM     24  O   UNL     1       0.311  -2.116   1.112  0.00  0.00    -0.344 OA
ATOM     25  C   UNL     1       0.657  -0.729   1.176  0.00  0.00    +0.181 C 
BRANCH  20  26
ATOM     26  C   UNL     1       0.591  -0.494  -1.296  0.00  0.00    +0.226 C 
ATOM     27  O   UNL     1      -0.094  -1.125  -2.073  0.00  0.00    -0.275 OA
ATOM     28  N   UNL     1       1.880  -0.236  -1.591  0.00  0.00    -0.298 N 
ATOM     29  C   UNL     1       2.762   0.420  -0.613  0.00  0.00    +0.123 C 
ATOM     30  C   UNL     1       4.039  -0.414  -0.472  0.00  0.00    +0.103 C 
ATOM     31  N   UNL     1       4.632  -0.624  -1.799  0.00  0.00    -0.302 NA
ATOM     32  C   UNL     1       3.734  -1.397  -2.668  0.00  0.00    +0.103 C 
ATOM     33  C   UNL     1       2.445  -0.608  -2.897  0.00  0.00    +0.123 C 
ATOM     34  C   UNL     1       5.946  -1.271  -1.692  0.00  0.00    +0.105 C 
ENDBRANCH  20  26
ENDBRANCH   1  23
BRANCH   5  35
ATOM     35  C   UNL     1      -0.575  -7.362   1.526  0.00  0.00    +0.001 A 
ATOM     36  C   UNL     1      -1.411  -8.341   2.068  0.00  0.00    +0.013 A 
ATOM     37  C   UNL     1      -0.906  -9.591   2.360  0.00  0.00    +0.039 A 
ATOM     38  C   UNL     1       0.428  -9.877   2.116  0.00  0.00    +0.123 A 
ATOM     39  C   UNL     1       1.262  -8.909   1.578  0.00  0.00    +0.039 A 
ATOM     40  C   UNL     1       0.767  -7.658   1.277  0.00  0.00    +0.013 A 
ATOM     41  F   UNL     1       0.916 -11.103   2.404  0.00  0.00    -0.205 F 
ENDBRANCH   5  35
TORSDOF 6
