REMARK  Name = CHEMBL270657
REMARK  11 active torsions:
REMARK  status: ('A' for Active; 'I' for Inactive)
REMARK    1  A    between atoms: C_1  and  C_2
REMARK    2  A    between atoms: C_2  and  C_3
REMARK    3  A    between atoms: C_2  and  C_4
REMARK    4  A    between atoms: C_2  and  C_5
REMARK    5  A    between atoms: C_5  and  N_6
REMARK    6  A    between atoms: C_12  and  C_15
REMARK    7  A    between atoms: C_16  and  C_25
REMARK    8  A    between atoms: C_18  and  C_21
REMARK    9  A    between atoms: C_21  and  C_22
REMARK   10  A    between atoms: C_21  and  C_23
REMARK   11  A    between atoms: C_21  and  C_24
REMARK                            x       y       z     vdW  Elec       q    Type
REMARK                         _______ _______ _______ _____ _____    ______ ____
ROOT
ATOM      1  C   UNL     1       4.841  -2.953   2.848  0.00  0.00    +0.115 A 
ATOM      2  C   UNL     1       3.881  -3.370   3.753  0.00  0.00    +0.078 A 
ATOM      3  N   UNL     1       4.548  -4.090   4.715  0.00  0.00    -0.341 N 
ATOM      4  C   UNL     1       5.863  -4.092   4.380  0.00  0.00    +0.114 A 
ATOM      5  N   UNL     1       6.030  -3.424   3.274  0.00  0.00    -0.230 NA
ATOM      6  H   UNL     1       4.152  -4.517   5.491  0.00  0.00    +0.167 HD
ENDROOT
BRANCH   1  13
ATOM      7  N   UNL     1       2.311   0.297   0.181  0.00  0.00    -0.315 N 
ATOM      8  C   UNL     1       2.581   0.764  -1.070  0.00  0.00    +0.201 A 
ATOM      9  N   UNL     1       3.665   0.210  -1.528  0.00  0.00    -0.234 NA
ATOM     10  C   UNL     1       4.162  -0.649  -0.603  0.00  0.00    +0.108 A 
ATOM     11  C   UNL     1       3.303  -0.601   0.510  0.00  0.00    +0.161 A 
ATOM     12  N   UNL     1       3.549  -1.341   1.578  0.00  0.00    -0.226 NA
ATOM     13  C   UNL     1       4.606  -2.143   1.633  0.00  0.00    +0.094 A 
ATOM     14  C   UNL     1       5.500  -2.234   0.562  0.00  0.00    +0.032 A 
ATOM     15  C   UNL     1       5.280  -1.492  -0.567  0.00  0.00    +0.033 A 
BRANCH   7  16
ATOM     16  C   UNL     1       1.177   0.683   1.024  0.00  0.00    +0.130 C 
BRANCH  16  18
ATOM     17  C   UNL     1       2.117   2.996   1.129  0.00  0.00    +0.012 C 
ATOM     18  C   UNL     1       1.599   1.819   1.958  0.00  0.00    -0.020 C 
ATOM     19  C   UNL     1       2.707   1.326   2.891  0.00  0.00    +0.012 C 
ATOM     20  C   UNL     1       0.396   2.271   2.788  0.00  0.00    +0.012 C 
ENDBRANCH  16  18
ENDBRANCH   7  16
ENDBRANCH   1  13
BRANCH   2  21
ATOM     21  C   UNL     1       2.431  -3.097   3.696  0.00  0.00    +0.036 A 
ATOM     22  C   UNL     1       1.831  -2.293   4.668  0.00  0.00    +0.015 A 
ATOM     23  C   UNL     1       0.476  -2.041   4.610  0.00  0.00    +0.039 A 
ATOM     24  C   UNL     1      -0.290  -2.582   3.589  0.00  0.00    +0.126 A 
ATOM     25  C   UNL     1       0.298  -3.380   2.622  0.00  0.00    +0.077 A 
ATOM     26  C   UNL     1       1.655  -3.636   2.666  0.00  0.00    +0.135 A 
ATOM     27  F   UNL     1       2.229  -4.409   1.718  0.00  0.00    -0.205 F 
ATOM     28  F   UNL     1      -1.617  -2.330   3.538  0.00  0.00    -0.205 F 
ENDBRANCH   2  21
BRANCH   4  29
ATOM     29  C   UNL     1       6.960  -4.767   5.162  0.00  0.00    +0.020 C 
ATOM     30  C   UNL     1       6.890  -6.279   4.937  0.00  0.00    +0.018 C 
ATOM     31  C   UNL     1       8.318  -4.244   4.692  0.00  0.00    +0.018 C 
ATOM     32  C   UNL     1       6.785  -4.465   6.652  0.00  0.00    +0.018 C 
ENDBRANCH   4  29
TORSDOF 5
