REMARK  Name = CHEMBL213986
REMARK  2 active torsions:
REMARK  status: ('A' for Active; 'I' for Inactive)
REMARK    1  A    between atoms: C_5  and  C_7
REMARK    2  A    between atoms: N_23  and  C_28
REMARK                            x       y       z     vdW  Elec       q    Type
REMARK                         _______ _______ _______ _____ _____    ______ ____
ROOT
ATOM      1  C   UNL     1       1.246  -2.165  -0.023  0.00  0.00    +0.084 A 
ATOM      2  C   UNL     1       0.074  -2.896   0.082  0.00  0.00    +0.036 A 
ATOM      3  C   UNL     1       0.131  -4.288   0.070  0.00  0.00    +0.144 A 
ATOM      4  N   UNL     1       1.316  -4.877  -0.043  0.00  0.00    -0.198 NA
ATOM      5  C   UNL     1       2.421  -4.152  -0.142  0.00  0.00    +0.220 A 
ATOM      6  N   UNL     1       2.401  -2.828  -0.138  0.00  0.00    -0.214 NA
ATOM      7  N   UNL     1       3.638  -4.801  -0.258  0.00  0.00    -0.295 N 
ATOM      8  C   UNL     1       4.891  -4.039  -0.365  0.00  0.00    +0.114 C 
ATOM      9  C   UNL     1       5.760  -4.322   0.867  0.00  0.00    +0.074 C 
ATOM     10  C   UNL     1       5.761  -5.807   1.130  0.00  0.00    +0.042 A 
ATOM     11  C   UNL     1       4.849  -6.678   0.627  0.00  0.00    +0.010 A 
ATOM     12  C   UNL     1       5.167  -7.952   1.088  0.00  0.00    +0.139 A 
ATOM     13  N   UNL     1       6.235  -7.856   1.841  0.00  0.00    -0.182 NA
ATOM     14  H   UNL     1       7.389  -6.150   2.361  0.00  0.00    +0.189 HD
ATOM     15  N   UNL     1       6.627  -6.510   1.879  0.00  0.00    -0.281 N 
ATOM     16  C   UNL     1       3.710  -6.273  -0.272  0.00  0.00    +0.146 C 
ATOM     17  N   UNL     1      -1.037  -5.026   0.176  0.00  0.00    -0.205 N 
ATOM     18  C   UNL     1      -2.248  -4.464   0.292  0.00  0.00    +0.312 C 
ATOM     19  O   UNL     1      -3.217  -5.192   0.380  0.00  0.00    -0.252 OA
ATOM     20  N   UNL     1      -2.442  -3.133   0.317  0.00  0.00    -0.294 N 
ATOM     21  C   UNL     1      -1.276  -2.237   0.211  0.00  0.00    +0.146 C 
ATOM     22  H   UNL     1      -3.337  -2.768   0.402  0.00  0.00    +0.151 HD
ENDROOT
BRANCH  17  23
ATOM     23  C   UNL     1      -0.948  -6.425   0.161  0.00  0.00    +0.081 A 
ATOM     24  C   UNL     1      -1.011  -7.113  -1.045  0.00  0.00    +0.064 A 
ATOM     25  C   UNL     1      -0.922  -8.493  -1.056  0.00  0.00    +0.022 A 
ATOM     26  C   UNL     1      -0.773  -9.188   0.130  0.00  0.00    +0.003 A 
ATOM     27  C   UNL     1      -0.711  -8.506   1.331  0.00  0.00    +0.022 A 
ATOM     28  C   UNL     1      -0.792  -7.126   1.350  0.00  0.00    +0.064 A 
ATOM     29 CL   UNL     1      -0.706  -6.271   2.858  0.00  0.00    -0.082 Cl
ATOM     30 CL   UNL     1      -1.199  -6.242  -2.534  0.00  0.00    -0.082 Cl
ENDBRANCH  17  23
BRANCH   1  35
ATOM     31  C   UNL     1       0.574   1.380   1.033  0.00  0.00    +0.001 A 
ATOM     32  C   UNL     1       1.169   2.087   0.003  0.00  0.00    +0.001 A 
ATOM     33  C   UNL     1       1.790   1.417  -1.035  0.00  0.00    +0.020 A 
ATOM     34  C   UNL     1       1.818   0.035  -1.049  0.00  0.00    +0.050 A 
ATOM     35  C   UNL     1       1.220  -0.682  -0.014  0.00  0.00    +0.019 A 
ATOM     36  C   UNL     1       0.596   0.000   1.030  0.00  0.00    +0.011 A 
ATOM     37 CL   UNL     1       2.597  -0.805  -2.353  0.00  0.00    -0.083 Cl
ENDBRANCH   1  35
TORSDOF 2
