REMARK  Name = CHEMBL212382
REMARK  6 active torsions:
REMARK  status: ('A' for Active; 'I' for Inactive)
REMARK    1  A    between atoms: C_1  and  C_2
REMARK    2  A    between atoms: C_2  and  C_3
REMARK    3  A    between atoms: C_2  and  C_4
REMARK    4  A    between atoms: C_2  and  C_5
REMARK    5  A    between atoms: C_11  and  C_14
REMARK    6  A    between atoms: C_15  and  C_19
REMARK                            x       y       z     vdW  Elec       q    Type
REMARK                         _______ _______ _______ _____ _____    ______ ____
ROOT
ATOM      1  C   UNL     1       0.575  -0.206  -1.154  0.00  0.00    +0.143 A 
ATOM      2  N   UNL     1       0.015  -0.950  -2.072  0.00  0.00    -0.133 NA
ATOM      3  N   UNL     1       0.868  -1.248  -2.988  0.00  0.00    -0.129 NA
ATOM      4  C   UNL     1       2.037  -0.700  -2.697  0.00  0.00    +0.161 A 
ATOM      5  N   UNL     1       1.873  -0.016  -1.518  0.00  0.00    -0.285 N 
ATOM      6  C   UNL     1       2.914   0.664  -0.960  0.00  0.00    +0.106 A 
ATOM      7  C   UNL     1       4.135   0.677  -1.569  0.00  0.00    +0.036 A 
ATOM      8  C   UNL     1       4.326  -0.020  -2.789  0.00  0.00    +0.017 A 
ATOM      9  C   UNL     1       3.292  -0.704  -3.340  0.00  0.00    +0.049 A 
ENDROOT
BRANCH   7  10
ATOM     10  C   UNL     1       5.256   1.417  -0.959  0.00  0.00    +0.164 A 
ATOM     11  C   UNL     1       6.006   2.414  -1.548  0.00  0.00    +0.120 A 
ATOM     12  N   UNL     1       6.921   2.810  -0.638  0.00  0.00    -0.215 NA
ATOM     13  C   UNL     1       6.763   2.115   0.450  0.00  0.00    +0.309 A 
ATOM     14  O   UNL     1       5.747   1.255   0.290  0.00  0.00    -0.442 OA
BRANCH  11  15
ATOM     15  C   UNL     1       5.839   2.947  -2.920  0.00  0.00    +0.039 A 
ATOM     16  C   UNL     1       4.571   3.294  -3.387  0.00  0.00    +0.016 A 
ATOM     17  C   UNL     1       4.421   3.790  -4.665  0.00  0.00    +0.039 A 
ATOM     18  C   UNL     1       5.526   3.945  -5.487  0.00  0.00    +0.126 A 
ATOM     19  C   UNL     1       6.788   3.602  -5.030  0.00  0.00    +0.077 A 
ATOM     20  C   UNL     1       6.951   3.110  -3.749  0.00  0.00    +0.135 A 
ATOM     21  F   UNL     1       8.183   2.782  -3.302  0.00  0.00    -0.205 F 
ATOM     22  F   UNL     1       5.372   4.431  -6.737  0.00  0.00    -0.205 F 
ENDBRANCH  11  15
ENDBRANCH   7  10
BRANCH   1  24
ATOM     23  C   UNL     1      -0.032   1.874   0.052  0.00  0.00    +0.019 C 
ATOM     24  C   UNL     1      -0.095   0.345   0.078  0.00  0.00    +0.023 C 
ATOM     25  C   UNL     1       0.624  -0.173   1.325  0.00  0.00    +0.019 C 
ATOM     26  C   UNL     1      -1.557  -0.105   0.108  0.00  0.00    +0.019 C 
ENDBRANCH   1  24
TORSDOF 3
