REMARK  Name = CHEMBL1090090
REMARK  3 active torsions:
REMARK  status: ('A' for Active; 'I' for Inactive)
REMARK    1  A    between atoms: C_4  and  N_8
REMARK    2  A    between atoms: C_12  and  C_23
REMARK    3  A    between atoms: C_13  and  C_15
REMARK                            x       y       z     vdW  Elec       q    Type
REMARK                         _______ _______ _______ _____ _____    ______ ____
ROOT
ATOM      1  N   UNL     1       2.908  -1.793   0.437  0.00  0.00    -0.203 N 
ATOM      2  C   UNL     1       3.892  -1.562   1.392  0.00  0.00    +0.134 A 
ATOM      3  C   UNL     1       3.694  -0.573   2.355  0.00  0.00    +0.045 A 
ATOM      4  C   UNL     1       4.669  -0.343   3.302  0.00  0.00    +0.018 A 
ATOM      5  C   UNL     1       5.836  -1.120   3.262  0.00  0.00    +0.063 A 
ATOM      6  C   UNL     1       5.966  -2.100   2.262  0.00  0.00    +0.088 A 
ATOM      7  N   UNL     1       4.998  -2.287   1.376  0.00  0.00    -0.230 NA
ATOM      8  C   UNL     1       3.039  -2.815  -0.431  0.00  0.00    +0.310 C 
ATOM      9  O   UNL     1       4.018  -3.535  -0.380  0.00  0.00    -0.252 OA
ATOM     10  N   UNL     1       2.086  -3.040  -1.357  0.00  0.00    -0.313 N 
ATOM     11  H   UNL     1       1.305  -2.466  -1.398  0.00  0.00    +0.147 HD
ATOM     12  H   UNL     1       2.180  -3.775  -1.982  0.00  0.00    +0.147 HD
ENDROOT
BRANCH   1  16
ATOM     13  C   UNL     1      -0.452   0.675   0.260  0.00  0.00    +0.006 A 
ATOM     14  C   UNL     1       0.676   0.992  -0.475  0.00  0.00    +0.040 A 
ATOM     15  C   UNL     1       1.792   0.176  -0.419  0.00  0.00    +0.148 A 
ATOM     16  C   UNL     1       1.778  -0.963   0.378  0.00  0.00    +0.114 A 
ATOM     17  C   UNL     1       0.643  -1.277   1.116  0.00  0.00    +0.148 A 
ATOM     18  C   UNL     1      -0.469  -0.457   1.054  0.00  0.00    +0.040 A 
ATOM     19  F   UNL     1       0.626  -2.383   1.891  0.00  0.00    -0.203 F 
ATOM     20  F   UNL     1       2.893   0.485  -1.138  0.00  0.00    -0.203 F 
ENDBRANCH   1  16
BRANCH   6  21
ATOM     21  C   UNL     1       7.190  -2.931   2.201  0.00  0.00    +0.036 A 
ATOM     22  C   UNL     1       7.299  -4.075   2.992  0.00  0.00    +0.016 A 
ATOM     23  C   UNL     1       8.441  -4.846   2.932  0.00  0.00    +0.039 A 
ATOM     24  C   UNL     1       9.480  -4.487   2.087  0.00  0.00    +0.126 A 
ATOM     25  C   UNL     1       9.379  -3.353   1.299  0.00  0.00    +0.077 A 
ATOM     26  C   UNL     1       8.237  -2.576   1.347  0.00  0.00    +0.135 A 
ATOM     27  F   UNL     1       8.136  -1.472   0.574  0.00  0.00    -0.205 F 
ATOM     28  F   UNL     1      10.596  -5.247   2.033  0.00  0.00    -0.205 F 
ENDBRANCH   6  21
BRANCH   5  29
ATOM     29  C   UNL     1       6.908  -0.912   4.252  0.00  0.00    +0.244 C 
ATOM     30  O   UNL     1       7.956  -1.520   4.149  0.00  0.00    -0.270 OA
ATOM     31  N   UNL     1       6.726  -0.049   5.271  0.00  0.00    -0.325 N 
ATOM     32  H   UNL     1       5.890   0.436   5.353  0.00  0.00    +0.145 HD
ATOM     33  H   UNL     1       7.432   0.088   5.922  0.00  0.00    +0.145 HD
ENDBRANCH   5  29
TORSDOF 3
