REMARK  Name = CHEMBL363648
REMARK  6 active torsions:
REMARK  status: ('A' for Active; 'I' for Inactive)
REMARK    1  A    between atoms: C_1  and  C_2
REMARK    2  A    between atoms: C_2  and  C_3
REMARK    3  A    between atoms: C_5  and  C_23
REMARK    4  A    between atoms: C_6  and  C_8
REMARK    5  A    between atoms: C_15  and  C_17
REMARK    6  A    between atoms: C_27  and  C_29
REMARK                            x       y       z     vdW  Elec       q    Type
REMARK                         _______ _______ _______ _____ _____    ______ ____
ROOT
ATOM      1  C   UNL     1       3.304  -2.137   3.923  0.00  0.00    -0.005 A 
ATOM      2  C   UNL     1       3.027  -3.325   4.617  0.00  0.00    +0.029 A 
ATOM      3  C   UNL     1       4.002  -3.878   5.415  0.00  0.00    +0.113 A 
ATOM      4  N   UNL     1       5.188  -3.308   5.535  0.00  0.00    -0.240 NA
ATOM      5  C   UNL     1       5.495  -2.187   4.900  0.00  0.00    +0.126 A 
ATOM      6  C   UNL     1       4.572  -1.567   4.070  0.00  0.00    +0.053 A 
ATOM      7  N   UNL     1       6.761  -1.628   5.063  0.00  0.00    -0.266 N 
ATOM      8  C   UNL     1       7.700  -2.281   5.776  0.00  0.00    +0.249 C 
ATOM      9  O   UNL     1       7.415  -3.310   6.358  0.00  0.00    -0.270 OA
ATOM     10  H   UNL     1       6.966  -0.768   4.663  0.00  0.00    +0.157 HD
ENDROOT
BRANCH   8  11
ATOM     11  C   UNL     1       9.076  -1.748   5.850  0.00  0.00    +0.037 A 
ATOM     12  C   UNL     1       9.405  -0.564   5.187  0.00  0.00    +0.013 A 
ATOM     13  C   UNL     1      10.692  -0.071   5.260  0.00  0.00    +0.001 A 
ATOM     14  C   UNL     1      11.655  -0.748   5.987  0.00  0.00    +0.000 A 
ATOM     15  C   UNL     1      11.335  -1.922   6.646  0.00  0.00    +0.001 A 
ATOM     16  C   UNL     1      10.051  -2.422   6.587  0.00  0.00    +0.013 A 
ENDBRANCH   8  11
BRANCH   1  20
ATOM     17  C   UNL     1       0.848  -0.367   1.189  0.00  0.00    +0.079 A 
ATOM     18  N   UNL     1       0.275  -0.663   2.327  0.00  0.00    -0.243 NA
ATOM     19  C   UNL     1       0.944  -1.241   3.311  0.00  0.00    +0.086 A 
ATOM     20  C   UNL     1       2.287  -1.511   3.056  0.00  0.00    +0.047 A 
ATOM     21  S   UNL     1       2.434  -0.893   1.387  0.00  0.00    -0.071 S 
BRANCH  19  22
ATOM     22  C   UNL     1       0.305  -1.580   4.603  0.00  0.00    +0.002 A 
ATOM     23  C   UNL     1       0.971  -1.325   5.802  0.00  0.00    +0.010 A 
ATOM     24  C   UNL     1       0.370  -1.643   7.003  0.00  0.00    +0.001 A 
ATOM     25  C   UNL     1      -0.890  -2.213   7.019  0.00  0.00    +0.003 A 
ATOM     26  C   UNL     1      -1.556  -2.468   5.834  0.00  0.00    -0.050 A 
ATOM     27  C   UNL     1      -0.968  -2.150   4.627  0.00  0.00    +0.013 A 
ATOM     28  C   UNL     1      -2.928  -3.091   5.861  0.00  0.00    +0.044 C 
ENDBRANCH  19  22
BRANCH  17  30
ATOM     29  C   UNL     1       0.386   1.805   0.085  0.00  0.00    +0.011 C 
ATOM     30  C   UNL     1       0.230   0.287  -0.020  0.00  0.00    +0.059 C 
ENDBRANCH  17  30
ENDBRANCH   1  20
TORSDOF 4
