REMARK  Name = CHEMBL372301
REMARK  7 active torsions:
REMARK  status: ('A' for Active; 'I' for Inactive)
REMARK    1  A    between atoms: C_10  and  C_11
REMARK    2  A    between atoms: C_12  and  C_30
REMARK    3  A    between atoms: N_17  and  C_18
REMARK    4  A    between atoms: C_18  and  C_19
REMARK    5  A    between atoms: C_19  and  C_21
REMARK    6  A    between atoms: C_19  and  N_29
REMARK    7  A    between atoms: C_21  and  C_22
REMARK                            x       y       z     vdW  Elec       q    Type
REMARK                         _______ _______ _______ _____ _____    ______ ____
ROOT
ATOM      1  C   UNL     1       5.062  -0.020   0.074  0.00  0.00    +0.073 A 
ATOM      2  C   UNL     1       5.258   1.012   1.015  0.00  0.00    +0.011 A 
ATOM      3  C   UNL     1       6.357   1.853   0.837  0.00  0.00    +0.055 A 
ATOM      4  C   UNL     1       7.187   1.617  -0.258  0.00  0.00    +0.140 A 
ATOM      5  N   UNL     1       6.921   0.620  -1.090  0.00  0.00    -0.158 NA
ATOM      6  N   UNL     1       5.916  -0.161  -0.931  0.00  0.00    -0.275 N 
ATOM      7  N   UNL     1       8.295   2.428  -0.477  0.00  0.00    -0.329 N 
ATOM      8  H   UNL     1       8.873   2.264  -1.239  0.00  0.00    +0.147 HD
ATOM      9  H   UNL     1       5.773  -0.877  -1.570  0.00  0.00    +0.189 HD
ENDROOT
BRANCH   1  19
ATOM     10  C   UNL     1       3.679  -3.642   3.406  0.00  0.00    +0.001 A 
ATOM     11  C   UNL     1       4.770  -2.782   3.297  0.00  0.00    +0.001 A 
ATOM     12  C   UNL     1       4.864  -1.897   2.265  0.00  0.00    +0.009 A 
ATOM     13  C   UNL     1       3.851  -1.849   1.297  0.00  0.00    -0.009 A 
ATOM     14  C   UNL     1       2.742  -2.723   1.406  0.00  0.00    -0.017 A 
ATOM     15  C   UNL     1       2.678  -3.623   2.484  0.00  0.00    +0.008 A 
ATOM     16  C   UNL     1       1.726  -2.677   0.436  0.00  0.00    +0.008 A 
ATOM     17  C   UNL     1       1.811  -1.796  -0.601  0.00  0.00    +0.001 A 
ATOM     18  C   UNL     1       2.892  -0.932  -0.723  0.00  0.00    +0.010 A 
ATOM     19  C   UNL     1       3.915  -0.943   0.211  0.00  0.00    +0.008 A 
ENDBRANCH   1  19
BRANCH   2  20
ATOM     20  C   UNL     1       4.328   1.198   2.154  0.00  0.00    -0.013 A 
ATOM     21  C   UNL     1       2.956   1.366   1.942  0.00  0.00    +0.028 A 
ATOM     22  C   UNL     1       2.126   1.536   3.030  0.00  0.00    +0.111 A 
ATOM     23  N   UNL     1       2.610   1.542   4.257  0.00  0.00    -0.263 NA
ATOM     24  C   UNL     1       3.897   1.387   4.502  0.00  0.00    +0.111 A 
ATOM     25  C   UNL     1       4.797   1.205   3.471  0.00  0.00    +0.028 A 
ENDBRANCH   2  20
BRANCH   7  26
ATOM     26  C   UNL     1       8.589   3.530   0.442  0.00  0.00    +0.087 C 
BRANCH  26  27
ATOM     27  C   UNL     1       9.851   4.259  -0.023  0.00  0.00    -0.053 C 
BRANCH  27  28
ATOM     28  N   UNL     1       9.682   4.689  -1.418  0.00  0.00    +0.381 N 
ATOM     29  H   UNL     1      10.515   5.170  -1.725  0.00  0.00    -0.090 HD
ATOM     30  H   UNL     1       9.526   3.881  -2.002  0.00  0.00    -0.090 HD
ATOM     31  H   UNL     1       8.891   5.311  -1.485  0.00  0.00    -0.090 HD
ENDBRANCH  27  28
BRANCH  27  32
ATOM     32  C   UNL     1      10.088   5.484   0.862  0.00  0.00    +0.020 C 
BRANCH  32  33
ATOM     33  C   UNL     1      11.395   6.132   0.484  0.00  0.00    -0.049 A 
ATOM     34  C   UNL     1      12.567   5.738   1.103  0.00  0.00    +0.006 A 
ATOM     35  C   UNL     1      13.766   6.331   0.757  0.00  0.00    +0.038 A 
ATOM     36  C   UNL     1      13.794   7.320  -0.211  0.00  0.00    +0.123 A 
ATOM     37  C   UNL     1      12.620   7.714  -0.831  0.00  0.00    +0.038 A 
ATOM     38  C   UNL     1      11.423   7.116  -0.487  0.00  0.00    +0.006 A 
ATOM     39  F   UNL     1      14.966   7.901  -0.551  0.00  0.00    -0.205 F 
ENDBRANCH  32  33
ENDBRANCH  27  32
ENDBRANCH  26  27
ENDBRANCH   7  26
TORSDOF 7
