REMARK  Name = CHEMBL386661
REMARK  9 active torsions:
REMARK  status: ('A' for Active; 'I' for Inactive)
REMARK    1  A    between atoms: C_1  and  C_2
REMARK    2  A    between atoms: C_5  and  C_20
REMARK    3  A    between atoms: C_7  and  C_8
REMARK    4  A    between atoms: N_18  and  C_19
REMARK    5  A    between atoms: N_22  and  C_23
REMARK    6  A    between atoms: C_25  and  C_37
REMARK    7  A    between atoms: C_28  and  O_29
REMARK    8  A    between atoms: O_29  and  C_30
REMARK    9  A    between atoms: N_33  and  C_36
REMARK                            x       y       z     vdW  Elec       q    Type
REMARK                         _______ _______ _______ _____ _____    ______ ____
ROOT
ATOM      1  C   UNL     1       0.036  -4.273  -0.016  0.00  0.00    +0.248 C 
ATOM      2  O   UNL     1       0.050  -4.902   1.024  0.00  0.00    -0.270 OA
ATOM      3  N   UNL     1       0.042  -4.923  -1.197  0.00  0.00    -0.279 N 
ATOM      4  H   UNL     1      -0.054  -4.426  -2.025  0.00  0.00    +0.155 HD
ENDROOT
BRANCH   1   9
ATOM      5  C   UNL     1      -0.058   1.488   0.075  0.00  0.00    +0.044 C 
ATOM      6  C   UNL     1      -0.033  -0.018   0.054  0.00  0.00    -0.043 A 
ATOM      7  C   UNL     1      -0.026  -0.691  -1.152  0.00  0.00    +0.005 A 
ATOM      8  C   UNL     1      -0.004  -2.071  -1.180  0.00  0.00    +0.013 A 
ATOM      9  C   UNL     1       0.013  -2.795   0.014  0.00  0.00    +0.038 A 
ATOM     10  C   UNL     1       0.006  -2.121   1.234  0.00  0.00    +0.021 A 
ATOM     11  C   UNL     1      -0.011  -0.730   1.253  0.00  0.00    -0.014 A 
BRANCH  11  12
ATOM     12  C   UNL     1      -0.011  -0.005   2.548  0.00  0.00    -0.017 A 
ATOM     13  C   UNL     1       0.904   1.038   2.762  0.00  0.00    +0.010 A 
ATOM     14  C   UNL     1       0.925   1.719   3.938  0.00  0.00    +0.029 A 
ATOM     15  C   UNL     1       0.022   1.381   4.959  0.00  0.00    +0.076 A 
ATOM     16  C   UNL     1      -0.907   0.328   4.752  0.00  0.00    +0.019 A 
ATOM     17  C   UNL     1      -0.917  -0.359   3.532  0.00  0.00    +0.020 A 
ATOM     18  C   UNL     1      -1.801   0.011   5.793  0.00  0.00    +0.124 A 
ATOM     19  N   UNL     1      -1.736   0.704   6.910  0.00  0.00    -0.222 NA
ATOM     20  C   UNL     1      -0.851   1.686   7.070  0.00  0.00    +0.215 A 
ATOM     21  N   UNL     1       0.011   2.027   6.131  0.00  0.00    -0.215 NA
ATOM     22  N   UNL     1      -0.835   2.376   8.269  0.00  0.00    -0.317 N 
ATOM     23  C   UNL     1      -1.778   2.020   9.331  0.00  0.00    +0.128 C 
ATOM     24  H   UNL     1      -0.198   3.094   8.406  0.00  0.00    +0.149 HD
ENDBRANCH  11  12
ENDBRANCH   1   9
BRANCH   3  25
ATOM     25  C   UNL     1       0.186  -6.316  -1.229  0.00  0.00    +0.076 A 
ATOM     26  C   UNL     1       0.816  -6.974  -0.183  0.00  0.00    +0.039 A 
ATOM     27  C   UNL     1       0.957  -8.348  -0.217  0.00  0.00    +0.057 A 
ATOM     28  C   UNL     1       0.472  -9.070  -1.292  0.00  0.00    +0.016 A 
ATOM     29  C   UNL     1      -0.157  -8.421  -2.338  0.00  0.00    +0.048 A 
ATOM     30  C   UNL     1      -0.307  -7.044  -2.309  0.00  0.00    +0.142 A 
BRANCH  27  31
ATOM     31  C   UNL     1       1.642  -9.062   0.920  0.00  0.00    +0.417 C 
ATOM     32  F   UNL     1       0.695  -9.417   1.886  0.00  0.00    -0.166 F 
ATOM     33  F   UNL     1       2.270 -10.215   0.437  0.00  0.00    -0.166 F 
ATOM     34  F   UNL     1       2.598  -8.216   1.493  0.00  0.00    -0.166 F 
ENDBRANCH  27  31
BRANCH  30  35
ATOM     35  O   UNL     1      -0.931  -6.405  -3.334  0.00  0.00    -0.487 OA
BRANCH  35  36
ATOM     36  C   UNL     1      -1.514  -7.224  -4.350  0.00  0.00    +0.170 C 
ATOM     37  C   UNL     1      -0.524  -7.389  -5.506  0.00  0.00    +0.026 C 
ATOM     38  C   UNL     1      -1.184  -8.199  -6.624  0.00  0.00    -0.076 C 
ATOM     39  N   UNL     1      -2.382  -7.498  -7.101  0.00  0.00    +0.378 N 
ATOM     40  C   UNL     1      -3.366  -7.399  -6.016  0.00  0.00    -0.076 C 
ATOM     41  C   UNL     1      -2.790  -6.558  -4.875  0.00  0.00    +0.026 C 
ATOM     42  C   UNL     1      -2.967  -8.240  -8.225  0.00  0.00    -0.096 C 
ATOM     43  H   UNL     1      -2.128  -6.571  -7.408  0.00  0.00    -0.082 HD
ENDBRANCH  35  36
ENDBRANCH  30  35
ENDBRANCH   3  25
TORSDOF 6
