REMARK  Name = CHEMBL71425
REMARK  8 active torsions:
REMARK  status: ('A' for Active; 'I' for Inactive)
REMARK    1  A    between atoms: C_1  and  C_2
REMARK    2  A    between atoms: C_2  and  C_32
REMARK    3  A    between atoms: C_5  and  C_8
REMARK    4  A    between atoms: C_11  and  C_21
REMARK    5  A    between atoms: C_12  and  C_14
REMARK    6  A    between atoms: N_27  and  C_28
REMARK    7  A    between atoms: C_28  and  C_29
REMARK    8  A    between atoms: N_34  and  C_35
REMARK                            x       y       z     vdW  Elec       q    Type
REMARK                         _______ _______ _______ _____ _____    ______ ____
ROOT
ATOM      1  C   UNL     1      -0.702  -3.928   1.338  0.00  0.00    +0.165 A 
ATOM      2  N   UNL     1      -1.628  -4.690   0.830  0.00  0.00    -0.225 NA
ATOM      3  H   UNL     1       1.076  -4.387   2.324  0.00  0.00    +0.167 HD
ATOM      4  C   UNL     1      -1.305  -5.983   1.025  0.00  0.00    +0.115 A 
ATOM      5  C   UNL     1      -0.096  -6.012   1.700  0.00  0.00    +0.076 A 
ATOM      6  N   UNL     1       0.271  -4.702   1.884  0.00  0.00    -0.337 N 
ENDROOT
BRANCH   4   7
ATOM      7  C   UNL     1      -2.096  -7.157   0.598  0.00  0.00    +0.096 A 
ATOM      8  C   UNL     1      -3.478  -7.050   0.403  0.00  0.00    +0.050 A 
ATOM      9  C   UNL     1      -4.175  -8.175   0.004  0.00  0.00    +0.116 A 
ATOM     10  N   UNL     1      -3.521  -9.311  -0.182  0.00  0.00    -0.223 NA
ATOM     11  C   UNL     1      -2.212  -9.385   0.009  0.00  0.00    +0.216 A 
ATOM     12  N   UNL     1      -1.504  -8.332   0.387  0.00  0.00    -0.213 NA
ATOM     13  N   UNL     1      -1.567 -10.593  -0.196  0.00  0.00    -0.313 N 
ATOM     14  H   UNL     1      -0.610 -10.661  -0.059  0.00  0.00    +0.149 HD
BRANCH  13  15
ATOM     15  C   UNL     1      -2.332 -11.768  -0.619  0.00  0.00    +0.108 C 
BRANCH  15  16
ATOM     16  C   UNL     1      -1.388 -12.963  -0.772  0.00  0.00    +0.006 C 
ATOM     17  C   UNL     1      -1.231 -13.564  -2.170  0.00  0.00    +0.005 C 
ATOM     18  C   UNL     1      -2.014 -14.321  -1.096  0.00  0.00    +0.005 C 
ENDBRANCH  15  16
ENDBRANCH  13  15
ENDBRANCH   4   7
BRANCH   1  23
ATOM     19  C   UNL     1      -0.019   1.526   0.010  0.00  0.00    +0.025 C 
ATOM     20  C   UNL     1       0.002  -0.004   0.002  0.00  0.00    +0.091 C 
ATOM     21  C   UNL     1      -1.435  -0.537   0.029  0.00  0.00    +0.181 C 
ATOM     22  O   UNL     1      -1.399  -1.962   0.154  0.00  0.00    -0.344 OA
ATOM     23  C   UNL     1      -0.706  -2.421   1.318  0.00  0.00    +0.318 C 
ATOM     24  O   UNL     1       0.640  -1.941   1.291  0.00  0.00    -0.344 OA
ATOM     25  C   UNL     1       0.743  -0.514   1.243  0.00  0.00    +0.181 C 
BRANCH  20  26
ATOM     26  C   UNL     1       0.702  -0.493  -1.240  0.00  0.00    +0.224 C 
ATOM     27  O   UNL     1       1.698  -1.178  -1.145  0.00  0.00    -0.275 OA
ATOM     28  N   UNL     1       0.220  -0.168  -2.457  0.00  0.00    -0.312 N 
ATOM     29  H   UNL     1      -0.577   0.380  -2.532  0.00  0.00    +0.149 HD
BRANCH  28  30
ATOM     30  C   UNL     1       0.900  -0.643  -3.664  0.00  0.00    +0.073 C 
ATOM     31  C   UNL     1       1.090   0.356  -4.807  0.00  0.00    +0.024 C 
ATOM     32  C   UNL     1       0.066  -0.773  -4.940  0.00  0.00    +0.024 C 
ENDBRANCH  28  30
ENDBRANCH  20  26
ENDBRANCH   1  23
BRANCH   5  33
ATOM     33  C   UNL     1       0.650  -7.211   2.131  0.00  0.00    +0.001 A 
ATOM     34  C   UNL     1      -0.021  -8.272   2.743  0.00  0.00    +0.013 A 
ATOM     35  C   UNL     1       0.682  -9.389   3.144  0.00  0.00    +0.039 A 
ATOM     36  C   UNL     1       2.051  -9.460   2.940  0.00  0.00    +0.123 A 
ATOM     37  C   UNL     1       2.722  -8.410   2.333  0.00  0.00    +0.039 A 
ATOM     38  C   UNL     1       2.029  -7.290   1.923  0.00  0.00    +0.013 A 
ATOM     39  F   UNL     1       2.734 -10.557   3.334  0.00  0.00    -0.205 F 
ENDBRANCH   5  33
TORSDOF 7
