REMARK  Name = CHEMBL158989
REMARK  4 active torsions:
REMARK  status: ('A' for Active; 'I' for Inactive)
REMARK    1  A    between atoms: C_3  and  C_9
REMARK    2  A    between atoms: C_6  and  C_7
REMARK    3  A    between atoms: C_11  and  C_21
REMARK    4  A    between atoms: C_12  and  C_15
REMARK                            x       y       z     vdW  Elec       q    Type
REMARK                         _______ _______ _______ _____ _____    ______ ____
ROOT
ATOM      1  C   UNL     1       3.645   2.166  -0.023  0.00  0.00    +0.048 A 
ATOM      2  C   UNL     1       4.894   1.621  -0.043  0.00  0.00    +0.036 A 
ATOM      3  C   UNL     1       5.821   2.682  -0.046  0.00  0.00    +0.008 A 
ATOM      4  C   UNL     1       5.091   3.862  -0.026  0.00  0.00    +0.055 A 
ATOM      5  N   UNL     1       3.761   3.532  -0.017  0.00  0.00    -0.354 N 
ATOM      6  H   UNL     1       3.024   4.162  -0.007  0.00  0.00    +0.166 HD
ENDROOT
BRANCH   3   7
ATOM      7  C   UNL     1       7.299   2.560  -0.066  0.00  0.00    -0.016 A 
ATOM      8  C   UNL     1       8.048   3.288  -0.989  0.00  0.00    +0.011 A 
ATOM      9  C   UNL     1       9.423   3.171  -1.004  0.00  0.00    +0.039 A 
ATOM     10  C   UNL     1      10.058   2.332  -0.103  0.00  0.00    +0.123 A 
ATOM     11  C   UNL     1       9.318   1.607   0.816  0.00  0.00    +0.039 A 
ATOM     12  C   UNL     1       7.943   1.722   0.843  0.00  0.00    +0.011 A 
ATOM     13  F   UNL     1      11.405   2.221  -0.121  0.00  0.00    -0.205 F 
ENDBRANCH   3   7
BRANCH   1  16
ATOM     14  C   UNL     1      -0.017   1.394   0.010  0.00  0.00    +0.019 A 
ATOM     15  C   UNL     1       1.157   2.093   0.002  0.00  0.00    +0.011 A 
ATOM     16  C   UNL     1       2.377   1.411  -0.013  0.00  0.00    -0.002 A 
ATOM     17  C   UNL     1       2.396   0.013  -0.021  0.00  0.00    +0.011 A 
ATOM     18  C   UNL     1       1.223  -0.687  -0.014  0.00  0.00    +0.019 A 
ATOM     19  C   UNL     1       0.002  -0.004   0.002  0.00  0.00    +0.052 A 
BRANCH  19  20
ATOM     20  C   UNL     1      -1.228  -0.737   0.010  0.00  0.00    +0.099 C 
ATOM     21  N   UNL     1      -2.204  -1.318   0.017  0.00  0.00    -0.191 NA
ENDBRANCH  19  20
ENDBRANCH   1  16
BRANCH   4  22
ATOM     22  C   UNL     1       5.648   5.228  -0.021  0.00  0.00    +0.002 A 
ATOM     23  C   UNL     1       6.722   5.565   0.815  0.00  0.00    +0.029 A 
ATOM     24  C   UNL     1       7.210   6.854   0.787  0.00  0.00    +0.111 A 
ATOM     25  N   UNL     1       6.681   7.763  -0.011  0.00  0.00    -0.263 NA
ATOM     26  C   UNL     1       5.670   7.488  -0.813  0.00  0.00    +0.111 A 
ATOM     27  C   UNL     1       5.122   6.224  -0.856  0.00  0.00    +0.029 A 
ENDBRANCH   4  22
TORSDOF 4
