REMARK  Name = CHEMBL69764
REMARK  3 active torsions:
REMARK  status: ('A' for Active; 'I' for Inactive)
REMARK    1  A    between atoms: C_6  and  C_7
REMARK    2  A    between atoms: C_8  and  C_19
REMARK    3  A    between atoms: C_10  and  C_13
REMARK                            x       y       z     vdW  Elec       q    Type
REMARK                         _______ _______ _______ _____ _____    ______ ____
ROOT
ATOM      1  C   UNL     1      -1.269  -0.765   0.011  0.00  0.00    +0.097 A 
ATOM      2  C   UNL     1      -1.508  -1.968  -0.628  0.00  0.00    +0.074 A 
ATOM      3  N   UNL     1      -2.815  -2.299  -0.346  0.00  0.00    -0.341 N 
ATOM      4  C   UNL     1      -3.319  -1.318   0.432  0.00  0.00    +0.111 A 
ATOM      5  N   UNL     1      -2.403  -0.415   0.646  0.00  0.00    -0.232 NA
ATOM      6  H   UNL     1      -3.286  -3.090  -0.651  0.00  0.00    +0.167 HD
ENDROOT
BRANCH   4   7
ATOM      7  C   UNL     1      -4.724  -1.276   0.976  0.00  0.00    +0.051 C 
ATOM      8  C   UNL     1      -5.687  -1.890  -0.044  0.00  0.00    -0.008 C 
ATOM      9  C   UNL     1      -7.098  -1.917   0.546  0.00  0.00    -0.082 C 
ATOM     10  N   UNL     1      -7.104  -2.722   1.773  0.00  0.00    +0.379 N 
ATOM     11  C   UNL     1      -6.239  -2.099   2.782  0.00  0.00    -0.082 C 
ATOM     12  C   UNL     1      -4.794  -2.080   2.277  0.00  0.00    -0.008 C 
ATOM     13  H   UNL     1      -8.046  -2.782   2.130  0.00  0.00    -0.086 HD
ATOM     14  H   UNL     1      -6.765  -3.650   1.567  0.00  0.00    -0.086 HD
ENDBRANCH   4   7
BRANCH   1  20
ATOM     15  C   UNL     1      -0.017   1.390   0.010  0.00  0.00    +0.013 A 
ATOM     16  C   UNL     1       1.170   2.094   0.002  0.00  0.00    +0.039 A 
ATOM     17  C   UNL     1       2.379   1.418  -0.013  0.00  0.00    +0.123 A 
ATOM     18  C   UNL     1       2.403   0.032  -0.021  0.00  0.00    +0.039 A 
ATOM     19  C   UNL     1       1.222  -0.680  -0.013  0.00  0.00    +0.013 A 
ATOM     20  C   UNL     1       0.002  -0.004   0.002  0.00  0.00    +0.003 A 
ATOM     21  F   UNL     1       3.538   2.111  -0.022  0.00  0.00    -0.205 F 
ENDBRANCH   1  20
BRANCH   2  22
ATOM     22  C   UNL     1      -0.556  -2.742  -1.448  0.00  0.00    +0.003 A 
ATOM     23  C   UNL     1       0.254  -2.109  -2.401  0.00  0.00    +0.030 A 
ATOM     24  C   UNL     1       1.130  -2.871  -3.144  0.00  0.00    +0.111 A 
ATOM     25  N   UNL     1       1.212  -4.176  -2.968  0.00  0.00    -0.263 NA
ATOM     26  C   UNL     1       0.468  -4.812  -2.081  0.00  0.00    +0.111 A 
ATOM     27  C   UNL     1      -0.430  -4.128  -1.290  0.00  0.00    +0.030 A 
ENDBRANCH   2  22
TORSDOF 3
