REMARK  Name = CHEMBL441557
REMARK  9 active torsions:
REMARK  status: ('A' for Active; 'I' for Inactive)
REMARK    1  A    between atoms: C_1  and  C_2
REMARK    2  A    between atoms: C_5  and  C_33
REMARK    3  A    between atoms: C_7  and  N_8
REMARK    4  A    between atoms: N_15  and  C_16
REMARK    5  A    between atoms: N_15  and  C_17
REMARK    6  A    between atoms: C_17  and  C_18
REMARK    7  A    between atoms: C_18  and  C_19
REMARK    8  A    between atoms: C_18  and  C_20
REMARK    9  A    between atoms: N_26  and  C_27
REMARK                            x       y       z     vdW  Elec       q    Type
REMARK                         _______ _______ _______ _____ _____    ______ ____
ROOT
ATOM      1  N   UNL     1       0.048  -0.014   2.414  0.00  0.00    -0.283 N 
ATOM      2  C   UNL     1       0.162  -0.710   3.602  0.00  0.00    +0.225 A 
ATOM      3  N   UNL     1       0.374  -2.022   3.587  0.00  0.00    -0.181 NA
ATOM      4  C   UNL     1       0.483  -2.691   4.730  0.00  0.00    +0.221 A 
ATOM      5  N   UNL     1       0.381  -2.048   5.889  0.00  0.00    -0.181 NA
ATOM      6  C   UNL     1       0.168  -0.736   5.904  0.00  0.00    +0.223 A 
ATOM      7  N   UNL     1       0.064  -0.066   4.761  0.00  0.00    -0.181 NA
ATOM      8  N   UNL     1       0.061  -0.068   7.107  0.00  0.00    -0.302 N 
ATOM      9  C   UNL     1       0.181  -0.806   8.368  0.00  0.00    +0.132 C 
ATOM     10  N   UNL     1       0.703  -4.053   4.714  0.00  0.00    -0.312 N 
ATOM     11  H   UNL     1      -0.018   0.954   2.422  0.00  0.00    +0.155 HD
ATOM     12  H   UNL     1       0.855  -4.530   5.545  0.00  0.00    +0.149 HD
ENDROOT
BRANCH   1  19
ATOM     13  C   UNL     1       1.248   1.220   0.153  0.00  0.00    +0.045 C 
ATOM     14  C   UNL     1       0.603  -0.139   0.067  0.00  0.00    -0.029 A 
ATOM     15  C   UNL     1       0.591  -0.821  -1.136  0.00  0.00    +0.006 A 
ATOM     16  C   UNL     1       0.003  -2.066  -1.222  0.00  0.00    +0.013 A 
ATOM     17  C   UNL     1      -0.583  -2.642  -0.093  0.00  0.00    +0.038 A 
ATOM     18  C   UNL     1      -0.571  -1.954   1.120  0.00  0.00    +0.036 A 
ATOM     19  C   UNL     1       0.028  -0.706   1.198  0.00  0.00    +0.037 A 
BRANCH  17  20
ATOM     20  C   UNL     1      -1.214  -3.976  -0.183  0.00  0.00    +0.242 C 
ATOM     21  O   UNL     1      -1.642  -4.515   0.819  0.00  0.00    -0.270 OA
ATOM     22  N   UNL     1      -1.316  -4.594  -1.376  0.00  0.00    -0.325 N 
ATOM     23  H   UNL     1      -0.975  -4.164  -2.176  0.00  0.00    +0.145 HD
ATOM     24  H   UNL     1      -1.730  -5.469  -1.435  0.00  0.00    +0.145 HD
ENDBRANCH  17  20
ENDBRANCH   1  19
BRANCH  10  25
ATOM     25  C   UNL     1       0.708  -4.780   3.442  0.00  0.00    +0.054 C 
ATOM     26  C   UNL     1       2.145  -4.868   2.879  0.00  0.00    +0.001 C 
ATOM     27  C   UNL     1       2.613  -6.270   3.344  0.00  0.00    -0.081 C 
ATOM     28  N   UNL     1       1.388  -7.099   3.212  0.00  0.00    +0.380 N 
ATOM     29  C   UNL     1       0.267  -6.239   3.658  0.00  0.00    -0.060 C 
ATOM     30  H   UNL     1       1.255  -7.372   2.250  0.00  0.00    -0.086 HD
ATOM     31  H   UNL     1       1.456  -7.916   3.801  0.00  0.00    -0.086 HD
ENDBRANCH  10  25
BRANCH   8  32
ATOM     32  C   UNL     1      -0.173   1.378   7.125  0.00  0.00    +0.115 C 
BRANCH  32  33
ATOM     33  C   UNL     1      -1.678   1.651   7.131  0.00  0.00    +0.033 C 
ATOM     34  C   UNL     1      -2.292   1.157   5.820  0.00  0.00    +0.014 C 
BRANCH  33  35
ATOM     35  C   UNL     1      -1.919   3.132   7.273  0.00  0.00    -0.043 A 
ATOM     36  C   UNL     1      -1.431   4.006   6.320  0.00  0.00    +0.004 A 
ATOM     37  C   UNL     1      -1.652   5.364   6.449  0.00  0.00    +0.000 A 
ATOM     38  C   UNL     1      -2.363   5.848   7.532  0.00  0.00    +0.000 A 
ATOM     39  C   UNL     1      -2.852   4.974   8.484  0.00  0.00    +0.000 A 
ATOM     40  C   UNL     1      -2.635   3.616   8.352  0.00  0.00    +0.004 A 
ENDBRANCH  33  35
ENDBRANCH  32  33
ENDBRANCH   8  32
TORSDOF 6
