REMARK  Name = CHEMBL306667
REMARK  4 active torsions:
REMARK  status: ('A' for Active; 'I' for Inactive)
REMARK    1  A    between atoms: C_6  and  C_7
REMARK    2  A    between atoms: C_8  and  C_23
REMARK    3  A    between atoms: C_11  and  C_13
REMARK    4  A    between atoms: C_15  and  N_21
REMARK                            x       y       z     vdW  Elec       q    Type
REMARK                         _______ _______ _______ _____ _____    ______ ____
ROOT
ATOM      1  C   UNL     1      -1.270  -0.765   0.011  0.00  0.00    +0.097 A 
ATOM      2  C   UNL     1      -1.505  -1.970  -0.631  0.00  0.00    +0.074 A 
ATOM      3  N   UNL     1      -2.810  -2.308  -0.354  0.00  0.00    -0.337 N 
ATOM      4  H   UNL     1      -3.277  -3.102  -0.661  0.00  0.00    +0.167 HD
ATOM      5  C   UNL     1      -3.324  -1.320   0.432  0.00  0.00    +0.145 A 
ATOM      6  N   UNL     1      -2.398  -0.413   0.645  0.00  0.00    -0.227 NA
ENDROOT
BRANCH   5   7
ATOM      7  C   UNL     1      -4.702  -1.278   0.965  0.00  0.00    +0.095 A 
ATOM      8  C   UNL     1      -5.133  -0.211   1.762  0.00  0.00    +0.176 A 
ATOM      9  C   UNL     1      -6.437  -0.213   2.241  0.00  0.00    +0.156 A 
ATOM     10  N   UNL     1      -7.264  -1.206   1.953  0.00  0.00    -0.199 NA
ATOM     11  C   UNL     1      -6.894  -2.231   1.204  0.00  0.00    +0.251 A 
ATOM     12  C   UNL     1      -5.615  -2.304   0.682  0.00  0.00    +0.191 A 
ATOM     13  F   UNL     1      -5.249  -3.353  -0.087  0.00  0.00    -0.200 F 
ATOM     14  F   UNL     1      -7.778  -3.218   0.942  0.00  0.00    -0.181 F 
ATOM     15  F   UNL     1      -4.294   0.805   2.059  0.00  0.00    -0.201 F 
BRANCH   9  16
ATOM     16  N   UNL     1      -6.880   0.843   3.036  0.00  0.00    -0.341 N 
ATOM     17  H   UNL     1      -6.279   1.573   3.251  0.00  0.00    +0.144 HD
ATOM     18  H   UNL     1      -7.789   0.847   3.374  0.00  0.00    +0.144 HD
ENDBRANCH   9  16
ENDBRANCH   5   7
BRANCH   1  24
ATOM     19  C   UNL     1      -0.017   1.390   0.010  0.00  0.00    +0.013 A 
ATOM     20  C   UNL     1       1.170   2.094   0.002  0.00  0.00    +0.039 A 
ATOM     21  C   UNL     1       2.379   1.418  -0.013  0.00  0.00    +0.123 A 
ATOM     22  C   UNL     1       2.403   0.032  -0.022  0.00  0.00    +0.039 A 
ATOM     23  C   UNL     1       1.222  -0.680  -0.014  0.00  0.00    +0.013 A 
ATOM     24  C   UNL     1       0.002  -0.004   0.002  0.00  0.00    +0.003 A 
ATOM     25  F   UNL     1       3.538   2.111  -0.021  0.00  0.00    -0.205 F 
ENDBRANCH   1  24
BRANCH   2  26
ATOM     26  C   UNL     1      -0.547  -2.738  -1.448  0.00  0.00    +0.003 A 
ATOM     27  C   UNL     1       0.263  -2.101  -2.399  0.00  0.00    +0.030 A 
ATOM     28  C   UNL     1       1.144  -2.858  -3.140  0.00  0.00    +0.111 A 
ATOM     29  N   UNL     1       1.230  -4.163  -2.966  0.00  0.00    -0.263 NA
ATOM     30  C   UNL     1       0.487  -4.803  -2.082  0.00  0.00    +0.111 A 
ATOM     31  C   UNL     1      -0.417  -4.125  -1.293  0.00  0.00    +0.030 A 
ENDBRANCH   2  26
TORSDOF 4
