REMARK  Name = CHEMBL521734
REMARK  6 active torsions:
REMARK  status: ('A' for Active; 'I' for Inactive)
REMARK    1  A    between atoms: C_1  and  C_2
REMARK    2  A    between atoms: C_5  and  C_23
REMARK    3  A    between atoms: C_7  and  C_8
REMARK    4  A    between atoms: N_16  and  C_19
REMARK    5  A    between atoms: C_19  and  C_20
REMARK    6  A    between atoms: N_25  and  C_26
REMARK                            x       y       z     vdW  Elec       q    Type
REMARK                         _______ _______ _______ _____ _____    ______ ____
ROOT
ATOM      1  C   UNL     1       0.025   0.029   2.495  0.00  0.00    -0.016 A 
ATOM      2  C   UNL     1       0.940   1.068   2.700  0.00  0.00    +0.009 A 
ATOM      3  C   UNL     1       0.957   1.756   3.879  0.00  0.00    +0.016 A 
ATOM      4  C   UNL     1       0.055   1.423   4.890  0.00  0.00    +0.068 A 
ATOM      5  C   UNL     1      -0.875   0.377   4.698  0.00  0.00    +0.101 A 
ATOM      6  C   UNL     1      -0.884  -0.315   3.486  0.00  0.00    +0.039 A 
ATOM      7  N   UNL     1      -1.744   0.067   5.693  0.00  0.00    -0.131 NA
ATOM      8  N   UNL     1      -1.749   0.697   6.811  0.00  0.00    -0.062 NA
ATOM      9  N   UNL     1      -0.870   1.745   7.096  0.00  0.00    -0.210 N 
ATOM     10  C   UNL     1       0.040   2.139   6.174  0.00  0.00    +0.278 A 
ATOM     11  O   UNL     1       0.817   3.049   6.401  0.00  0.00    -0.265 OA
ENDROOT
BRANCH   1  18
ATOM     12  C   UNL     1      -0.018   1.503   0.010  0.00  0.00    +0.044 C 
ATOM     13  C   UNL     1       0.002  -0.004   0.002  0.00  0.00    -0.043 A 
ATOM     14  C   UNL     1       0.006  -0.686  -1.199  0.00  0.00    +0.005 A 
ATOM     15  C   UNL     1       0.025  -2.067  -1.216  0.00  0.00    +0.013 A 
ATOM     16  C   UNL     1       0.040  -2.781  -0.016  0.00  0.00    +0.037 A 
ATOM     17  C   UNL     1       0.037  -2.097   1.199  0.00  0.00    +0.021 A 
ATOM     18  C   UNL     1       0.023  -0.706   1.207  0.00  0.00    -0.014 A 
BRANCH  16  19
ATOM     19  C   UNL     1       0.060  -4.260  -0.034  0.00  0.00    +0.244 C 
ATOM     20  O   UNL     1       0.073  -4.880   1.012  0.00  0.00    -0.270 OA
ATOM     21  N   UNL     1       0.063  -4.919  -1.209  0.00  0.00    -0.308 N 
ATOM     22  H   UNL     1       0.052  -4.424  -2.043  0.00  0.00    +0.149 HD
BRANCH  21  23
ATOM     23  C   UNL     1       0.082  -6.384  -1.227  0.00  0.00    +0.073 C 
ATOM     24  C   UNL     1       1.023  -7.066  -2.222  0.00  0.00    +0.024 C 
ATOM     25  C   UNL     1      -0.488  -7.083  -2.462  0.00  0.00    +0.024 C 
ENDBRANCH  21  23
ENDBRANCH  16  19
ENDBRANCH   1  18
BRANCH   9  26
ATOM     26  C   UNL     1      -0.933   2.419   8.395  0.00  0.00    +0.152 C 
BRANCH  26  27
ATOM     27  C   UNL     1      -1.905   3.597   8.312  0.00  0.00    +0.011 C 
ATOM     28  C   UNL     1      -1.334   5.001   8.517  0.00  0.00    +0.005 C 
ATOM     29  C   UNL     1      -2.202   4.362   9.603  0.00  0.00    +0.005 C 
ENDBRANCH  26  27
ENDBRANCH   9  26
TORSDOF 5
