REMARK  Name = CHEMBL221547
REMARK  6 active torsions:
REMARK  status: ('A' for Active; 'I' for Inactive)
REMARK    1  A    between atoms: N_9  and  C_12
REMARK    2  A    between atoms: C_12  and  C_13
REMARK    3  A    between atoms: C_13  and  C_14
REMARK    4  A    between atoms: C_14  and  N_15
REMARK    5  A    between atoms: N_15  and  C_16
REMARK    6  A    between atoms: N_28  and  C_30
REMARK                            x       y       z     vdW  Elec       q    Type
REMARK                         _______ _______ _______ _____ _____    ______ ____
ROOT
ATOM      1  N   UNL     1       4.991  -5.575  -2.901  0.00  0.00    -0.282 N 
ATOM      2  C   UNL     1       4.073  -6.396  -3.554  0.00  0.00    +0.147 A 
ATOM      3  C   UNL     1       4.311  -6.793  -4.884  0.00  0.00    +0.051 A 
ATOM      4  C   UNL     1       3.414  -7.595  -5.520  0.00  0.00    +0.075 A 
ATOM      5  C   UNL     1       2.258  -8.017  -4.833  0.00  0.00    +0.272 A 
ATOM      6  O   UNL     1       1.443  -8.737  -5.387  0.00  0.00    -0.266 OA
ATOM      7  N   UNL     1       2.059  -7.620  -3.560  0.00  0.00    -0.194 N 
ATOM      8  N   UNL     1       2.996  -6.799  -2.922  0.00  0.00    -0.148 NA
ENDROOT
BRANCH   1   9
ATOM      9  C   UNL     1       6.141  -5.143  -3.570  0.00  0.00    +0.054 A 
ATOM     10  C   UNL     1       7.303  -5.901  -3.518  0.00  0.00    +0.025 A 
ATOM     11  C   UNL     1       8.437  -5.472  -4.179  0.00  0.00    +0.002 A 
ATOM     12  C   UNL     1       8.416  -4.287  -4.893  0.00  0.00    +0.002 A 
ATOM     13  C   UNL     1       7.261  -3.529  -4.947  0.00  0.00    +0.022 A 
ATOM     14  C   UNL     1       6.121  -3.956  -4.293  0.00  0.00    +0.062 A 
ATOM     15 CL   UNL     1       4.669  -3.007  -4.368  0.00  0.00    -0.082 Cl
ENDBRANCH   1   9
BRANCH   7  16
ATOM     16  C   UNL     1       0.914  -8.035  -2.872  0.00  0.00    +0.088 A 
ATOM     17  C   UNL     1       0.623  -9.389  -2.758  0.00  0.00    +0.029 A 
ATOM     18  C   UNL     1      -0.509  -9.795  -2.078  0.00  0.00    +0.002 A 
ATOM     19  C   UNL     1      -1.352  -8.857  -1.511  0.00  0.00    +0.002 A 
ATOM     20  C   UNL     1      -1.066  -7.509  -1.622  0.00  0.00    +0.022 A 
ATOM     21  C   UNL     1       0.068  -7.095  -2.296  0.00  0.00    +0.066 A 
ATOM     22 CL   UNL     1       0.431  -5.402  -2.429  0.00  0.00    -0.081 Cl
ENDBRANCH   7  16
BRANCH   1  23
ATOM     23  C   UNL     1       4.752  -5.165  -1.515  0.00  0.00    +0.114 C 
BRANCH  23  24
ATOM     24  C   UNL     1       3.959  -3.857  -1.501  0.00  0.00    +0.039 C 
BRANCH  24  25
ATOM     25  C   UNL     1       3.709  -3.428  -0.053  0.00  0.00    +0.118 C 
BRANCH  25  34
ATOM     26  C   UNL     1      -0.017   1.382   0.010  0.00  0.00    +0.001 A 
ATOM     27  C   UNL     1       1.165   2.099   0.002  0.00  0.00    +0.001 A 
ATOM     28  C   UNL     1       2.385   1.442  -0.013  0.00  0.00    +0.014 A 
ATOM     29  C   UNL     1       2.420   0.056  -0.021  0.00  0.00    +0.049 A 
ATOM     30  C   UNL     1       1.215  -0.675  -0.013  0.00  0.00    +0.049 A 
ATOM     31  C   UNL     1       0.002  -0.004   0.002  0.00  0.00    +0.014 A 
ATOM     32  C   UNL     1       1.606  -2.100  -0.025  0.00  0.00    +0.254 C 
ATOM     33  O   UNL     1       0.843  -3.045  -0.023  0.00  0.00    -0.270 OA
ATOM     34  N   UNL     1       2.949  -2.175  -0.039  0.00  0.00    -0.234 N 
ATOM     35  C   UNL     1       3.503  -0.949  -0.038  0.00  0.00    +0.254 C 
ATOM     36  O   UNL     1       4.693  -0.709  -0.049  0.00  0.00    -0.270 OA
ENDBRANCH  25  34
ENDBRANCH  24  25
ENDBRANCH  23  24
ENDBRANCH   1  23
TORSDOF 6
