REMARK  Name = CHEMBL481761
REMARK  8 active torsions:
REMARK  status: ('A' for Active; 'I' for Inactive)
REMARK    1  A    between atoms: C_1  and  C_2
REMARK    2  A    between atoms: C_2  and  C_4
REMARK    3  A    between atoms: C_2  and  N_10
REMARK    4  A    between atoms: C_15  and  C_17
REMARK    5  A    between atoms: C_18  and  C_33
REMARK    6  A    between atoms: C_20  and  C_23
REMARK    7  A    between atoms: C_23  and  C_24
REMARK    8  A    between atoms: C_28  and  C_30
REMARK                            x       y       z     vdW  Elec       q    Type
REMARK                         _______ _______ _______ _____ _____    ______ ____
ROOT
ATOM      1  C   UNL     1       0.800  -1.708   5.802  0.00  0.00    +0.093 A 
ATOM      2  C   UNL     1       1.950  -2.479   5.811  0.00  0.00    +0.098 A 
ATOM      3  N   UNL     1       2.280  -2.691   7.097  0.00  0.00    -0.231 NA
ATOM      4  C   UNL     1       1.412  -2.105   7.874  0.00  0.00    +0.113 A 
ATOM      5  N   UNL     1       0.482  -1.480   7.123  0.00  0.00    -0.340 N 
ATOM      6  H   UNL     1      -0.273  -0.967   7.452  0.00  0.00    +0.167 HD
ENDROOT
BRANCH   1  12
ATOM      7  N   UNL     1       0.711  -0.489   1.189  0.00  0.00    -0.307 N 
ATOM      8  C   UNL     1       0.033  -0.637   2.387  0.00  0.00    +0.216 A 
ATOM      9  N   UNL     1      -1.257  -0.340   2.440  0.00  0.00    -0.223 NA
ATOM     10  C   UNL     1      -1.942  -0.468   3.566  0.00  0.00    +0.116 A 
ATOM     11  C   UNL     1      -1.298  -0.918   4.703  0.00  0.00    +0.050 A 
ATOM     12  C   UNL     1       0.066  -1.225   4.619  0.00  0.00    +0.094 A 
ATOM     13  N   UNL     1       0.690  -1.077   3.448  0.00  0.00    -0.213 NA
ATOM     14  H   UNL     1       1.654  -0.707   1.135  0.00  0.00    +0.149 HD
BRANCH   7  16
ATOM     15  C   UNL     1      -0.019   1.526   0.010  0.00  0.00    +0.033 C 
ATOM     16  C   UNL     1       0.002  -0.004   0.002  0.00  0.00    +0.100 C 
BRANCH  16  17
ATOM     17  C   UNL     1       0.707  -0.490  -1.238  0.00  0.00    -0.027 A 
ATOM     18  C   UNL     1       2.089  -0.511  -1.284  0.00  0.00    +0.005 A 
ATOM     19  C   UNL     1       2.736  -0.957  -2.421  0.00  0.00    +0.000 A 
ATOM     20  C   UNL     1       2.002  -1.382  -3.512  0.00  0.00    +0.000 A 
ATOM     21  C   UNL     1       0.620  -1.362  -3.466  0.00  0.00    +0.000 A 
ATOM     22  C   UNL     1      -0.027  -0.920  -2.327  0.00  0.00    +0.005 A 
ENDBRANCH  16  17
ENDBRANCH   7  16
ENDBRANCH   1  12
BRANCH   2  23
ATOM     23  C   UNL     1       2.682  -2.976   4.623  0.00  0.00    +0.003 A 
ATOM     24  C   UNL     1       1.982  -3.343   3.473  0.00  0.00    +0.013 A 
ATOM     25  C   UNL     1       2.668  -3.806   2.370  0.00  0.00    +0.039 A 
ATOM     26  C   UNL     1       4.050  -3.908   2.402  0.00  0.00    +0.123 A 
ATOM     27  C   UNL     1       4.749  -3.545   3.542  0.00  0.00    +0.039 A 
ATOM     28  C   UNL     1       4.073  -3.075   4.649  0.00  0.00    +0.013 A 
ATOM     29  F   UNL     1       4.717  -4.362   1.319  0.00  0.00    -0.205 F 
ENDBRANCH   2  23
BRANCH   4  30
ATOM     30  C   UNL     1       1.446  -2.119   9.381  0.00  0.00    +0.109 C 
BRANCH  30  31
ATOM     31  C   UNL     1       1.487  -3.544   9.869  0.00  0.00    -0.039 A 
ATOM     32  C   UNL     1       0.307  -4.224  10.114  0.00  0.00    +0.004 A 
ATOM     33  C   UNL     1       0.336  -5.532  10.562  0.00  0.00    +0.001 A 
ATOM     34  C   UNL     1       1.543  -6.168  10.768  0.00  0.00    +0.013 A 
ATOM     35  C   UNL     1       2.737  -5.488  10.523  0.00  0.00    +0.037 A 
ATOM     36  C   UNL     1       2.701  -4.170  10.065  0.00  0.00    +0.017 A 
BRANCH  35  37
ATOM     37  C   UNL     1       4.034  -6.163  10.742  0.00  0.00    +0.242 C 
ATOM     38  O   UNL     1       5.072  -5.568  10.527  0.00  0.00    -0.270 OA
ATOM     39  N   UNL     1       4.066  -7.437  11.179  0.00  0.00    -0.325 N 
ATOM     40  H   UNL     1       3.237  -7.912  11.350  0.00  0.00    +0.145 HD
ATOM     41  H   UNL     1       4.917  -7.880  11.322  0.00  0.00    +0.145 HD
ENDBRANCH  35  37
ENDBRANCH  30  31
ENDBRANCH   4  30
TORSDOF 7
