REMARK  Name = CHEMBL324063
REMARK  8 active torsions:
REMARK  status: ('A' for Active; 'I' for Inactive)
REMARK    1  A    between atoms: C_1  and  C_2
REMARK    2  A    between atoms: C_2  and  C_4
REMARK    3  A    between atoms: C_2  and  N_10
REMARK    4  A    between atoms: C_13  and  C_17
REMARK    5  A    between atoms: C_18  and  C_30
REMARK    6  A    between atoms: C_20  and  C_22
REMARK    7  A    between atoms: C_22  and  O_29
REMARK    8  A    between atoms: N_25  and  C_28
REMARK                            x       y       z     vdW  Elec       q    Type
REMARK                         _______ _______ _______ _____ _____    ______ ____
ROOT
ATOM      1  C   UNL     1      -3.415  -0.117   3.817  0.00  0.00    +0.163 A 
ATOM      2  C   UNL     1      -4.224  -0.363   4.908  0.00  0.00    +0.117 A 
ATOM      3  N   UNL     1      -5.474   0.009   4.563  0.00  0.00    -0.210 NA
ATOM      4  C   UNL     1      -5.459   0.459   3.342  0.00  0.00    +0.228 A 
ATOM      5  O   UNL     1      -4.213   0.401   2.857  0.00  0.00    -0.436 OA
ENDROOT
BRANCH   1   9
ATOM      6  N   UNL     1       1.130   1.303   2.653  0.00  0.00    -0.322 N 
ATOM      7  C   UNL     1       0.258   0.340   3.149  0.00  0.00    +0.120 A 
ATOM      8  C   UNL     1      -1.100   0.616   3.221  0.00  0.00    +0.055 A 
ATOM      9  C   UNL     1      -1.964  -0.363   3.721  0.00  0.00    +0.024 A 
ATOM     10  C   UNL     1      -1.412  -1.588   4.131  0.00  0.00    +0.031 A 
ATOM     11  C   UNL     1      -0.053  -1.779   4.026  0.00  0.00    +0.113 A 
ATOM     12  N   UNL     1       0.732  -0.833   3.543  0.00  0.00    -0.240 NA
ATOM     13  H   UNL     1       2.080   1.114   2.597  0.00  0.00    +0.148 HD
BRANCH   6  15
ATOM     14  C   UNL     1       0.500   3.538   3.421  0.00  0.00    +0.033 C 
ATOM     15  C   UNL     1       0.614   2.602   2.216  0.00  0.00    +0.099 C 
BRANCH  15  16
ATOM     16  C   UNL     1       1.556   3.201   1.203  0.00  0.00    -0.028 A 
ATOM     17  C   UNL     1       2.922   3.082   1.374  0.00  0.00    +0.005 A 
ATOM     18  C   UNL     1       3.786   3.632   0.445  0.00  0.00    +0.000 A 
ATOM     19  C   UNL     1       3.283   4.299  -0.656  0.00  0.00    +0.000 A 
ATOM     20  C   UNL     1       1.917   4.417  -0.828  0.00  0.00    +0.000 A 
ATOM     21  C   UNL     1       1.053   3.864   0.099  0.00  0.00    +0.005 A 
ENDBRANCH  15  16
ENDBRANCH   6  15
ENDBRANCH   1   9
BRANCH   4  22
ATOM     22  C   UNL     1      -6.661   0.971   2.590  0.00  0.00    +0.138 C 
ATOM     23  C   UNL     1      -7.266   2.160   3.342  0.00  0.00    +0.026 C 
ATOM     24  C   UNL     1      -8.531   2.624   2.616  0.00  0.00    -0.076 C 
ATOM     25  N   UNL     1      -9.504   1.526   2.570  0.00  0.00    +0.378 N 
ATOM     26  C   UNL     1      -8.958   0.410   1.789  0.00  0.00    -0.076 C 
ATOM     27  C   UNL     1      -7.710  -0.140   2.483  0.00  0.00    +0.026 C 
ATOM     28  C   UNL     1     -10.745   2.000   1.942  0.00  0.00    -0.096 C 
ATOM     29  H   UNL     1      -9.702   1.214   3.508  0.00  0.00    -0.082 HD
BRANCH  22  30
ATOM     30  O   UNL     1      -6.265   1.383   1.281  0.00  0.00    -0.379 OA
ATOM     31  H   UNL     1      -5.603   2.088   1.273  0.00  0.00    +0.211 HD
ENDBRANCH  22  30
ENDBRANCH   4  22
BRANCH   2  32
ATOM     32  C   UNL     1      -3.800  -0.929   6.210  0.00  0.00    +0.004 A 
ATOM     33  C   UNL     1      -2.614  -0.502   6.805  0.00  0.00    +0.013 A 
ATOM     34  C   UNL     1      -2.223  -1.032   8.018  0.00  0.00    +0.039 A 
ATOM     35  C   UNL     1      -3.008  -1.987   8.644  0.00  0.00    +0.123 A 
ATOM     36  C   UNL     1      -4.188  -2.415   8.056  0.00  0.00    +0.039 A 
ATOM     37  C   UNL     1      -4.590  -1.887   6.847  0.00  0.00    +0.013 A 
ATOM     38  F   UNL     1      -2.622  -2.504   9.831  0.00  0.00    -0.205 F 
ENDBRANCH   2  32
TORSDOF 6
