REMARK  Name = CHEMBL480952
REMARK  6 active torsions:
REMARK  status: ('A' for Active; 'I' for Inactive)
REMARK    1  A    between atoms: C_1  and  S_2
REMARK    2  A    between atoms: S_2  and  C_3
REMARK    3  A    between atoms: C_6  and  C_16
REMARK    4  A    between atoms: C_7  and  C_9
REMARK    5  A    between atoms: N_22  and  C_23
REMARK    6  A    between atoms: C_23  and  C_24
REMARK                            x       y       z     vdW  Elec       q    Type
REMARK                         _______ _______ _______ _____ _____    ______ ____
ROOT
ATOM      1  C   UNL     1      -0.829   3.441  -1.307  0.00  0.00    +0.167 A 
ATOM      2  N   UNL     1      -0.259   4.098  -0.325  0.00  0.00    -0.221 NA
ATOM      3  H   UNL     1      -1.834   4.114  -3.010  0.00  0.00    +0.168 HD
ATOM      4  C   UNL     1      -0.400   5.423  -0.527  0.00  0.00    +0.098 A 
ATOM      5  C   UNL     1      -1.099   5.596  -1.706  0.00  0.00    +0.075 A 
ATOM      6  N   UNL     1      -1.359   4.330  -2.193  0.00  0.00    -0.332 N 
ENDROOT
BRANCH   4   7
ATOM      7  C   UNL     1       0.103   6.500   0.356  0.00  0.00    +0.007 A 
ATOM      8  C   UNL     1       0.564   7.711  -0.178  0.00  0.00    +0.030 A 
ATOM      9  C   UNL     1       1.025   8.688   0.676  0.00  0.00    +0.113 A 
ATOM     10  N   UNL     1       1.039   8.499   1.983  0.00  0.00    -0.240 NA
ATOM     11  C   UNL     1       0.613   7.370   2.532  0.00  0.00    +0.119 A 
ATOM     12  C   UNL     1       0.127   6.337   1.742  0.00  0.00    +0.053 A 
ATOM     13  N   UNL     1       0.649   7.222   3.914  0.00  0.00    -0.327 N 
ATOM     14  H   UNL     1       0.984   7.942   4.470  0.00  0.00    +0.148 HD
BRANCH  13  15
ATOM     15  C   UNL     1       0.181   5.978   4.529  0.00  0.00    +0.134 C 
BRANCH  15  16
ATOM     16  C   UNL     1       0.327   6.074   6.049  0.00  0.00    +0.135 C 
ATOM     17  C   UNL     1      -0.056   4.727   6.699  0.00  0.00    +0.035 C 
ATOM     18  C   UNL     1      -0.823   5.180   7.971  0.00  0.00    +0.031 C 
ATOM     19  C   UNL     1      -1.516   6.466   7.454  0.00  0.00    +0.160 C 
ATOM     20  O   UNL     1      -0.567   7.071   6.561  0.00  0.00    -0.375 OA
ENDBRANCH  15  16
ENDBRANCH  13  15
ENDBRANCH   4   7
BRANCH   5  21
ATOM     21  C   UNL     1      -1.485   6.879  -2.325  0.00  0.00    +0.001 A 
ATOM     22  C   UNL     1      -2.027   7.901  -1.542  0.00  0.00    +0.013 A 
ATOM     23  C   UNL     1      -2.385   9.097  -2.126  0.00  0.00    +0.039 A 
ATOM     24  C   UNL     1      -2.210   9.287  -3.488  0.00  0.00    +0.123 A 
ATOM     25  C   UNL     1      -1.673   8.276  -4.270  0.00  0.00    +0.039 A 
ATOM     26  C   UNL     1      -1.306   7.078  -3.696  0.00  0.00    +0.013 A 
ATOM     27  F   UNL     1      -2.563  10.461  -4.055  0.00  0.00    -0.205 F 
ENDBRANCH   5  21
BRANCH   1  29
ATOM     28  C   UNL     1      -0.013   1.086   0.008  0.00  0.00    +0.093 C 
ATOM     29  S   UNL     1      -0.890   1.687  -1.462  0.00  0.00    -0.091 S 
ENDBRANCH   1  29
TORSDOF 5
