REMARK  Name = CHEMBL565564
REMARK  5 active torsions:
REMARK  status: ('A' for Active; 'I' for Inactive)
REMARK    1  A    between atoms: C_1  and  C_2
REMARK    2  A    between atoms: C_2  and  C_3
REMARK    3  A    between atoms: C_2  and  N_4
REMARK    4  A    between atoms: C_7  and  C_11
REMARK    5  A    between atoms: C_12  and  C_21
REMARK                            x       y       z     vdW  Elec       q    Type
REMARK                         _______ _______ _______ _____ _____    ______ ____
ROOT
ATOM      1  C   UNL     1      -0.012  -4.763  -2.361  0.00  0.00    +0.098 A 
ATOM      2  C   UNL     1       0.133  -6.070  -1.834  0.00  0.00    +0.098 A 
ATOM      3  N   UNL     1       1.228  -6.768  -2.075  0.00  0.00    -0.243 NA
ATOM      4  C   UNL     1       2.204  -6.237  -2.820  0.00  0.00    +0.090 A 
ATOM      5  C   UNL     1       3.379  -6.960  -3.091  0.00  0.00    +0.030 A 
ATOM      6  C   UNL     1       4.357  -6.399  -3.852  0.00  0.00    +0.002 A 
ATOM      7  C   UNL     1       4.214  -5.112  -4.369  0.00  0.00    +0.002 A 
ATOM      8  C   UNL     1       3.091  -4.382  -4.128  0.00  0.00    +0.030 A 
ATOM      9  C   UNL     1       2.058  -4.928  -3.347  0.00  0.00    +0.090 A 
ATOM     10  N   UNL     1       0.943  -4.232  -3.101  0.00  0.00    -0.243 NA
ENDROOT
BRANCH   1  14
ATOM     11  N   UNL     1      -2.314  -0.624  -1.077  0.00  0.00    -0.327 N 
ATOM     12  C   UNL     1      -2.362  -1.961  -1.455  0.00  0.00    +0.119 A 
ATOM     13  C   UNL     1      -1.180  -2.648  -1.705  0.00  0.00    +0.053 A 
ATOM     14  C   UNL     1      -1.246  -3.989  -2.083  0.00  0.00    +0.007 A 
ATOM     15  C   UNL     1      -2.508  -4.585  -2.195  0.00  0.00    +0.030 A 
ATOM     16  C   UNL     1      -3.632  -3.833  -1.930  0.00  0.00    +0.113 A 
ATOM     17  N   UNL     1      -3.534  -2.568  -1.568  0.00  0.00    -0.240 NA
ATOM     18  H   UNL     1      -3.135  -0.141  -0.898  0.00  0.00    +0.148 HD
BRANCH  11  20
ATOM     19  C   UNL     1      -1.215   1.560  -1.146  0.00  0.00    +0.027 C 
ATOM     20  C   UNL     1      -1.022   0.055  -0.949  0.00  0.00    +0.066 C 
ATOM     21  C   UNL     1      -0.443  -0.208   0.442  0.00  0.00    +0.027 C 
ENDBRANCH  11  20
ENDBRANCH   1  14
BRANCH   2  22
ATOM     22  C   UNL     1      -0.948  -6.657  -1.010  0.00  0.00    +0.003 A 
ATOM     23  C   UNL     1      -1.556  -5.898  -0.009  0.00  0.00    +0.013 A 
ATOM     24  C   UNL     1      -2.562  -6.448   0.756  0.00  0.00    +0.039 A 
ATOM     25  C   UNL     1      -2.970  -7.754   0.532  0.00  0.00    +0.123 A 
ATOM     26  C   UNL     1      -2.369  -8.512  -0.460  0.00  0.00    +0.039 A 
ATOM     27  C   UNL     1      -1.367  -7.968  -1.235  0.00  0.00    +0.013 A 
ATOM     28  F   UNL     1      -3.956  -8.289   1.285  0.00  0.00    -0.205 F 
ENDBRANCH   2  22
TORSDOF 3
