REMARK  Name = CHEMBL1209637
REMARK  11 active torsions:
REMARK  status: ('A' for Active; 'I' for Inactive)
REMARK    1  A    between atoms: C_1  and  C_2
REMARK    2  A    between atoms: C_2  and  C_3
REMARK    3  A    between atoms: C_2  and  C_4
REMARK    4  A    between atoms: C_2  and  C_5
REMARK    5  A    between atoms: C_7  and  N_27
REMARK    6  A    between atoms: N_8  and  C_10
REMARK    7  A    between atoms: C_14  and  C_16
REMARK    8  A    between atoms: C_16  and  N_17
REMARK    9  A    between atoms: C_18  and  C_20
REMARK   10  A    between atoms: C_22  and  C_24
REMARK   11  A    between atoms: N_30  and  C_31
REMARK                            x       y       z     vdW  Elec       q    Type
REMARK                         _______ _______ _______ _____ _____    ______ ____
ROOT
ATOM      1  C   UNL     1       6.652  -1.072  -4.235  0.00  0.00    +0.071 A 
ATOM      2  C   UNL     1       7.665  -1.776  -4.892  0.00  0.00    +0.069 A 
ATOM      3  C   UNL     1       7.090  -2.507  -5.886  0.00  0.00    +0.130 A 
ATOM      4  N   UNL     1       5.751  -2.264  -5.848  0.00  0.00    -0.218 N 
ATOM      5  N   UNL     1       5.509  -1.366  -4.800  0.00  0.00    -0.169 NA
ENDROOT
BRANCH   4   6
ATOM      6  C   UNL     1       4.787  -2.817  -6.701  0.00  0.00    +0.068 A 
ATOM      7  C   UNL     1       5.097  -3.071  -8.030  0.00  0.00    +0.028 A 
ATOM      8  C   UNL     1       4.145  -3.616  -8.868  0.00  0.00    +0.002 A 
ATOM      9  C   UNL     1       2.882  -3.910  -8.385  0.00  0.00    +0.005 A 
ATOM     10  C   UNL     1       2.570  -3.658  -7.062  0.00  0.00    -0.028 A 
ATOM     11  C   UNL     1       3.520  -3.118  -6.217  0.00  0.00    +0.033 A 
BRANCH  10  12
ATOM     12  C   UNL     1       1.194  -3.979  -6.539  0.00  0.00    +0.139 C 
BRANCH  12  13
ATOM     13  N   UNL     1       1.173  -5.351  -6.028  0.00  0.00    -0.311 N 
ATOM     14  C   UNL     1       0.039  -5.860  -5.507  0.00  0.00    +0.217 C 
ATOM     15  O   UNL     1      -0.965  -5.181  -5.462  0.00  0.00    -0.275 OA
ATOM     16  H   UNL     1       1.976  -5.894  -6.064  0.00  0.00    +0.149 HD
BRANCH  14  17
ATOM     17  C   UNL     1       0.018  -7.272  -4.981  0.00  0.00    +0.090 C 
ATOM     18  C   UNL     1      -1.335  -7.985  -4.927  0.00  0.00    +0.029 C 
ATOM     19  C   UNL     1      -0.297  -8.391  -5.976  0.00  0.00    +0.115 C 
BRANCH  19  20
ATOM     20  C   UNL     1      -0.563  -7.997  -7.406  0.00  0.00    +0.360 C 
ATOM     21  O   UNL     1       0.237  -8.292  -8.278  0.00  0.00    -0.246 OA
ATOM     22  O   UNL     1      -1.577  -7.384  -7.691  0.00  0.00    -0.246 OA
ENDBRANCH  19  20
ENDBRANCH  14  17
ENDBRANCH  12  13
ENDBRANCH  10  12
ENDBRANCH   4   6
BRANCH   3  23
ATOM     23  N   UNL     1       7.750  -3.350  -6.779  0.00  0.00    -0.254 N 
ATOM     24  C   UNL     1       9.087  -3.499  -6.702  0.00  0.00    +0.309 C 
ATOM     25  O   UNL     1       9.718  -2.897  -5.854  0.00  0.00    -0.252 OA
ATOM     26  N   UNL     1       9.726  -4.313  -7.566  0.00  0.00    -0.269 N 
ATOM     27  H   UNL     1       7.247  -3.830  -7.455  0.00  0.00    +0.158 HD
ATOM     28  H   UNL     1       9.235  -4.733  -8.290  0.00  0.00    +0.156 HD
BRANCH  26  29
ATOM     29  C   UNL     1      11.096  -4.554  -7.417  0.00  0.00    +0.035 A 
ATOM     30  C   UNL     1      11.665  -4.577  -6.151  0.00  0.00    +0.023 A 
ATOM     31  C   UNL     1      13.018  -4.816  -6.008  0.00  0.00    +0.002 A 
ATOM     32  C   UNL     1      13.806  -5.032  -7.124  0.00  0.00    +0.000 A 
ATOM     33  C   UNL     1      13.242  -5.009  -8.386  0.00  0.00    +0.002 A 
ATOM     34  C   UNL     1      11.889  -4.777  -8.536  0.00  0.00    +0.023 A 
ENDBRANCH  26  29
ENDBRANCH   3  23
BRANCH   1  36
ATOM     35  C   UNL     1       7.439   1.182  -3.564  0.00  0.00    +0.017 C 
ATOM     36  C   UNL     1       6.844  -0.138  -3.068  0.00  0.00    +0.006 C 
ATOM     37  C   UNL     1       7.795  -0.777  -2.054  0.00  0.00    +0.017 C 
ATOM     38  C   UNL     1       5.493   0.130  -2.402  0.00  0.00    +0.017 C 
ENDBRANCH   1  36
TORSDOF 8
