REMARK  Name = CHEMBL159932
REMARK  10 active torsions:
REMARK  status: ('A' for Active; 'I' for Inactive)
REMARK    1  A    between atoms: C_1  and  C_2
REMARK    2  A    between atoms: C_2  and  C_33
REMARK    3  A    between atoms: C_5  and  C_8
REMARK    4  A    between atoms: C_11  and  C_21
REMARK    5  A    between atoms: C_12  and  C_14
REMARK    6  A    between atoms: N_27  and  C_28
REMARK    7  A    between atoms: C_28  and  C_29
REMARK    8  A    between atoms: C_29  and  C_30
REMARK    9  A    between atoms: C_30  and  O_31
REMARK   10  A    between atoms: O_31  and  C_32
REMARK                            x       y       z     vdW  Elec       q    Type
REMARK                         _______ _______ _______ _____ _____    ______ ____
ROOT
ATOM      1  C   UNL     1      -1.360  -3.842   1.028  0.00  0.00    +0.165 A 
ATOM      2  N   UNL     1      -2.410  -4.388   0.483  0.00  0.00    -0.225 NA
ATOM      3  H   UNL     1       0.322  -4.683   1.927  0.00  0.00    +0.167 HD
ATOM      4  C   UNL     1      -2.314  -5.729   0.563  0.00  0.00    +0.115 A 
ATOM      5  C   UNL     1      -1.122  -6.022   1.202  0.00  0.00    +0.076 A 
ATOM      6  N   UNL     1      -0.530  -4.816   1.483  0.00  0.00    -0.337 N 
ENDROOT
BRANCH   4   7
ATOM      7  C   UNL     1      -3.302  -6.708   0.062  0.00  0.00    +0.096 A 
ATOM      8  C   UNL     1      -4.647  -6.349  -0.088  0.00  0.00    +0.050 A 
ATOM      9  C   UNL     1      -5.533  -7.298  -0.561  0.00  0.00    +0.116 A 
ATOM     10  N   UNL     1      -5.088  -8.511  -0.855  0.00  0.00    -0.223 NA
ATOM     11  C   UNL     1      -3.810  -8.825  -0.704  0.00  0.00    +0.216 A 
ATOM     12  N   UNL     1      -2.925  -7.946  -0.260  0.00  0.00    -0.213 NA
ATOM     13  N   UNL     1      -3.388 -10.104  -1.023  0.00  0.00    -0.313 N 
ATOM     14  H   UNL     1      -2.454 -10.347  -0.917  0.00  0.00    +0.149 HD
BRANCH  13  15
ATOM     15  C   UNL     1      -4.349 -11.090  -1.522  0.00  0.00    +0.106 C 
BRANCH  15  16
ATOM     16  C   UNL     1      -3.629 -12.412  -1.796  0.00  0.00    +0.047 C 
BRANCH  16  17
ATOM     17  C   UNL     1      -4.634 -13.441  -2.316  0.00  0.00    +0.161 C 
BRANCH  17  18
ATOM     18  O   UNL     1      -3.961 -14.676  -2.573  0.00  0.00    -0.383 OA
ATOM     19  C   UNL     1      -4.814 -15.711  -3.065  0.00  0.00    +0.193 C 
ENDBRANCH  17  18
ENDBRANCH  16  17
ENDBRANCH  15  16
ENDBRANCH  13  15
ENDBRANCH   4   7
BRANCH   1  24
ATOM     20  C   UNL     1       0.246   1.505   0.134  0.00  0.00    +0.025 C 
ATOM     21  C   UNL     1       0.001   0.001  -0.000  0.00  0.00    +0.091 C 
ATOM     22  C   UNL     1      -1.506  -0.278   0.019  0.00  0.00    +0.181 C 
ATOM     23  O   UNL     1      -1.718  -1.693   0.027  0.00  0.00    -0.344 OA
ATOM     24  C   UNL     1      -1.103  -2.361   1.131  0.00  0.00    +0.318 C 
ATOM     25  O   UNL     1       0.306  -2.119   1.109  0.00  0.00    -0.344 OA
ATOM     26  C   UNL     1       0.655  -0.733   1.175  0.00  0.00    +0.181 C 
BRANCH  21  27
ATOM     27  C   UNL     1       0.591  -0.494  -1.296  0.00  0.00    +0.226 C 
ATOM     28  O   UNL     1      -0.095  -1.124  -2.073  0.00  0.00    -0.275 OA
ATOM     29  N   UNL     1       1.880  -0.236  -1.591  0.00  0.00    -0.297 N 
ATOM     30  C   UNL     1       2.764   0.421  -0.614  0.00  0.00    +0.136 C 
ATOM     31  C   UNL     1       4.047  -0.409  -0.489  0.00  0.00    +0.179 C 
ATOM     32  O   UNL     1       4.593  -0.630  -1.791  0.00  0.00    -0.377 OA
ATOM     33  C   UNL     1       3.745  -1.382  -2.662  0.00  0.00    +0.179 C 
ATOM     34  C   UNL     1       2.448  -0.608  -2.897  0.00  0.00    +0.136 C 
ENDBRANCH  21  27
ENDBRANCH   1  24
BRANCH   5  35
ATOM     35  C   UNL     1      -0.590  -7.364   1.515  0.00  0.00    +0.001 A 
ATOM     36  C   UNL     1      -1.429  -8.342   2.055  0.00  0.00    +0.013 A 
ATOM     37  C   UNL     1      -0.927  -9.593   2.345  0.00  0.00    +0.039 A 
ATOM     38  C   UNL     1       0.407  -9.882   2.101  0.00  0.00    +0.123 A 
ATOM     39  C   UNL     1       1.243  -8.915   1.565  0.00  0.00    +0.039 A 
ATOM     40  C   UNL     1       0.751  -7.662   1.266  0.00  0.00    +0.013 A 
ATOM     41  F   UNL     1       0.893 -11.109   2.387  0.00  0.00    -0.205 F 
ENDBRANCH   5  35
TORSDOF 8
