REMARK  Name = CHEMBL314278
REMARK  7 active torsions:
REMARK  status: ('A' for Active; 'I' for Inactive)
REMARK    1  A    between atoms: C_1  and  C_2
REMARK    2  A    between atoms: C_2  and  C_3
REMARK    3  A    between atoms: C_2  and  C_4
REMARK    4  A    between atoms: C_2  and  C_5
REMARK    5  A    between atoms: C_7  and  N_16
REMARK    6  A    between atoms: N_8  and  C_10
REMARK    7  A    between atoms: N_19  and  C_20
REMARK                            x       y       z     vdW  Elec       q    Type
REMARK                         _______ _______ _______ _____ _____    ______ ____
ROOT
ATOM      1  C   UNL     1       0.707  -0.488  -1.239  0.00  0.00    +0.071 A 
ATOM      2  C   UNL     1       2.088  -0.467  -1.454  0.00  0.00    +0.069 A 
ATOM      3  C   UNL     1       2.328  -0.997  -2.685  0.00  0.00    +0.130 A 
ATOM      4  N   UNL     1       1.125  -1.339  -3.223  0.00  0.00    -0.218 N 
ATOM      5  N   UNL     1       0.131  -1.013  -2.290  0.00  0.00    -0.169 NA
ENDROOT
BRANCH   4   6
ATOM      6  C   UNL     1       0.918  -1.918  -4.479  0.00  0.00    +0.070 A 
ATOM      7  C   UNL     1       1.729  -1.584  -5.562  0.00  0.00    +0.047 A 
ATOM      8  C   UNL     1       1.493  -2.178  -6.785  0.00  0.00    +0.113 A 
ATOM      9  N   UNL     1       0.514  -3.050  -6.935  0.00  0.00    -0.263 NA
ATOM     10  C   UNL     1      -0.275  -3.392  -5.935  0.00  0.00    +0.113 A 
ATOM     11  C   UNL     1      -0.101  -2.847  -4.679  0.00  0.00    +0.047 A 
ENDBRANCH   4   6
BRANCH   3  12
ATOM     12  N   UNL     1       3.576  -1.159  -3.285  0.00  0.00    -0.254 N 
ATOM     13  C   UNL     1       4.691  -0.774  -2.634  0.00  0.00    +0.309 C 
ATOM     14  O   UNL     1       4.610  -0.286  -1.524  0.00  0.00    -0.252 OA
ATOM     15  N   UNL     1       5.898  -0.931  -3.214  0.00  0.00    -0.269 N 
ATOM     16  H   UNL     1       3.641  -1.549  -4.171  0.00  0.00    +0.158 HD
ATOM     17  H   UNL     1       5.970  -1.381  -4.070  0.00  0.00    +0.156 HD
BRANCH  15  18
ATOM     18  C   UNL     1       7.047  -0.444  -2.581  0.00  0.00    +0.035 A 
ATOM     19  C   UNL     1       7.148  -0.481  -1.197  0.00  0.00    +0.023 A 
ATOM     20  C   UNL     1       8.283   0.000  -0.575  0.00  0.00    +0.002 A 
ATOM     21  C   UNL     1       9.319   0.519  -1.330  0.00  0.00    +0.000 A 
ATOM     22  C   UNL     1       9.222   0.558  -2.709  0.00  0.00    +0.002 A 
ATOM     23  C   UNL     1       8.091   0.073  -3.337  0.00  0.00    +0.023 A 
ENDBRANCH  15  18
ENDBRANCH   3  12
BRANCH   1  25
ATOM     24  C   UNL     1      -0.023   1.534  -0.004  0.00  0.00    +0.017 C 
ATOM     25  C   UNL     1       0.001   0.004  -0.002  0.00  0.00    +0.006 C 
ATOM     26  C   UNL     1       0.743  -0.493   1.240  0.00  0.00    +0.017 C 
ATOM     27  C   UNL     1      -1.433  -0.528   0.013  0.00  0.00    +0.017 C 
ENDBRANCH   1  25
TORSDOF 4
