REMARK  Name = CHEMBL478614
REMARK  6 active torsions:
REMARK  status: ('A' for Active; 'I' for Inactive)
REMARK    1  A    between atoms: C_1  and  C_2
REMARK    2  A    between atoms: C_5  and  C_21
REMARK    3  A    between atoms: C_7  and  C_8
REMARK    4  A    between atoms: C_11  and  C_14
REMARK    5  A    between atoms: N_16  and  C_17
REMARK    6  A    between atoms: C_17  and  C_18
REMARK                            x       y       z     vdW  Elec       q    Type
REMARK                         _______ _______ _______ _____ _____    ______ ____
ROOT
ATOM      1  C   UNL     1      -0.018   1.503   0.010  0.00  0.00    +0.044 C 
ATOM      2  C   UNL     1       0.002  -0.004   0.002  0.00  0.00    -0.043 A 
ATOM      3  C   UNL     1       0.006  -0.686  -1.199  0.00  0.00    +0.005 A 
ATOM      4  C   UNL     1       0.024  -2.067  -1.216  0.00  0.00    +0.013 A 
ATOM      5  C   UNL     1       0.040  -2.781  -0.016  0.00  0.00    +0.038 A 
ATOM      6  C   UNL     1       0.036  -2.098   1.199  0.00  0.00    +0.021 A 
ATOM      7  C   UNL     1       0.023  -0.706   1.207  0.00  0.00    -0.014 A 
ENDROOT
BRANCH   5   8
ATOM      8  C   UNL     1       0.059  -4.259  -0.034  0.00  0.00    +0.250 C 
ATOM      9  O   UNL     1       0.073  -4.880   1.011  0.00  0.00    -0.270 OA
ATOM     10  N   UNL     1       0.062  -4.919  -1.209  0.00  0.00    -0.261 N 
ATOM     11  C   UNL     1       0.081  -6.308  -1.226  0.00  0.00    +0.165 A 
ATOM     12  N   UNL     1       0.091  -7.138  -0.206  0.00  0.00    -0.233 NA
ATOM     13  C   UNL     1       0.108  -8.445  -0.390  0.00  0.00    +0.120 A 
ATOM     14  C   UNL     1       0.115  -8.887  -1.671  0.00  0.00    +0.068 A 
ATOM     15  S   UNL     1       0.088  -7.337  -2.558  0.00  0.00    -0.061 S 
ATOM     16  H   UNL     1       0.051  -4.424  -2.043  0.00  0.00    +0.157 HD
ENDBRANCH   5   8
BRANCH   7  17
ATOM     17  C   UNL     1       0.025   0.029   2.495  0.00  0.00    -0.018 A 
ATOM     18  C   UNL     1       0.935   1.065   2.704  0.00  0.00    +0.009 A 
ATOM     19  C   UNL     1       0.939   1.748   3.900  0.00  0.00    +0.013 A 
ATOM     20  C   UNL     1       0.030   1.403   4.903  0.00  0.00    +0.037 A 
ATOM     21  C   UNL     1      -0.881   0.365   4.692  0.00  0.00    +0.013 A 
ATOM     22  C   UNL     1      -0.886  -0.312   3.494  0.00  0.00    +0.009 A 
BRANCH  20  23
ATOM     23  C   UNL     1       0.033   2.135   6.186  0.00  0.00    +0.244 C 
ATOM     24  O   UNL     1       0.826   3.038   6.370  0.00  0.00    -0.270 OA
ATOM     25  N   UNL     1      -0.844   1.802   7.154  0.00  0.00    -0.311 N 
ATOM     26  H   UNL     1      -1.477   1.081   7.008  0.00  0.00    +0.149 HD
BRANCH  25  27
ATOM     27  C   UNL     1      -0.841   2.527   8.427  0.00  0.00    +0.108 C 
BRANCH  27  28
ATOM     28  C   UNL     1      -1.926   1.956   9.342  0.00  0.00    +0.006 C 
ATOM     29  C   UNL     1      -3.075   2.884   9.741  0.00  0.00    +0.005 C 
ATOM     30  C   UNL     1      -2.007   2.503  10.769  0.00  0.00    +0.005 C 
ENDBRANCH  27  28
ENDBRANCH  25  27
ENDBRANCH  20  23
ENDBRANCH   7  17
TORSDOF 5
