REMARK  Name = CHEMBL92814
REMARK  9 active torsions:
REMARK  status: ('A' for Active; 'I' for Inactive)
REMARK    1  A    between atoms: C_1  and  N_2
REMARK    2  A    between atoms: N_2  and  C_3
REMARK    3  A    between atoms: N_2  and  C_4
REMARK    4  A    between atoms: C_4  and  C_5
REMARK    5  A    between atoms: C_5  and  N_6
REMARK    6  A    between atoms: N_9  and  C_12
REMARK    7  A    between atoms: C_17  and  S_18
REMARK    8  A    between atoms: S_18  and  C_19
REMARK    9  A    between atoms: N_31  and  C_32
REMARK                            x       y       z     vdW  Elec       q    Type
REMARK                         _______ _______ _______ _____ _____    ______ ____
ROOT
ATOM      1  C   UNL     1      -6.692  -2.522  -3.029  0.00  0.00    +0.064 A 
ATOM      2  C   UNL     1      -8.031  -2.676  -2.695  0.00  0.00    +0.051 A 
ATOM      3  C   UNL     1      -8.860  -3.351  -3.587  0.00  0.00    +0.067 A 
ATOM      4  C   UNL     1      -8.321  -3.842  -4.770  0.00  0.00    +0.081 A 
ATOM      5  N   UNL     1      -7.047  -3.681  -5.059  0.00  0.00    -0.240 NA
ATOM      6  C   UNL     1      -6.227  -3.039  -4.241  0.00  0.00    +0.123 A 
ATOM      7  C   UNL     1      -9.249  -4.570  -5.718  0.00  0.00    +0.163 C 
ATOM      8  N   UNL     1     -10.657  -4.701  -5.306  0.00  0.00    -0.293 N 
ATOM      9  C   UNL     1     -11.050  -4.178  -4.131  0.00  0.00    +0.311 C 
ATOM     10  O   UNL     1     -12.216  -4.294  -3.805  0.00  0.00    -0.252 OA
ATOM     11  N   UNL     1     -10.215  -3.536  -3.304  0.00  0.00    -0.220 N 
ATOM     12  H   UNL     1     -11.294  -5.158  -5.877  0.00  0.00    +0.151 HD
ENDROOT
BRANCH  11  13
ATOM     13  C   UNL     1     -10.723  -3.028  -2.101  0.00  0.00    +0.079 A 
ATOM     14  C   UNL     1     -10.714  -3.812  -0.954  0.00  0.00    +0.064 A 
ATOM     15  C   UNL     1     -11.215  -3.307   0.231  0.00  0.00    +0.022 A 
ATOM     16  C   UNL     1     -11.726  -2.023   0.276  0.00  0.00    +0.003 A 
ATOM     17  C   UNL     1     -11.737  -1.240  -0.864  0.00  0.00    +0.022 A 
ATOM     18  C   UNL     1     -11.232  -1.736  -2.051  0.00  0.00    +0.064 A 
ATOM     19 CL   UNL     1     -11.240  -0.749  -3.479  0.00  0.00    -0.082 Cl
ATOM     20 CL   UNL     1     -10.073  -5.425  -1.010  0.00  0.00    -0.082 Cl
ENDBRANCH  11  13
BRANCH   1  24
ATOM     21  N   UNL     1      -3.450  -0.750  -1.195  0.00  0.00    -0.301 NA
ATOM     22  C   UNL     1      -3.592  -2.212  -1.241  0.00  0.00    +0.103 C 
ATOM     23  C   UNL     1      -5.075  -2.581  -1.127  0.00  0.00    +0.120 C 
ATOM     24  N   UNL     1      -5.819  -1.851  -2.164  0.00  0.00    -0.325 N 
ATOM     25  C   UNL     1      -5.622  -0.397  -2.270  0.00  0.00    +0.120 C 
ATOM     26  C   UNL     1      -4.117  -0.114  -2.338  0.00  0.00    +0.103 C 
BRANCH  21  27
ATOM     27  C   UNL     1      -2.035  -0.361  -1.128  0.00  0.00    +0.066 C 
BRANCH  27  28
ATOM     28  C   UNL     1      -1.438  -0.834   0.199  0.00  0.00    -0.064 C 
BRANCH  28  30
ATOM     29  C   UNL     1       0.081   1.020   0.292  0.00  0.00    -0.097 C 
ATOM     30  N   UNL     1      -0.023  -0.445   0.265  0.00  0.00    +0.377 N 
ATOM     31  C   UNL     1       0.581  -1.001   1.483  0.00  0.00    -0.097 C 
ATOM     32  H   UNL     1       0.463  -0.801  -0.544  0.00  0.00    -0.083 HD
ENDBRANCH  28  30
ENDBRANCH  27  28
ENDBRANCH  21  27
ENDBRANCH   1  24
BRANCH   6  33
ATOM     33  S   UNL     1      -4.532  -2.844  -4.680  0.00  0.00    -0.065 S 
BRANCH  33  34
ATOM     34  C   UNL     1      -4.371  -3.763  -6.175  0.00  0.00    +0.050 A 
ATOM     35  C   UNL     1      -4.289  -3.101  -7.393  0.00  0.00    +0.021 A 
ATOM     36  C   UNL     1      -4.162  -3.824  -8.564  0.00  0.00    +0.039 A 
ATOM     37  C   UNL     1      -4.117  -5.207  -8.524  0.00  0.00    +0.126 A 
ATOM     38  C   UNL     1      -4.199  -5.871  -7.312  0.00  0.00    +0.077 A 
ATOM     39  C   UNL     1      -4.320  -5.153  -6.136  0.00  0.00    +0.140 A 
ATOM     40  F   UNL     1      -4.394  -5.800  -4.953  0.00  0.00    -0.204 F 
ATOM     41  F   UNL     1      -3.994  -5.911  -9.671  0.00  0.00    -0.205 F 
ENDBRANCH  33  34
ENDBRANCH   6  33
TORSDOF 7
