REMARK  Name = CHEMBL1209637
REMARK  11 active torsions:
REMARK  status: ('A' for Active; 'I' for Inactive)
REMARK    1  A    between atoms: C_1  and  C_2
REMARK    2  A    between atoms: C_2  and  C_3
REMARK    3  A    between atoms: C_2  and  C_4
REMARK    4  A    between atoms: C_2  and  C_5
REMARK    5  A    between atoms: C_7  and  N_27
REMARK    6  A    between atoms: N_8  and  C_10
REMARK    7  A    between atoms: C_14  and  C_16
REMARK    8  A    between atoms: C_16  and  N_17
REMARK    9  A    between atoms: C_18  and  C_20
REMARK   10  A    between atoms: C_22  and  C_24
REMARK   11  A    between atoms: N_30  and  C_31
REMARK                            x       y       z     vdW  Elec       q    Type
REMARK                         _______ _______ _______ _____ _____    ______ ____
ROOT
ATOM      1  C   UNL     1       0.707  -0.488  -1.239  0.00  0.00    +0.071 A 
ATOM      2  C   UNL     1       2.088  -0.468  -1.454  0.00  0.00    +0.069 A 
ATOM      3  C   UNL     1       2.327  -0.998  -2.685  0.00  0.00    +0.130 A 
ATOM      4  N   UNL     1       1.125  -1.340  -3.222  0.00  0.00    -0.218 N 
ATOM      5  N   UNL     1       0.131  -1.013  -2.291  0.00  0.00    -0.169 NA
ENDROOT
BRANCH   4   6
ATOM      6  C   UNL     1       0.918  -1.921  -4.481  0.00  0.00    +0.068 A 
ATOM      7  C   UNL     1       1.736  -1.577  -5.549  0.00  0.00    +0.028 A 
ATOM      8  C   UNL     1       1.530  -2.151  -6.788  0.00  0.00    +0.002 A 
ATOM      9  C   UNL     1       0.510  -3.067  -6.966  0.00  0.00    +0.005 A 
ATOM     10  C   UNL     1      -0.307  -3.412  -5.905  0.00  0.00    -0.028 A 
ATOM     11  C   UNL     1      -0.102  -2.845  -4.662  0.00  0.00    +0.033 A 
BRANCH  10  12
ATOM     12  C   UNL     1      -1.417  -4.411  -6.103  0.00  0.00    +0.139 C 
BRANCH  12  13
ATOM     13  N   UNL     1      -0.914  -5.760  -5.836  0.00  0.00    -0.311 N 
ATOM     14  C   UNL     1      -1.736  -6.822  -5.951  0.00  0.00    +0.217 C 
ATOM     15  O   UNL     1      -2.893  -6.660  -6.276  0.00  0.00    -0.275 OA
ATOM     16  H   UNL     1       0.012  -5.890  -5.576  0.00  0.00    +0.149 HD
BRANCH  14  17
ATOM     17  C   UNL     1      -1.218  -8.210  -5.676  0.00  0.00    +0.090 C 
ATOM     18  C   UNL     1      -1.098  -9.167  -6.863  0.00  0.00    +0.029 C 
ATOM     19  C   UNL     1      -2.201  -9.373  -5.824  0.00  0.00    +0.115 C 
BRANCH  19  20
ATOM     20  C   UNL     1      -2.054 -10.534  -4.874  0.00  0.00    +0.360 C 
ATOM     21  O   UNL     1      -3.046 -11.069  -4.408  0.00  0.00    -0.246 OA
ATOM     22  O   UNL     1      -0.944 -10.937  -4.571  0.00  0.00    -0.246 OA
ENDBRANCH  19  20
ENDBRANCH  14  17
ENDBRANCH  12  13
ENDBRANCH  10  12
ENDBRANCH   4   6
BRANCH   3  23
ATOM     23  N   UNL     1       3.576  -1.160  -3.285  0.00  0.00    -0.254 N 
ATOM     24  C   UNL     1       4.691  -0.774  -2.635  0.00  0.00    +0.309 C 
ATOM     25  O   UNL     1       4.609  -0.285  -1.525  0.00  0.00    -0.252 OA
ATOM     26  N   UNL     1       5.898  -0.931  -3.215  0.00  0.00    -0.269 N 
ATOM     27  H   UNL     1       3.641  -1.550  -4.171  0.00  0.00    +0.158 HD
ATOM     28  H   UNL     1       5.969  -1.382  -4.071  0.00  0.00    +0.156 HD
BRANCH  26  29
ATOM     29  C   UNL     1       7.047  -0.443  -2.583  0.00  0.00    +0.035 A 
ATOM     30  C   UNL     1       7.148  -0.480  -1.198  0.00  0.00    +0.023 A 
ATOM     31  C   UNL     1       8.284   0.002  -0.577  0.00  0.00    +0.002 A 
ATOM     32  C   UNL     1       9.319   0.521  -1.333  0.00  0.00    +0.000 A 
ATOM     33  C   UNL     1       9.221   0.559  -2.711  0.00  0.00    +0.002 A 
ATOM     34  C   UNL     1       8.091   0.074  -3.339  0.00  0.00    +0.023 A 
ENDBRANCH  26  29
ENDBRANCH   3  23
BRANCH   1  36
ATOM     35  C   UNL     1      -0.023   1.534  -0.004  0.00  0.00    +0.017 C 
ATOM     36  C   UNL     1       0.001   0.004  -0.002  0.00  0.00    +0.006 C 
ATOM     37  C   UNL     1       0.743  -0.493   1.240  0.00  0.00    +0.017 C 
ATOM     38  C   UNL     1      -1.433  -0.528   0.013  0.00  0.00    +0.017 C 
ENDBRANCH   1  36
TORSDOF 8
