REMARK  Name = CHEMBL427233
REMARK  5 active torsions:
REMARK  status: ('A' for Active; 'I' for Inactive)
REMARK    1  A    between atoms: C_1  and  C_2
REMARK    2  A    between atoms: C_5  and  C_20
REMARK    3  A    between atoms: C_7  and  C_8
REMARK    4  A    between atoms: N_18  and  C_19
REMARK    5  A    between atoms: N_22  and  C_23
REMARK                            x       y       z     vdW  Elec       q    Type
REMARK                         _______ _______ _______ _____ _____    ______ ____
ROOT
ATOM      1  C   UNL     1       0.031   1.504   0.009  0.00  0.00    +0.044 C 
ATOM      2  C   UNL     1       0.040  -0.004   0.001  0.00  0.00    -0.043 A 
ATOM      3  C   UNL     1       0.040  -0.686  -1.200  0.00  0.00    +0.005 A 
ATOM      4  C   UNL     1       0.048  -2.066  -1.216  0.00  0.00    +0.013 A 
ATOM      5  C   UNL     1       0.054  -2.781  -0.016  0.00  0.00    +0.038 A 
ATOM      6  C   UNL     1       0.054  -2.096   1.198  0.00  0.00    +0.021 A 
ATOM      7  C   UNL     1       0.052  -0.705   1.206  0.00  0.00    -0.014 A 
ENDROOT
BRANCH   7   8
ATOM      8  C   UNL     1       0.059   0.031   2.494  0.00  0.00    -0.017 A 
ATOM      9  C   UNL     1       0.985   1.065   2.701  0.00  0.00    +0.010 A 
ATOM     10  C   UNL     1       1.012   1.756   3.871  0.00  0.00    +0.029 A 
ATOM     11  C   UNL     1       0.105   1.437   4.894  0.00  0.00    +0.076 A 
ATOM     12  C   UNL     1      -0.836   0.393   4.695  0.00  0.00    +0.019 A 
ATOM     13  C   UNL     1      -0.852  -0.304   3.480  0.00  0.00    +0.020 A 
ATOM     14  C   UNL     1      -1.735   0.094   5.736  0.00  0.00    +0.124 A 
ATOM     15  N   UNL     1      -1.663   0.796   6.848  0.00  0.00    -0.222 NA
ATOM     16  C   UNL     1      -0.767   1.770   7.000  0.00  0.00    +0.215 A 
ATOM     17  N   UNL     1       0.099   2.093   6.060  0.00  0.00    -0.215 NA
ATOM     18  N   UNL     1      -0.744   2.469   8.193  0.00  0.00    -0.317 N 
ATOM     19  C   UNL     1      -1.693   2.134   9.258  0.00  0.00    +0.128 C 
ATOM     20  H   UNL     1      -0.100   3.182   8.325  0.00  0.00    +0.149 HD
ENDBRANCH   7   8
BRANCH   5  21
ATOM     21  C   UNL     1       0.061  -4.259  -0.034  0.00  0.00    +0.248 C 
ATOM     22  O   UNL     1       0.067  -4.879   1.012  0.00  0.00    -0.270 OA
ATOM     23  N   UNL     1       0.061  -4.919  -1.209  0.00  0.00    -0.281 N 
ATOM     24  H   UNL     1      -0.024  -4.428  -2.041  0.00  0.00    +0.155 HD
BRANCH  23  25
ATOM     25  C   UNL     1       0.185  -6.312  -1.228  0.00  0.00    +0.037 A 
ATOM     26  C   UNL     1       0.804  -6.968  -0.174  0.00  0.00    +0.023 A 
ATOM     27  C   UNL     1       0.924  -8.343  -0.196  0.00  0.00    +0.002 A 
ATOM     28  C   UNL     1       0.428  -9.064  -1.265  0.00  0.00    +0.004 A 
ATOM     29  C   UNL     1      -0.190  -8.414  -2.321  0.00  0.00    -0.042 A 
ATOM     30  C   UNL     1      -0.319  -7.039  -2.302  0.00  0.00    -0.023 A 
ATOM     31  C   UNL     1      -1.030  -6.574  -3.554  0.00  0.00    +0.037 C 
ATOM     32  C   UNL     1      -0.940  -7.762  -4.535  0.00  0.00    +0.009 C 
ATOM     33  C   UNL     1      -0.805  -8.968  -3.588  0.00  0.00    +0.036 C 
ENDBRANCH  23  25
ENDBRANCH   5  21
TORSDOF 3
