REMARK  Name = CHEMBL381457
REMARK  9 active torsions:
REMARK  status: ('A' for Active; 'I' for Inactive)
REMARK    1  A    between atoms: C_1  and  N_2
REMARK    2  A    between atoms: N_5  and  C_8
REMARK    3  A    between atoms: C_8  and  C_9
REMARK    4  A    between atoms: C_9  and  C_10
REMARK    5  A    between atoms: C_10  and  C_11
REMARK    6  A    between atoms: C_14  and  O_36
REMARK    7  A    between atoms: C_15  and  C_17
REMARK    8  A    between atoms: N_27  and  C_28
REMARK    9  A    between atoms: O_36  and  C_37
REMARK                            x       y       z     vdW  Elec       q    Type
REMARK                         _______ _______ _______ _____ _____    ______ ____
ROOT
ATOM      1  C   UNL     1      -1.510  -7.753   6.904  0.00  0.00    +0.107 A 
ATOM      2  C   UNL     1      -2.360  -6.716   7.494  0.00  0.00    +0.065 A 
ATOM      3  C   UNL     1      -2.744  -5.428   7.122  0.00  0.00    +0.128 A 
ATOM      4  N   UNL     1      -3.550  -4.753   7.921  0.00  0.00    -0.222 NA
ATOM      5  C   UNL     1      -3.992  -5.280   9.058  0.00  0.00    +0.221 A 
ATOM      6  N   UNL     1      -3.655  -6.497   9.452  0.00  0.00    -0.195 NA
ATOM      7  C   UNL     1      -2.848  -7.246   8.708  0.00  0.00    +0.161 A 
ATOM      8  N   UNL     1      -2.327  -8.501   8.828  0.00  0.00    -0.259 N 
ATOM      9  N   UNL     1      -1.525  -8.782   7.717  0.00  0.00    -0.171 NA
ATOM     10  H   UNL     1      -2.491  -9.106   9.568  0.00  0.00    +0.191 HD
ATOM     11  N   UNL     1      -4.836  -4.529   9.859  0.00  0.00    -0.281 N 
ATOM     12  H   UNL     1      -5.097  -4.860  10.733  0.00  0.00    +0.155 HD
ENDROOT
BRANCH  11  13
ATOM     13  C   UNL     1      -5.312  -3.292   9.407  0.00  0.00    +0.069 A 
ATOM     14  C   UNL     1      -5.376  -3.026   8.046  0.00  0.00    +0.029 A 
ATOM     15  C   UNL     1      -5.846  -1.805   7.603  0.00  0.00    +0.040 A 
ATOM     16  C   UNL     1      -6.254  -0.846   8.514  0.00  0.00    +0.126 A 
ATOM     17  C   UNL     1      -6.192  -1.107   9.873  0.00  0.00    +0.078 A 
ATOM     18  C   UNL     1      -5.728  -2.330  10.321  0.00  0.00    +0.147 A 
ATOM     19  F   UNL     1      -5.672  -2.587  11.646  0.00  0.00    -0.203 F 
ATOM     20  F   UNL     1      -6.713   0.348   8.077  0.00  0.00    -0.205 F 
ENDBRANCH  11  13
BRANCH   1  25
ATOM     21  C   UNL     1      -0.710  -7.054   3.299  0.00  0.00    -0.046 A 
ATOM     22  C   UNL     1       0.603  -7.485   3.222  0.00  0.00    +0.007 A 
ATOM     23  C   UNL     1       1.234  -8.004   4.337  0.00  0.00    +0.046 A 
ATOM     24  C   UNL     1       0.553  -8.095   5.540  0.00  0.00    +0.129 A 
ATOM     25  C   UNL     1      -0.773  -7.660   5.622  0.00  0.00    +0.045 A 
ATOM     26  C   UNL     1      -1.398  -7.133   4.492  0.00  0.00    +0.017 A 
BRANCH  24  27
ATOM     27  O   UNL     1       1.172  -8.605   6.636  0.00  0.00    -0.494 OA
ATOM     28  C   UNL     1       2.527  -9.030   6.478  0.00  0.00    +0.277 C 
ENDBRANCH  24  27
BRANCH  21  29
ATOM     29  C   UNL     1      -1.388  -6.490   2.077  0.00  0.00    +0.036 C 
BRANCH  29  30
ATOM     30  C   UNL     1      -1.157  -4.979   2.017  0.00  0.00    +0.020 C 
BRANCH  30  31
ATOM     31  C   UNL     1      -1.845  -4.406   0.777  0.00  0.00    +0.084 C 
BRANCH  31  36
ATOM     32  C   UNL     1      -0.622   0.929  -0.560  0.00  0.00    -0.096 C 
ATOM     33  N   UNL     1      -0.826  -0.526  -0.554  0.00  0.00    +0.379 N 
ATOM     34  C   UNL     1      -2.243  -0.820  -0.305  0.00  0.00    -0.064 C 
ATOM     35  C   UNL     1      -2.459  -2.335  -0.318  0.00  0.00    +0.066 C 
ATOM     36  N   UNL     1      -1.623  -2.955   0.719  0.00  0.00    -0.306 NA
ATOM     37  C   UNL     1      -0.203  -2.648   0.497  0.00  0.00    +0.066 C 
ATOM     38  C   UNL     1      -0.005  -1.131   0.503  0.00  0.00    -0.064 C 
ATOM     39  H   UNL     1      -0.555  -0.906  -1.449  0.00  0.00    -0.082 HD
ENDBRANCH  31  36
ENDBRANCH  30  31
ENDBRANCH  29  30
ENDBRANCH  21  29
ENDBRANCH   1  25
TORSDOF 7
