REMARK  Name = CHEMBL494871
REMARK  5 active torsions:
REMARK  status: ('A' for Active; 'I' for Inactive)
REMARK    1  A    between atoms: C_1  and  S_2
REMARK    2  A    between atoms: S_2  and  C_3
REMARK    3  A    between atoms: C_6  and  C_16
REMARK    4  A    between atoms: C_7  and  C_9
REMARK    5  A    between atoms: N_22  and  C_23
REMARK                            x       y       z     vdW  Elec       q    Type
REMARK                         _______ _______ _______ _____ _____    ______ ____
ROOT
ATOM      1  C   UNL     1       2.771  -0.834  -4.236  0.00  0.00    +0.007 A 
ATOM      2  C   UNL     1       2.795  -1.683  -5.351  0.00  0.00    +0.027 A 
ATOM      3  C   UNL     1       3.923  -2.431  -5.601  0.00  0.00    +0.085 A 
ATOM      4  N   UNL     1       4.977  -2.358  -4.808  0.00  0.00    -0.350 N 
ATOM      5  C   UNL     1       5.000  -1.571  -3.743  0.00  0.00    +0.097 A 
ATOM      6  C   UNL     1       3.906  -0.779  -3.423  0.00  0.00    +0.051 A 
ATOM      7  N   UNL     1       6.135  -1.532  -2.941  0.00  0.00    -0.324 N 
ATOM      8  H   UNL     1       6.904  -2.080  -3.162  0.00  0.00    +0.148 HD
ATOM      9  H   UNL     1       5.757  -2.898  -5.011  0.00  0.00    +0.166 HD
ENDROOT
BRANCH   7  10
ATOM     10  C   UNL     1       6.169  -0.664  -1.761  0.00  0.00    +0.102 C 
ATOM     11  C   UNL     1       7.629  -0.356  -1.365  0.00  0.00    +0.032 C 
ATOM     12  C   UNL     1       7.934  -1.465  -0.336  0.00  0.00    +0.037 C 
ATOM     13  C   UNL     1       6.591  -1.839   0.254  0.00  0.00    -0.042 A 
ATOM     14  C   UNL     1       5.576  -1.379  -0.566  0.00  0.00    -0.024 A 
ATOM     15  C   UNL     1       4.255  -1.609  -0.222  0.00  0.00    +0.006 A 
ATOM     16  C   UNL     1       3.947  -2.296   0.937  0.00  0.00    +0.000 A 
ATOM     17  C   UNL     1       4.961  -2.756   1.756  0.00  0.00    +0.000 A 
ATOM     18  C   UNL     1       6.280  -2.528   1.414  0.00  0.00    +0.004 A 
ENDBRANCH   7  10
BRANCH   1  22
ATOM     19  C   UNL     1       0.045   1.043  -2.809  0.00  0.00    +0.167 A 
ATOM     20  N   UNL     1       1.122   0.302  -2.701  0.00  0.00    -0.221 NA
ATOM     21  H   UNL     1      -0.984   1.737  -4.490  0.00  0.00    +0.168 HD
ATOM     22  C   UNL     1       1.578  -0.013  -3.931  0.00  0.00    +0.098 A 
ATOM     23  C   UNL     1       0.731   0.568  -4.854  0.00  0.00    +0.075 A 
ATOM     24  N   UNL     1      -0.240   1.230  -4.128  0.00  0.00    -0.332 N 
BRANCH  23  25
ATOM     25  C   UNL     1       0.838   0.492  -6.324  0.00  0.00    +0.001 A 
ATOM     26  C   UNL     1       2.076   0.672  -6.947  0.00  0.00    +0.013 A 
ATOM     27  C   UNL     1       2.170   0.599  -8.321  0.00  0.00    +0.039 A 
ATOM     28  C   UNL     1       1.040   0.348  -9.083  0.00  0.00    +0.123 A 
ATOM     29  C   UNL     1      -0.190   0.169  -8.471  0.00  0.00    +0.039 A 
ATOM     30  C   UNL     1      -0.296   0.234  -7.098  0.00  0.00    +0.013 A 
ATOM     31  F   UNL     1       1.139   0.277 -10.429  0.00  0.00    -0.205 F 
ENDBRANCH  23  25
BRANCH  19  33
ATOM     32  C   UNL     1      -0.013   1.086   0.008  0.00  0.00    +0.093 C 
ATOM     33  S   UNL     1      -0.890   1.687  -1.462  0.00  0.00    -0.091 S 
ENDBRANCH  19  33
ENDBRANCH   1  22
TORSDOF 4
