REMARK  Name = CHEMBL198872
REMARK  9 active torsions:
REMARK  status: ('A' for Active; 'I' for Inactive)
REMARK    1  A    between atoms: C_1  and  C_2
REMARK    2  A    between atoms: C_2  and  N_3
REMARK    3  A    between atoms: C_4  and  N_8
REMARK    4  A    between atoms: C_9  and  C_11
REMARK    5  A    between atoms: C_14  and  C_33
REMARK    6  A    between atoms: C_15  and  N_17
REMARK    7  A    between atoms: C_19  and  C_31
REMARK    8  A    between atoms: C_20  and  N_25
REMARK    9  A    between atoms: N_25  and  C_26
REMARK                            x       y       z     vdW  Elec       q    Type
REMARK                         _______ _______ _______ _____ _____    ______ ____
ROOT
ATOM      1  N   UNL     1      -3.446  -1.319   8.249  0.00  0.00    -0.298 N 
ATOM      2  C   UNL     1      -4.462  -2.232   8.041  0.00  0.00    +0.147 A 
ATOM      3  C   UNL     1      -5.410  -2.490   9.052  0.00  0.00    +0.131 A 
ATOM      4  C   UNL     1      -6.424  -3.432   8.783  0.00  0.00    +0.143 A 
ATOM      5  N   UNL     1      -6.445  -4.033   7.598  0.00  0.00    -0.198 NA
ATOM      6  C   UNL     1      -5.532  -3.758   6.678  0.00  0.00    +0.216 A 
ATOM      7  N   UNL     1      -4.564  -2.877   6.884  0.00  0.00    -0.198 NA
ATOM      8  N   UNL     1      -5.594  -4.408   5.462  0.00  0.00    -0.327 N 
ATOM      9  H   UNL     1      -3.329  -0.914   9.123  0.00  0.00    +0.154 HD
ATOM     10  H   UNL     1      -6.298  -5.054   5.292  0.00  0.00    +0.145 HD
ATOM     11  H   UNL     1      -4.934  -4.219   4.776  0.00  0.00    +0.145 HD
ENDROOT
BRANCH   1  16
ATOM     12  C   UNL     1      -2.146  -0.777   4.843  0.00  0.00    +0.039 A 
ATOM     13  C   UNL     1      -0.867  -0.297   5.129  0.00  0.00    +0.013 A 
ATOM     14  C   UNL     1      -0.458  -0.161   6.439  0.00  0.00    +0.006 A 
ATOM     15  C   UNL     1      -1.311  -0.499   7.473  0.00  0.00    -0.029 A 
ATOM     16  C   UNL     1      -2.587  -0.978   7.199  0.00  0.00    +0.036 A 
ATOM     17  C   UNL     1      -3.009  -1.113   5.886  0.00  0.00    +0.036 A 
ATOM     18  C   UNL     1      -0.856  -0.348   8.902  0.00  0.00    +0.045 C 
BRANCH  12  20
ATOM     19  N   UNL     1      -1.752  -0.598   2.433  0.00  0.00    -0.267 N 
ATOM     20  C   UNL     1      -2.587  -0.923   3.439  0.00  0.00    +0.249 C 
ATOM     21  O   UNL     1      -3.704  -1.337   3.193  0.00  0.00    -0.270 OA
ATOM     22  H   UNL     1      -0.861  -0.268   2.630  0.00  0.00    +0.157 HD
BRANCH  19  24
ATOM     23  N   UNL     1      -1.435  -0.447   0.004  0.00  0.00    -0.251 N 
ATOM     24  C   UNL     1      -2.167  -0.736   1.110  0.00  0.00    +0.123 A 
ATOM     25  C   UNL     1      -3.382  -1.185   0.690  0.00  0.00    +0.065 A 
ATOM     26  C   UNL     1      -3.386  -1.168  -0.707  0.00  0.00    +0.136 A 
ATOM     27  N   UNL     1      -2.226  -0.723  -1.119  0.00  0.00    -0.178 NA
BRANCH  23  29
ATOM     28  C   UNL     1      -0.090   1.596   0.005  0.00  0.00    +0.029 C 
ATOM     29  C   UNL     1      -0.062   0.066  -0.013  0.00  0.00    +0.142 C 
ENDBRANCH  23  29
ENDBRANCH  19  24
ENDBRANCH  12  20
ENDBRANCH   1  16
BRANCH   4  30
ATOM     30  N   UNL     1      -7.379  -3.725   9.736  0.00  0.00    -0.325 N 
ATOM     31  H   UNL     1      -7.356  -3.281  10.598  0.00  0.00    +0.148 HD
BRANCH  30  32
ATOM     32  C   UNL     1      -8.428  -4.705   9.444  0.00  0.00    +0.072 C 
ATOM     33  C   UNL     1      -9.628  -4.011   8.768  0.00  0.00    +0.022 C 
ATOM     34  C   UNL     1     -10.865  -4.737   9.352  0.00  0.00    +0.002 C 
ATOM     35  C   UNL     1     -10.457  -4.975  10.827  0.00  0.00    +0.002 C 
ATOM     36  C   UNL     1      -8.955  -5.319  10.753  0.00  0.00    +0.022 C 
ENDBRANCH  30  32
ENDBRANCH   4  30
BRANCH   3  37
ATOM     37  C   UNL     1      -5.345  -1.816  10.313  0.00  0.00    +0.106 C 
ATOM     38  N   UNL     1      -5.294  -1.282  11.315  0.00  0.00    -0.191 NA
ENDBRANCH   3  37
TORSDOF 7
