REMARK  Name = CHEMBL470483
REMARK  6 active torsions:
REMARK  status: ('A' for Active; 'I' for Inactive)
REMARK    1  A    between atoms: C_1  and  C_2
REMARK    2  A    between atoms: C_5  and  C_18
REMARK    3  A    between atoms: C_7  and  C_8
REMARK    4  A    between atoms: N_10  and  C_11
REMARK    5  A    between atoms: N_20  and  C_21
REMARK    6  A    between atoms: C_25  and  C_27
REMARK                            x       y       z     vdW  Elec       q    Type
REMARK                         _______ _______ _______ _____ _____    ______ ____
ROOT
ATOM      1  C   UNL     1       0.017   1.671  -0.075  0.00  0.00    +0.044 C 
ATOM      2  C   UNL     1      -0.002   0.164  -0.090  0.00  0.00    -0.038 A 
ATOM      3  C   UNL     1      -0.111  -0.511  -1.289  0.00  0.00    +0.005 A 
ATOM      4  C   UNL     1      -0.129  -1.892  -1.312  0.00  0.00    +0.013 A 
ATOM      5  C   UNL     1      -0.038  -2.615  -0.120  0.00  0.00    +0.038 A 
ATOM      6  C   UNL     1       0.072  -1.939   1.094  0.00  0.00    +0.026 A 
ATOM      7  C   UNL     1       0.096  -0.546   1.109  0.00  0.00    +0.041 A 
ENDROOT
BRANCH   7   8
ATOM      8  C   UNL     1       0.218   0.179   2.392  0.00  0.00    +0.249 C 
ATOM      9  O   UNL     1       0.160   1.393   2.412  0.00  0.00    -0.270 OA
ATOM     10  N   UNL     1       0.394  -0.506   3.539  0.00  0.00    -0.280 N 
ATOM     11  H   UNL     1       0.518  -1.468   3.515  0.00  0.00    +0.155 HD
BRANCH  10  12
ATOM     12  C   UNL     1       0.397   0.170   4.766  0.00  0.00    +0.052 A 
ATOM     13  C   UNL     1      -0.303   1.368   4.913  0.00  0.00    +0.028 A 
ATOM     14  C   UNL     1      -0.272   2.001   6.141  0.00  0.00    +0.045 A 
ATOM     15  C   UNL     1       0.451   1.428   7.182  0.00  0.00    +0.116 A 
ATOM     16  N   UNL     1       1.103   0.290   7.006  0.00  0.00    -0.239 NA
ATOM     17  C   UNL     1       1.091  -0.345   5.849  0.00  0.00    +0.136 A 
ATOM     18  N   UNL     1       0.488   2.058   8.423  0.00  0.00    -0.343 N 
ATOM     19  H   UNL     1       0.012   2.893   8.558  0.00  0.00    +0.144 HD
ATOM     20  H   UNL     1       0.991   1.663   9.153  0.00  0.00    +0.144 HD
ENDBRANCH  10  12
ENDBRANCH   7   8
BRANCH   5  21
ATOM     21  C   UNL     1      -0.058  -4.092  -0.146  0.00  0.00    +0.248 C 
ATOM     22  O   UNL     1       0.021  -4.720   0.892  0.00  0.00    -0.270 OA
ATOM     23  N   UNL     1      -0.165  -4.744  -1.321  0.00  0.00    -0.281 N 
ATOM     24  H   UNL     1      -0.149  -4.248  -2.154  0.00  0.00    +0.155 HD
BRANCH  23  25
ATOM     25  C   UNL     1      -0.298  -6.136  -1.339  0.00  0.00    +0.034 A 
ATOM     26  C   UNL     1       0.281  -6.878  -2.361  0.00  0.00    +0.023 A 
ATOM     27  C   UNL     1       0.148  -8.252  -2.375  0.00  0.00    +0.002 A 
ATOM     28  C   UNL     1      -0.561  -8.890  -1.374  0.00  0.00    +0.012 A 
ATOM     29  C   UNL     1      -1.138  -8.155  -0.355  0.00  0.00    +0.057 A 
ATOM     30  C   UNL     1      -1.004  -6.781  -0.332  0.00  0.00    +0.035 A 
BRANCH  29  31
ATOM     31  C   UNL     1      -1.910  -8.855   0.734  0.00  0.00    +0.417 C 
ATOM     32  F   UNL     1      -1.902 -10.234   0.498  0.00  0.00    -0.166 F 
ATOM     33  F   UNL     1      -1.315  -8.590   1.972  0.00  0.00    -0.166 F 
ATOM     34  F   UNL     1      -3.230  -8.391   0.742  0.00  0.00    -0.166 F 
ENDBRANCH  29  31
ENDBRANCH  23  25
ENDBRANCH   5  21
TORSDOF 5
