REMARK  Name = CHEMBL94556
REMARK  5 active torsions:
REMARK  status: ('A' for Active; 'I' for Inactive)
REMARK    1  A    between atoms: C_1  and  O_2
REMARK    2  A    between atoms: O_2  and  C_3
REMARK    3  A    between atoms: C_3  and  C_5
REMARK    4  A    between atoms: C_7  and  C_24
REMARK    5  A    between atoms: N_11  and  C_16
REMARK                            x       y       z     vdW  Elec       q    Type
REMARK                         _______ _______ _______ _____ _____    ______ ____
ROOT
ATOM      1  C   UNL     1       0.680  -2.088   1.091  0.00  0.00    +0.061 A 
ATOM      2  C   UNL     1       0.100  -2.849   0.075  0.00  0.00    +0.024 A 
ATOM      3  C   UNL     1       0.158  -4.239   0.134  0.00  0.00    -0.009 A 
ATOM      4  C   UNL     1       0.793  -4.856   1.204  0.00  0.00    -0.001 A 
ATOM      5  C   UNL     1       1.372  -4.102   2.218  0.00  0.00    +0.049 A 
ATOM      6  C   UNL     1       1.321  -2.717   2.159  0.00  0.00    +0.039 A 
ATOM      7  N   UNL     1       2.005  -4.744   3.285  0.00  0.00    -0.221 N 
ATOM      8  C   UNL     1       2.088  -6.077   3.389  0.00  0.00    +0.311 C 
ATOM      9  O   UNL     1       2.658  -6.548   4.354  0.00  0.00    -0.252 OA
ATOM     10  N   UNL     1       1.569  -6.917   2.476  0.00  0.00    -0.295 N 
ATOM     11  C   UNL     1       0.875  -6.362   1.302  0.00  0.00    +0.143 C 
ATOM     12  H   UNL     1       1.651  -7.877   2.590  0.00  0.00    +0.151 HD
ENDROOT
BRANCH   7  13
ATOM     13  C   UNL     1       2.580  -3.958   4.293  0.00  0.00    +0.079 A 
ATOM     14  C   UNL     1       3.902  -3.545   4.185  0.00  0.00    +0.064 A 
ATOM     15  C   UNL     1       4.465  -2.769   5.181  0.00  0.00    +0.022 A 
ATOM     16  C   UNL     1       3.715  -2.404   6.283  0.00  0.00    +0.003 A 
ATOM     17  C   UNL     1       2.399  -2.813   6.394  0.00  0.00    +0.022 A 
ATOM     18  C   UNL     1       1.827  -3.584   5.399  0.00  0.00    +0.064 A 
ATOM     19 CL   UNL     1       0.172  -4.090   5.536  0.00  0.00    -0.082 Cl
ATOM     20 CL   UNL     1       4.846  -4.005   2.802  0.00  0.00    -0.082 Cl
ENDBRANCH   7  13
BRANCH   3  21
ATOM     21  C   UNL     1      -0.456  -5.057  -0.941  0.00  0.00    +0.001 A 
ATOM     22  C   UNL     1       0.054  -5.006  -2.236  0.00  0.00    +0.010 A 
ATOM     23  C   UNL     1      -0.521  -5.769  -3.232  0.00  0.00    +0.001 A 
ATOM     24  C   UNL     1      -1.602  -6.583  -2.947  0.00  0.00    +0.001 A 
ATOM     25  C   UNL     1      -2.114  -6.639  -1.664  0.00  0.00    +0.020 A 
ATOM     26  C   UNL     1      -1.542  -5.884  -0.657  0.00  0.00    +0.049 A 
ATOM     27 CL   UNL     1      -2.180  -5.960   0.956  0.00  0.00    -0.083 Cl
ENDBRANCH   3  21
BRANCH   1  28
ATOM     28  C   UNL     1       0.620  -0.613   1.032  0.00  0.00    +0.339 C 
ATOM     29  O   UNL     1       1.129   0.051   1.913  0.00  0.00    -0.245 OA
BRANCH  28  31
ATOM     30  C   UNL     1      -0.017   1.425   0.010  0.00  0.00    +0.280 C 
ATOM     31  O   UNL     1       0.002  -0.004   0.002  0.00  0.00    -0.464 OA
ENDBRANCH  28  31
ENDBRANCH   1  28
TORSDOF 4
