REMARK  Name = CHEMBL172232
REMARK  6 active torsions:
REMARK  status: ('A' for Active; 'I' for Inactive)
REMARK    1  A    between atoms: C_1  and  C_2
REMARK    2  A    between atoms: C_6  and  C_8
REMARK    3  A    between atoms: C_9  and  C_20
REMARK    4  A    between atoms: C_12  and  C_14
REMARK    5  A    between atoms: N_26  and  C_31
REMARK    6  A    between atoms: N_29  and  C_30
REMARK                            x       y       z     vdW  Elec       q    Type
REMARK                         _______ _______ _______ _____ _____    ______ ____
ROOT
ATOM      1  C   UNL     1       0.053  -2.846   2.461  0.00  0.00    +0.072 A 
ATOM      2  C   UNL     1      -0.715  -3.954   2.766  0.00  0.00    +0.072 A 
ATOM      3  N   UNL     1      -0.372  -4.318   4.048  0.00  0.00    -0.343 N 
ATOM      4  H   UNL     1      -0.737  -5.062   4.551  0.00  0.00    +0.167 HD
ATOM      5  C   UNL     1       0.572  -3.442   4.476  0.00  0.00    +0.088 A 
ATOM      6  N   UNL     1       0.822  -2.579   3.533  0.00  0.00    -0.343 N 
ATOM      7  H   UNL     1       1.463  -1.853   3.594  0.00  0.00    +0.167 HD
ENDROOT
BRANCH   2   8
ATOM      8  C   UNL     1      -1.706  -4.615   1.893  0.00  0.00    +0.002 A 
ATOM      9  C   UNL     1      -2.621  -3.846   1.167  0.00  0.00    +0.012 A 
ATOM     10  C   UNL     1      -3.547  -4.460   0.351  0.00  0.00    +0.028 A 
ATOM     11  C   UNL     1      -3.572  -5.844   0.247  0.00  0.00    +0.070 A 
ATOM     12  C   UNL     1      -2.660  -6.618   0.970  0.00  0.00    +0.070 A 
ATOM     13  C   UNL     1      -1.725  -6.006   1.786  0.00  0.00    +0.038 A 
ATOM     14  N   UNL     1      -2.930  -7.950   0.662  0.00  0.00    -0.295 N 
ATOM     15  C   UNL     1      -3.959  -7.984  -0.206  0.00  0.00    +0.330 A 
ATOM     16  O   UNL     1      -4.445  -8.996  -0.677  0.00  0.00    -0.246 OA
ATOM     17  N   UNL     1      -4.367  -6.730  -0.475  0.00  0.00    -0.295 N 
ATOM     18  C   UNL     1      -5.462  -6.360  -1.376  0.00  0.00    +0.154 C 
ATOM     19  C   UNL     1      -2.218  -9.115   1.193  0.00  0.00    +0.154 C 
ENDBRANCH   2   8
BRANCH   5  20
ATOM     20  C   UNL     1       1.233  -3.468   5.830  0.00  0.00    +0.050 C 
ATOM     21  C   UNL     1       0.501  -2.511   6.776  0.00  0.00    -0.008 C 
ATOM     22  C   UNL     1       1.224  -2.482   8.124  0.00  0.00    -0.082 C 
ATOM     23  N   UNL     1       2.605  -2.023   7.933  0.00  0.00    +0.379 N 
ATOM     24  C   UNL     1       3.333  -2.974   7.085  0.00  0.00    -0.082 C 
ATOM     25  C   UNL     1       2.692  -3.022   5.697  0.00  0.00    -0.008 C 
ATOM     26  H   UNL     1       2.598  -1.116   7.490  0.00  0.00    -0.086 HD
ATOM     27  H   UNL     1       3.062  -1.954   8.829  0.00  0.00    -0.086 HD
ENDBRANCH   5  20
BRANCH   1  33
ATOM     28  C   UNL     1      -0.018   1.503   0.010  0.00  0.00    +0.044 C 
ATOM     29  C   UNL     1       0.002  -0.004   0.002  0.00  0.00    -0.050 A 
ATOM     30  C   UNL     1       0.006  -0.688  -1.201  0.00  0.00    +0.003 A 
ATOM     31  C   UNL     1       0.025  -2.071  -1.217  0.00  0.00    +0.001 A 
ATOM     32  C   UNL     1       0.040  -2.777  -0.031  0.00  0.00    +0.010 A 
ATOM     33  C   UNL     1       0.036  -2.094   1.184  0.00  0.00    +0.001 A 
ATOM     34  C   UNL     1       0.023  -0.699   1.194  0.00  0.00    +0.013 A 
ENDBRANCH   1  33
TORSDOF 3
