REMARK  Name = CHEMBL115778
REMARK  8 active torsions:
REMARK  status: ('A' for Active; 'I' for Inactive)
REMARK    1  A    between atoms: C_4  and  C_7
REMARK    2  A    between atoms: C_7  and  C_8
REMARK    3  A    between atoms: C_8  and  C_9
REMARK    4  A    between atoms: C_9  and  O_10
REMARK    5  A    between atoms: O_10  and  C_11
REMARK    6  A    between atoms: C_13  and  N_34
REMARK    7  A    between atoms: C_17  and  C_28
REMARK    8  A    between atoms: C_18  and  C_21
REMARK                            x       y       z     vdW  Elec       q    Type
REMARK                         _______ _______ _______ _____ _____    ______ ____
ROOT
ATOM      1  C   UNL     1       7.112  -2.607   2.885  0.00  0.00    +0.135 A 
ATOM      2  C   UNL     1       7.857  -3.018   1.790  0.00  0.00    +0.089 A 
ATOM      3  C   UNL     1       9.058  -3.689   1.998  0.00  0.00    +0.122 A 
ATOM      4  N   UNL     1       9.504  -3.943   3.217  0.00  0.00    -0.215 NA
ATOM      5  C   UNL     1       8.830  -3.572   4.301  0.00  0.00    +0.145 A 
ATOM      6  C   UNL     1       7.613  -2.886   4.166  0.00  0.00    +0.069 A 
ATOM      7  C   UNL     1       7.131  -2.616   5.528  0.00  0.00    +0.020 A 
ATOM      8  C   UNL     1       8.075  -3.143   6.385  0.00  0.00    +0.057 A 
ATOM      9  N   UNL     1       9.081  -3.719   5.646  0.00  0.00    -0.338 N 
ATOM     10  H   UNL     1       9.862  -4.157   6.019  0.00  0.00    +0.167 HD
ENDROOT
BRANCH   8  11
ATOM     11  C   UNL     1       8.010  -3.104   7.859  0.00  0.00    -0.001 A 
ATOM     12  C   UNL     1       7.645  -1.926   8.514  0.00  0.00    +0.013 A 
ATOM     13  C   UNL     1       7.586  -1.896   9.892  0.00  0.00    +0.039 A 
ATOM     14  C   UNL     1       7.887  -3.032  10.626  0.00  0.00    +0.123 A 
ATOM     15  C   UNL     1       8.249  -4.205   9.981  0.00  0.00    +0.039 A 
ATOM     16  C   UNL     1       8.306  -4.248   8.604  0.00  0.00    +0.013 A 
ATOM     17  F   UNL     1       7.828  -2.997  11.975  0.00  0.00    -0.205 F 
ENDBRANCH   8  11
BRANCH   7  18
ATOM     18  C   UNL     1       5.883  -1.917   5.904  0.00  0.00    -0.012 A 
ATOM     19  C   UNL     1       5.692  -0.566   5.591  0.00  0.00    +0.028 A 
ATOM     20  C   UNL     1       4.513   0.045   5.960  0.00  0.00    +0.111 A 
ATOM     21  N   UNL     1       3.573  -0.626   6.600  0.00  0.00    -0.263 NA
ATOM     22  C   UNL     1       3.712  -1.900   6.915  0.00  0.00    +0.111 A 
ATOM     23  C   UNL     1       4.857  -2.591   6.579  0.00  0.00    +0.028 A 
ENDBRANCH   7  18
BRANCH   3  24
ATOM     24  N   UNL     1       9.805  -4.102   0.901  0.00  0.00    -0.343 N 
ATOM     25  H   UNL     1       9.488  -3.921   0.003  0.00  0.00    +0.144 HD
ATOM     26  H   UNL     1      10.644  -4.571   1.034  0.00  0.00    +0.144 HD
ENDBRANCH   3  24
BRANCH   1  27
ATOM     27  O   UNL     1       5.936  -1.949   2.723  0.00  0.00    -0.491 OA
BRANCH  27  28
ATOM     28  C   UNL     1       5.507  -1.710   1.381  0.00  0.00    +0.229 C 
BRANCH  28  29
ATOM     29  C   UNL     1       4.171  -0.963   1.399  0.00  0.00    +0.046 C 
BRANCH  29  30
ATOM     30  C   UNL     1       3.711  -0.707  -0.038  0.00  0.00    +0.038 C 
BRANCH  30  34
ATOM     31  C   UNL     1      -0.017   1.378   0.010  0.00  0.00    +0.000 A 
ATOM     32  C   UNL     1       1.171   2.086   0.002  0.00  0.00    +0.000 A 
ATOM     33  C   UNL     1       2.377   1.411  -0.013  0.00  0.00    +0.003 A 
ATOM     34  C   UNL     1       2.396   0.029  -0.020  0.00  0.00    -0.047 A 
ATOM     35  C   UNL     1       1.208  -0.679  -0.012  0.00  0.00    +0.003 A 
ATOM     36  C   UNL     1       0.002  -0.004   0.002  0.00  0.00    +0.000 A 
ENDBRANCH  30  34
ENDBRANCH  29  30
ENDBRANCH  28  29
ENDBRANCH  27  28
ENDBRANCH   1  27
TORSDOF 8
