REMARK  Name = CHEMBL493669
REMARK  9 active torsions:
REMARK  status: ('A' for Active; 'I' for Inactive)
REMARK    1  A    between atoms: C_1  and  C_2
REMARK    2  A    between atoms: C_2  and  C_3
REMARK    3  A    between atoms: C_2  and  N_11
REMARK    4  A    between atoms: C_3  and  C_4
REMARK    5  A    between atoms: C_4  and  C_5
REMARK    6  A    between atoms: C_14  and  C_18
REMARK    7  A    between atoms: C_19  and  C_26
REMARK    8  A    between atoms: C_21  and  S_24
REMARK    9  A    between atoms: S_24  and  C_25
REMARK                            x       y       z     vdW  Elec       q    Type
REMARK                         _______ _______ _______ _____ _____    ______ ____
ROOT
ATOM      1  N   UNL     1      -1.372  -0.511   0.012  0.00  0.00    -0.328 N 
ATOM      2  C   UNL     1      -2.049  -0.660   1.218  0.00  0.00    +0.097 A 
ATOM      3  C   UNL     1      -1.418  -0.320   2.406  0.00  0.00    +0.051 A 
ATOM      4  C   UNL     1      -2.112  -0.475   3.608  0.00  0.00    +0.007 A 
ATOM      5  C   UNL     1      -3.422  -0.970   3.559  0.00  0.00    +0.027 A 
ATOM      6  C   UNL     1      -3.975  -1.283   2.337  0.00  0.00    +0.085 A 
ATOM      7  N   UNL     1      -3.292  -1.119   1.219  0.00  0.00    -0.350 N 
ATOM      8  H   UNL     1      -1.810  -0.743  -0.822  0.00  0.00    +0.148 HD
ATOM      9  H   UNL     1      -3.711  -1.345   0.374  0.00  0.00    +0.166 HD
ENDROOT
BRANCH   4  10
ATOM     10  C   UNL     1      -1.480  -0.127   4.901  0.00  0.00    +0.098 A 
ATOM     11  C   UNL     1      -2.118   0.410   6.002  0.00  0.00    +0.075 A 
ATOM     12  N   UNL     1      -1.150   0.571   6.973  0.00  0.00    -0.332 N 
ATOM     13  C   UNL     1       0.028   0.135   6.444  0.00  0.00    +0.167 A 
ATOM     14  N   UNL     1      -0.178  -0.282   5.218  0.00  0.00    -0.221 NA
ATOM     15  H   UNL     1      -1.282   0.928   7.865  0.00  0.00    +0.168 HD
BRANCH  11  16
ATOM     16  C   UNL     1      -3.551   0.746   6.117  0.00  0.00    +0.001 A 
ATOM     17  C   UNL     1      -4.199   1.418   5.078  0.00  0.00    +0.013 A 
ATOM     18  C   UNL     1      -5.538   1.728   5.192  0.00  0.00    +0.039 A 
ATOM     19  C   UNL     1      -6.240   1.375   6.334  0.00  0.00    +0.123 A 
ATOM     20  C   UNL     1      -5.602   0.709   7.368  0.00  0.00    +0.039 A 
ATOM     21  C   UNL     1      -4.265   0.388   7.263  0.00  0.00    +0.013 A 
ATOM     22  F   UNL     1      -7.551   1.683   6.439  0.00  0.00    -0.205 F 
ENDBRANCH  11  16
BRANCH  13  23
ATOM     23  S   UNL     1       1.580   0.127   7.277  0.00  0.00    -0.091 S 
ATOM     24  C   UNL     1       2.731  -0.560   6.055  0.00  0.00    +0.093 C 
ENDBRANCH  13  23
ENDBRANCH   4  10
BRANCH   1  26
ATOM     25  C   UNL     1      -0.019   1.526   0.010  0.00  0.00    +0.028 C 
ATOM     26  C   UNL     1       0.002  -0.004   0.002  0.00  0.00    +0.069 C 
BRANCH  26  27
ATOM     27  C   UNL     1       0.718  -0.497  -1.257  0.00  0.00    +0.026 C 
BRANCH  27  28
ATOM     28  C   UNL     1       0.849  -2.021  -1.205  0.00  0.00    +0.037 C 
BRANCH  28  29
ATOM     29  C   UNL     1       1.555  -2.507  -2.445  0.00  0.00    -0.047 A 
ATOM     30  C   UNL     1       0.824  -2.834  -3.572  0.00  0.00    +0.003 A 
ATOM     31  C   UNL     1       1.472  -3.280  -4.709  0.00  0.00    +0.000 A 
ATOM     32  C   UNL     1       2.849  -3.398  -4.720  0.00  0.00    +0.000 A 
ATOM     33  C   UNL     1       3.579  -3.070  -3.593  0.00  0.00    +0.000 A 
ATOM     34  C   UNL     1       2.932  -2.620  -2.457  0.00  0.00    +0.003 A 
ENDBRANCH  28  29
ENDBRANCH  27  28
ENDBRANCH  26  27
ENDBRANCH   1  26
TORSDOF 7
