REMARK  Name = CHEMBL288812
REMARK  9 active torsions:
REMARK  status: ('A' for Active; 'I' for Inactive)
REMARK    1  A    between atoms: C_1  and  C_2
REMARK    2  A    between atoms: C_2  and  C_3
REMARK    3  A    between atoms: C_2  and  C_4
REMARK    4  A    between atoms: C_2  and  C_5
REMARK    5  A    between atoms: C_7  and  N_11
REMARK    6  A    between atoms: N_8  and  C_10
REMARK    7  A    between atoms: N_14  and  C_15
REMARK    8  A    between atoms: C_18  and  C_21
REMARK    9  A    between atoms: C_21  and  C_22
REMARK                            x       y       z     vdW  Elec       q    Type
REMARK                         _______ _______ _______ _____ _____    ______ ____
ROOT
ATOM      1  N   UNL     1       3.572  -1.162  -3.289  0.00  0.00    -0.254 N 
ATOM      2  C   UNL     1       4.688  -0.777  -2.640  0.00  0.00    +0.309 C 
ATOM      3  O   UNL     1       4.608  -0.287  -1.530  0.00  0.00    -0.252 OA
ATOM      4  N   UNL     1       5.894  -0.934  -3.221  0.00  0.00    -0.269 N 
ATOM      5  H   UNL     1       3.636  -1.552  -4.174  0.00  0.00    +0.158 HD
ATOM      6  H   UNL     1       5.964  -1.385  -4.077  0.00  0.00    +0.156 HD
ENDROOT
BRANCH   1   9
ATOM      7  C   UNL     1       0.707  -0.488  -1.239  0.00  0.00    +0.070 A 
ATOM      8  C   UNL     1       2.088  -0.468  -1.456  0.00  0.00    +0.069 A 
ATOM      9  C   UNL     1       2.324  -0.999  -2.687  0.00  0.00    +0.124 A 
ATOM     10  N   UNL     1       1.129  -1.339  -3.221  0.00  0.00    -0.253 N 
ATOM     11  N   UNL     1       0.133  -1.013  -2.291  0.00  0.00    -0.174 NA
ATOM     12  C   UNL     1       0.914  -1.946  -4.537  0.00  0.00    +0.174 C 
BRANCH   7  14
ATOM     13  C   UNL     1      -0.023   1.534  -0.004  0.00  0.00    +0.017 C 
ATOM     14  C   UNL     1       0.001   0.004  -0.002  0.00  0.00    +0.006 C 
ATOM     15  C   UNL     1       0.743  -0.493   1.240  0.00  0.00    +0.017 C 
ATOM     16  C   UNL     1      -1.433  -0.528   0.013  0.00  0.00    +0.017 C 
ENDBRANCH   7  14
ENDBRANCH   1   9
BRANCH   4  17
ATOM     17  C   UNL     1       7.044  -0.447  -2.590  0.00  0.00    +0.035 A 
ATOM     18  C   UNL     1       7.146  -0.483  -1.206  0.00  0.00    +0.023 A 
ATOM     19  C   UNL     1       8.283  -0.002  -0.586  0.00  0.00    +0.006 A 
ATOM     20  C   UNL     1       9.318   0.516  -1.343  0.00  0.00    -0.043 A 
ATOM     21  C   UNL     1       9.219   0.554  -2.721  0.00  0.00    +0.006 A 
ATOM     22  C   UNL     1       8.087   0.070  -3.348  0.00  0.00    +0.023 A 
BRANCH  20  23
ATOM     23  C   UNL     1      10.556   1.042  -0.663  0.00  0.00    +0.070 C 
BRANCH  23  24
ATOM     24  C   UNL     1      11.559  -0.074  -0.514  0.00  0.00    -0.040 A 
ATOM     25  C   UNL     1      11.562  -0.879   0.615  0.00  0.00    +0.023 A 
ATOM     26  C   UNL     1      12.496  -1.892   0.716  0.00  0.00    +0.111 A 
ATOM     27  N   UNL     1      13.377  -2.097  -0.244  0.00  0.00    -0.263 NA
ATOM     28  C   UNL     1      13.403  -1.351  -1.331  0.00  0.00    +0.111 A 
ATOM     29  C   UNL     1      12.496  -0.323  -1.505  0.00  0.00    +0.023 A 
ENDBRANCH  23  24
ENDBRANCH  20  23
ENDBRANCH   4  17
TORSDOF 5
