REMARK  Name = CHEMBL480957
REMARK  7 active torsions:
REMARK  status: ('A' for Active; 'I' for Inactive)
REMARK    1  A    between atoms: C_1  and  C_2
REMARK    2  A    between atoms: C_5  and  O_8
REMARK    3  A    between atoms: O_8  and  C_9
REMARK    4  A    between atoms: C_11  and  C_15
REMARK    5  A    between atoms: C_16  and  C_23
REMARK    6  A    between atoms: C_18  and  S_21
REMARK    7  A    between atoms: S_21  and  C_22
REMARK                            x       y       z     vdW  Elec       q    Type
REMARK                         _______ _______ _______ _____ _____    ______ ____
ROOT
ATOM      1  C   UNL     1       0.672  -8.257   2.616  0.00  0.00    +0.075 A 
ATOM      2  C   UNL     1      -0.162  -9.127   3.292  0.00  0.00    +0.098 A 
ATOM      3  N   UNL     1       0.190 -10.380   2.950  0.00  0.00    -0.221 NA
ATOM      4  C   UNL     1       1.192 -10.341   2.103  0.00  0.00    +0.167 A 
ATOM      5  N   UNL     1       1.523  -9.043   1.860  0.00  0.00    -0.332 N 
ATOM      6  H   UNL     1       2.226  -8.729   1.269  0.00  0.00    +0.168 HD
ENDROOT
BRANCH   2   7
ATOM      7  C   UNL     1      -1.248  -8.748   4.226  0.00  0.00    +0.003 A 
ATOM      8  C   UNL     1      -2.106  -7.694   3.911  0.00  0.00    +0.013 A 
ATOM      9  C   UNL     1      -3.116  -7.346   4.783  0.00  0.00    +0.039 A 
ATOM     10  C   UNL     1      -3.279  -8.041   5.971  0.00  0.00    +0.123 A 
ATOM     11  C   UNL     1      -2.430  -9.089   6.288  0.00  0.00    +0.039 A 
ATOM     12  C   UNL     1      -1.420  -9.448   5.420  0.00  0.00    +0.013 A 
ATOM     13  F   UNL     1      -4.269  -7.696   6.822  0.00  0.00    -0.205 F 
ENDBRANCH   2   7
BRANCH   1  16
ATOM     14  C   UNL     1       0.710  -4.630   1.628  0.00  0.00    +0.221 A 
ATOM     15  C   UNL     1       0.730  -6.011   1.518  0.00  0.00    +0.077 A 
ATOM     16  C   UNL     1       0.654  -6.784   2.682  0.00  0.00    +0.007 A 
ATOM     17  C   UNL     1       0.560  -6.119   3.915  0.00  0.00    +0.030 A 
ATOM     18  C   UNL     1       0.546  -4.743   3.933  0.00  0.00    +0.115 A 
ATOM     19  N   UNL     1       0.625  -4.046   2.813  0.00  0.00    -0.221 NA
BRANCH  14  20
ATOM     20  O   UNL     1       0.783  -3.867   0.508  0.00  0.00    -0.438 OA
BRANCH  20  25
ATOM     21  C   UNL     1       1.144   1.719   1.132  0.00  0.00    +0.044 C 
ATOM     22  C   UNL     1       1.047   0.224   0.966  0.00  0.00    -0.050 A 
ATOM     23  C   UNL     1       2.124  -0.578   1.296  0.00  0.00    +0.007 A 
ATOM     24  C   UNL     1       2.038  -1.948   1.144  0.00  0.00    +0.046 A 
ATOM     25  C   UNL     1       0.870  -2.520   0.659  0.00  0.00    +0.130 A 
ATOM     26  C   UNL     1      -0.209  -1.712   0.328  0.00  0.00    +0.046 A 
ATOM     27  C   UNL     1      -0.120  -0.343   0.488  0.00  0.00    +0.007 A 
ENDBRANCH  20  25
ENDBRANCH  14  20
ENDBRANCH   1  16
BRANCH   4  28
ATOM     28  S   UNL     1       1.980 -11.746   1.389  0.00  0.00    -0.091 S 
ATOM     29  C   UNL     1       1.086 -13.157   2.096  0.00  0.00    +0.093 C 
ENDBRANCH   4  28
TORSDOF 5
