REMARK  Name = CHEMBL120185
REMARK  3 active torsions:
REMARK  status: ('A' for Active; 'I' for Inactive)
REMARK    1  A    between atoms: C_1  and  N_2
REMARK    2  A    between atoms: C_15  and  C_29
REMARK    3  A    between atoms: N_23  and  C_24
REMARK                            x       y       z     vdW  Elec       q    Type
REMARK                         _______ _______ _______ _____ _____    ______ ____
ROOT
ATOM      1  C   UNL     1       0.801   1.623   0.629  0.00  0.00    -0.096 C 
ATOM      2  N   UNL     1       0.679   0.165   0.502  0.00  0.00    +0.380 N 
ATOM      3  C   UNL     1      -0.742  -0.202   0.436  0.00  0.00    -0.060 C 
ATOM      4  C   UNL     1      -0.868  -1.709   0.188  0.00  0.00    +0.088 C 
ATOM      5  N   UNL     1      -0.106  -2.418   1.228  0.00  0.00    -0.319 N 
ATOM      6  C   UNL     1       1.284  -2.001   1.474  0.00  0.00    +0.088 C 
ATOM      7  C   UNL     1       1.308  -0.481   1.661  0.00  0.00    -0.060 C 
ATOM      8  C   UNL     1      -0.682  -3.453   1.957  0.00  0.00    +0.124 A 
ATOM      9  C   UNL     1      -1.993  -3.838   1.679  0.00  0.00    +0.046 A 
ATOM     10  C   UNL     1      -2.566  -4.867   2.402  0.00  0.00    +0.033 A 
ATOM     11  C   UNL     1      -1.805  -5.483   3.389  0.00  0.00    +0.094 A 
ATOM     12  C   UNL     1      -0.489  -5.049   3.623  0.00  0.00    +0.181 A 
ATOM     13  N   UNL     1       0.024  -4.055   2.896  0.00  0.00    -0.211 NA
ATOM     14  N   UNL     1       0.009  -5.809   4.620  0.00  0.00    -0.208 NA
ATOM     15  C   UNL     1      -0.893  -6.673   5.018  0.00  0.00    +0.149 A 
ATOM     16  N   UNL     1      -2.041  -6.513   4.285  0.00  0.00    -0.275 N 
ATOM     17  C   UNL     1      -3.218  -7.245   4.415  0.00  0.00    +0.145 A 
ATOM     18  C   UNL     1      -3.799  -7.855   3.303  0.00  0.00    +0.066 A 
ATOM     19  C   UNL     1      -4.967  -8.572   3.480  0.00  0.00    +0.118 A 
ATOM     20  N   UNL     1      -5.497  -8.659   4.690  0.00  0.00    -0.223 NA
ATOM     21  C   UNL     1      -4.923  -8.069   5.728  0.00  0.00    +0.217 A 
ATOM     22  N   UNL     1      -3.801  -7.377   5.601  0.00  0.00    -0.197 NA
ATOM     23  N   UNL     1      -5.508  -8.183   6.978  0.00  0.00    -0.311 N 
ATOM     24  H   UNL     1      -5.098  -7.756   7.746  0.00  0.00    +0.149 HD
ATOM     25  H   UNL     1       1.141  -0.138  -0.342  0.00  0.00    -0.082 HD
ENDROOT
BRANCH  15  26
ATOM     26  C   UNL     1      -0.703  -7.669   6.094  0.00  0.00    +0.018 A 
ATOM     27  C   UNL     1      -1.509  -8.808   6.145  0.00  0.00    +0.014 A 
ATOM     28  C   UNL     1      -1.327  -9.733   7.150  0.00  0.00    +0.039 A 
ATOM     29  C   UNL     1      -0.346  -9.535   8.109  0.00  0.00    +0.123 A 
ATOM     30  C   UNL     1       0.457  -8.406   8.063  0.00  0.00    +0.039 A 
ATOM     31  C   UNL     1       0.287  -7.476   7.059  0.00  0.00    +0.014 A 
ATOM     32  F   UNL     1      -0.172 -10.445   9.092  0.00  0.00    -0.205 F 
ENDBRANCH  15  26
BRANCH  23  33
ATOM     33  C   UNL     1      -6.746  -8.948   7.140  0.00  0.00    +0.073 C 
ATOM     34  C   UNL     1      -7.967  -8.038   6.892  0.00  0.00    +0.022 C 
ATOM     35  C   UNL     1      -9.018  -8.522   7.921  0.00  0.00    +0.002 C 
ATOM     36  C   UNL     1      -8.154  -8.840   9.167  0.00  0.00    +0.002 C 
ATOM     37  C   UNL     1      -6.865  -9.458   8.587  0.00  0.00    +0.022 C 
ENDBRANCH  23  33
TORSDOF 2
