REMARK  Name = CHEMBL565564
REMARK  5 active torsions:
REMARK  status: ('A' for Active; 'I' for Inactive)
REMARK    1  A    between atoms: C_1  and  C_2
REMARK    2  A    between atoms: C_2  and  C_3
REMARK    3  A    between atoms: C_2  and  N_4
REMARK    4  A    between atoms: C_7  and  C_11
REMARK    5  A    between atoms: C_12  and  C_21
REMARK                            x       y       z     vdW  Elec       q    Type
REMARK                         _______ _______ _______ _____ _____    ______ ____
ROOT
ATOM      1  C   UNL     1       5.232   0.140   0.923  0.00  0.00    +0.098 A 
ATOM      2  C   UNL     1       6.122  -0.841   1.425  0.00  0.00    +0.098 A 
ATOM      3  N   UNL     1       6.647  -0.712   2.630  0.00  0.00    -0.243 NA
ATOM      4  C   UNL     1       6.337   0.352   3.379  0.00  0.00    +0.090 A 
ATOM      5  C   UNL     1       6.883   0.513   4.665  0.00  0.00    +0.030 A 
ATOM      6  C   UNL     1       6.552   1.604   5.407  0.00  0.00    +0.002 A 
ATOM      7  C   UNL     1       5.676   2.569   4.913  0.00  0.00    +0.002 A 
ATOM      8  C   UNL     1       5.128   2.448   3.674  0.00  0.00    +0.030 A 
ATOM      9  C   UNL     1       5.446   1.335   2.876  0.00  0.00    +0.090 A 
ATOM     10  N   UNL     1       4.924   1.196   1.653  0.00  0.00    -0.243 NA
ENDROOT
BRANCH   1  14
ATOM     11  N   UNL     1       1.437   0.275  -2.183  0.00  0.00    -0.328 N 
ATOM     12  C   UNL     1       2.788   0.052  -1.942  0.00  0.00    +0.097 A 
ATOM     13  C   UNL     1       3.292   0.210  -0.656  0.00  0.00    +0.051 A 
ATOM     14  C   UNL     1       4.650  -0.017  -0.431  0.00  0.00    +0.007 A 
ATOM     15  C   UNL     1       5.448  -0.396  -1.517  0.00  0.00    +0.027 A 
ATOM     16  C   UNL     1       4.870  -0.531  -2.761  0.00  0.00    +0.085 A 
ATOM     17  N   UNL     1       3.580  -0.314  -2.938  0.00  0.00    -0.350 N 
ATOM     18  H   UNL     1       1.079   0.162  -3.078  0.00  0.00    +0.148 HD
ATOM     19  H   UNL     1       3.202  -0.421  -3.825  0.00  0.00    +0.166 HD
BRANCH  11  21
ATOM     20  C   UNL     1       0.622   2.198  -0.911  0.00  0.00    +0.027 C 
ATOM     21  C   UNL     1       0.554   0.680  -1.087  0.00  0.00    +0.065 C 
ATOM     22  C   UNL     1      -0.883   0.268  -1.411  0.00  0.00    +0.027 C 
ENDBRANCH  11  21
ENDBRANCH   1  14
BRANCH   2  23
ATOM     23  C   UNL     1       6.465  -2.019   0.595  0.00  0.00    +0.003 A 
ATOM     24  C   UNL     1       5.463  -2.711  -0.086  0.00  0.00    +0.013 A 
ATOM     25  C   UNL     1       5.788  -3.807  -0.858  0.00  0.00    +0.039 A 
ATOM     26  C   UNL     1       7.107  -4.221  -0.958  0.00  0.00    +0.123 A 
ATOM     27  C   UNL     1       8.106  -3.537  -0.283  0.00  0.00    +0.039 A 
ATOM     28  C   UNL     1       7.792  -2.436   0.486  0.00  0.00    +0.013 A 
ATOM     29  F   UNL     1       7.420  -5.295  -1.714  0.00  0.00    -0.205 F 
ENDBRANCH   2  23
TORSDOF 3
