REMARK  Name = CHEMBL214138
REMARK  7 active torsions:
REMARK  status: ('A' for Active; 'I' for Inactive)
REMARK    1  A    between atoms: C_1  and  C_2
REMARK    2  A    between atoms: C_2  and  C_3
REMARK    3  A    between atoms: C_2  and  C_4
REMARK    4  A    between atoms: C_2  and  C_5
REMARK    5  A    between atoms: C_5  and  N_6
REMARK    6  A    between atoms: C_9  and  C_26
REMARK    7  A    between atoms: N_13  and  C_18
REMARK                            x       y       z     vdW  Elec       q    Type
REMARK                         _______ _______ _______ _____ _____    ______ ____
ROOT
ATOM      1  N   UNL     1       2.327  -0.452  -1.019  0.00  0.00    -0.313 N 
ATOM      2  C   UNL     1       3.053  -0.532  -2.195  0.00  0.00    +0.217 A 
ATOM      3  N   UNL     1       2.596  -1.291  -3.178  0.00  0.00    -0.214 NA
ATOM      4  C   UNL     1       3.269  -1.394  -4.328  0.00  0.00    +0.084 A 
ATOM      5  C   UNL     1       4.453  -0.688  -4.464  0.00  0.00    +0.036 A 
ATOM      6  C   UNL     1       4.906   0.102  -3.410  0.00  0.00    +0.144 A 
ATOM      7  N   UNL     1       4.180   0.159  -2.299  0.00  0.00    -0.198 NA
ATOM      8  N   UNL     1       6.090   0.811  -3.538  0.00  0.00    -0.205 N 
ATOM      9  C   UNL     1       6.842   0.779  -4.646  0.00  0.00    +0.312 C 
ATOM     10  O   UNL     1       7.867   1.434  -4.668  0.00  0.00    -0.252 OA
ATOM     11  N   UNL     1       6.520   0.058  -5.735  0.00  0.00    -0.294 N 
ATOM     12  C   UNL     1       5.282  -0.742  -5.724  0.00  0.00    +0.146 C 
ATOM     13  H   UNL     1       2.644   0.102  -0.289  0.00  0.00    +0.149 HD
ATOM     14  H   UNL     1       7.095   0.064  -6.517  0.00  0.00    +0.151 HD
ENDROOT
BRANCH   8  15
ATOM     15  C   UNL     1       6.519   1.598  -2.460  0.00  0.00    +0.081 A 
ATOM     16  C   UNL     1       6.118   2.924  -2.364  0.00  0.00    +0.064 A 
ATOM     17  C   UNL     1       6.543   3.697  -1.299  0.00  0.00    +0.022 A 
ATOM     18  C   UNL     1       7.367   3.151  -0.332  0.00  0.00    +0.003 A 
ATOM     19  C   UNL     1       7.768   1.831  -0.425  0.00  0.00    +0.022 A 
ATOM     20  C   UNL     1       7.341   1.051  -1.483  0.00  0.00    +0.064 A 
ATOM     21 CL   UNL     1       7.838  -0.609  -1.595  0.00  0.00    -0.082 Cl
ATOM     22 CL   UNL     1       5.085   3.611  -3.578  0.00  0.00    -0.082 Cl
ENDBRANCH   8  15
BRANCH   4  23
ATOM     23  C   UNL     1       2.761  -2.244  -5.432  0.00  0.00    +0.019 A 
ATOM     24  C   UNL     1       3.574  -3.231  -5.987  0.00  0.00    +0.011 A 
ATOM     25  C   UNL     1       3.096  -4.019  -7.013  0.00  0.00    +0.001 A 
ATOM     26  C   UNL     1       1.812  -3.832  -7.493  0.00  0.00    +0.001 A 
ATOM     27  C   UNL     1       1.000  -2.855  -6.948  0.00  0.00    +0.020 A 
ATOM     28  C   UNL     1       1.465  -2.064  -5.915  0.00  0.00    +0.050 A 
ATOM     29 CL   UNL     1       0.442  -0.842  -5.226  0.00  0.00    -0.083 Cl
ENDBRANCH   4  23
BRANCH   1  30
ATOM     30  C   UNL     1       1.078  -1.205  -0.877  0.00  0.00    +0.110 C 
BRANCH  30  32
ATOM     31  C   UNL     1       0.194   0.551   0.663  0.00  0.00    +0.012 C 
ATOM     32  C   UNL     1       0.479  -0.943   0.506  0.00  0.00    -0.022 C 
ATOM     33  C   UNL     1       1.469  -1.390   1.584  0.00  0.00    +0.012 C 
ATOM     34  C   UNL     1      -0.825  -1.730   0.654  0.00  0.00    +0.012 C 
ENDBRANCH  30  32
ENDBRANCH   1  30
TORSDOF 4
