REMARK  Name = CHEMBL143307
REMARK  2 active torsions:
REMARK  status: ('A' for Active; 'I' for Inactive)
REMARK    1  A    between atoms: C_6  and  C_7
REMARK    2  A    between atoms: C_12  and  C_13
REMARK                            x       y       z     vdW  Elec       q    Type
REMARK                         _______ _______ _______ _____ _____    ______ ____
ROOT
ATOM      1  C   UNL     1      -1.268  -0.764   0.011  0.00  0.00    +0.035 A 
ATOM      2  C   UNL     1      -2.270  -0.790   1.084  0.00  0.00    +0.116 A 
ATOM      3  C   UNL     1      -3.300  -1.647   0.643  0.00  0.00    +0.158 A 
ATOM      4  N   UNL     1      -2.956  -2.111  -0.604  0.00  0.00    -0.337 N 
ATOM      5  H   UNL     1      -3.491  -2.720  -1.136  0.00  0.00    +0.167 HD
ATOM      6  C   UNL     1      -1.747  -1.583  -0.991  0.00  0.00    +0.058 A 
ATOM      7  N   UNL     1      -4.350  -1.857   1.427  0.00  0.00    -0.234 NA
ATOM      8  C   UNL     1      -4.423  -1.267   2.605  0.00  0.00    +0.133 A 
ATOM      9  C   UNL     1      -3.409  -0.424   3.037  0.00  0.00    +0.131 A 
ATOM     10  N   UNL     1      -2.357  -0.201   2.273  0.00  0.00    -0.250 NA
ENDROOT
BRANCH   1  16
ATOM     11  C   UNL     1      -0.017   1.391   0.010  0.00  0.00    +0.011 A 
ATOM     12  C   UNL     1       1.170   2.095   0.002  0.00  0.00    +0.039 A 
ATOM     13  C   UNL     1       2.379   1.418  -0.013  0.00  0.00    +0.123 A 
ATOM     14  C   UNL     1       2.403   0.033  -0.021  0.00  0.00    +0.039 A 
ATOM     15  C   UNL     1       1.222  -0.680  -0.014  0.00  0.00    +0.011 A 
ATOM     16  C   UNL     1       0.002  -0.004   0.002  0.00  0.00    -0.014 A 
ATOM     17  F   UNL     1       3.538   2.112  -0.020  0.00  0.00    -0.205 F 
ENDBRANCH   1  16
BRANCH   6  18
ATOM     18  C   UNL     1      -1.067  -1.854  -2.273  0.00  0.00    +0.002 A 
ATOM     19  C   UNL     1      -0.490  -0.815  -3.015  0.00  0.00    +0.029 A 
ATOM     20  C   UNL     1       0.136  -1.113  -4.207  0.00  0.00    +0.111 A 
ATOM     21  N   UNL     1       0.194  -2.355  -4.650  0.00  0.00    -0.263 NA
ATOM     22  C   UNL     1      -0.336  -3.363  -3.983  0.00  0.00    +0.111 A 
ATOM     23  C   UNL     1      -0.976  -3.157  -2.779  0.00  0.00    +0.029 A 
ENDBRANCH   6  18
TORSDOF 2
