REMARK  Name = CHEMBL403941
REMARK  5 active torsions:
REMARK  status: ('A' for Active; 'I' for Inactive)
REMARK    1  A    between atoms: C_1  and  C_2
REMARK    2  A    between atoms: C_2  and  C_3
REMARK    3  A    between atoms: C_2  and  N_4
REMARK    4  A    between atoms: C_10  and  C_14
REMARK    5  A    between atoms: N_18  and  C_19
REMARK                            x       y       z     vdW  Elec       q    Type
REMARK                         _______ _______ _______ _____ _____    ______ ____
ROOT
ATOM      1  N   UNL     1       1.290   2.640   2.704  0.00  0.00    -0.321 N 
ATOM      2  C   UNL     1       0.527   2.019   3.672  0.00  0.00    +0.159 A 
ATOM      3  N   UNL     1      -0.725   2.240   4.003  0.00  0.00    -0.225 NA
ATOM      4  C   UNL     1      -1.350   1.550   4.981  0.00  0.00    +0.080 A 
ATOM      5  C   UNL     1      -2.685   1.692   5.430  0.00  0.00    +0.029 A 
ATOM      6  C   UNL     1      -3.172   0.917   6.432  0.00  0.00    +0.012 A 
ATOM      7  C   UNL     1      -2.379  -0.051   7.060  0.00  0.00    +0.002 A 
ATOM      8  C   UNL     1      -1.057  -0.218   6.642  0.00  0.00    +0.027 A 
ATOM      9  C   UNL     1      -0.569   0.566   5.631  0.00  0.00    +0.041 A 
ATOM     10  S   UNL     1       0.990   0.702   4.789  0.00  0.00    -0.052 S 
ATOM     11  H   UNL     1       2.210   2.369   2.563  0.00  0.00    +0.148 HD
ENDROOT
BRANCH   7  12
ATOM     12  C   UNL     1      -2.933  -0.883   8.150  0.00  0.00    +0.075 A 
ATOM     13  C   UNL     1      -2.215  -1.603   9.065  0.00  0.00    +0.050 A 
ATOM     14  C   UNL     1      -3.121  -2.241   9.912  0.00  0.00    +0.135 A 
ATOM     15  N   UNL     1      -4.336  -1.929   9.537  0.00  0.00    -0.174 NA
ATOM     16  N   UNL     1      -4.255  -1.071   8.434  0.00  0.00    -0.229 N 
BRANCH  16  17
ATOM     17  C   UNL     1      -5.337  -0.508   7.743  0.00  0.00    +0.101 A 
ATOM     18  C   UNL     1      -5.730  -1.032   6.519  0.00  0.00    +0.031 A 
ATOM     19  C   UNL     1      -6.796  -0.476   5.841  0.00  0.00    +0.002 A 
ATOM     20  C   UNL     1      -7.474   0.604   6.378  0.00  0.00    +0.003 A 
ATOM     21  C   UNL     1      -7.086   1.130   7.596  0.00  0.00    +0.040 A 
ATOM     22  C   UNL     1      -6.023   0.574   8.284  0.00  0.00    +0.149 A 
ATOM     23  F   UNL     1      -5.648   1.084   9.478  0.00  0.00    -0.203 F 
ENDBRANCH  16  17
ENDBRANCH   7  12
BRANCH   1  25
ATOM     24  C   UNL     1       0.832   5.042   2.633  0.00  0.00    +0.027 C 
ATOM     25  C   UNL     1       0.709   3.710   1.890  0.00  0.00    +0.066 C 
ATOM     26  C   UNL     1       1.455   3.799   0.557  0.00  0.00    +0.027 C 
ENDBRANCH   1  25
TORSDOF 3
