REMARK  Name = CHEMBL496943
REMARK  8 active torsions:
REMARK  status: ('A' for Active; 'I' for Inactive)
REMARK    1  A    between atoms: C_1  and  C_2
REMARK    2  A    between atoms: C_2  and  C_3
REMARK    3  A    between atoms: C_3  and  C_4
REMARK    4  A    between atoms: C_4  and  N_5
REMARK    5  A    between atoms: C_11  and  C_18
REMARK    6  A    between atoms: C_20  and  N_25
REMARK    7  A    between atoms: C_23  and  C_24
REMARK    8  A    between atoms: C_26  and  C_28
REMARK                            x       y       z     vdW  Elec       q    Type
REMARK                         _______ _______ _______ _____ _____    ______ ____
ROOT
ATOM      1  C   UNL     1       5.361  -4.623   7.106  0.00  0.00    -0.013 A 
ATOM      2  C   UNL     1       5.137  -3.990   8.326  0.00  0.00    +0.032 A 
ATOM      3  C   UNL     1       5.773  -4.452   9.469  0.00  0.00    +0.034 A 
ATOM      4  C   UNL     1       6.630  -5.544   9.393  0.00  0.00    +0.023 A 
ATOM      5  C   UNL     1       6.852  -6.171   8.182  0.00  0.00    +0.006 A 
ATOM      6  C   UNL     1       6.218  -5.720   7.040  0.00  0.00    -0.043 A 
ATOM      7  C   UNL     1       6.459  -6.411   5.723  0.00  0.00    +0.044 C 
ENDROOT
BRANCH   1  14
ATOM      8  N   UNL     1       1.408  -2.544   2.449  0.00  0.00    -0.261 N 
ATOM      9  C   UNL     1       2.743  -2.738   2.379  0.00  0.00    +0.264 A 
ATOM     10  O   UNL     1       3.352  -2.518   1.349  0.00  0.00    -0.267 OA
ATOM     11  C   UNL     1       3.442  -3.223   3.581  0.00  0.00    +0.063 A 
ATOM     12  C   UNL     1       4.819  -3.447   3.586  0.00  0.00    +0.016 A 
ATOM     13  C   UNL     1       5.429  -3.897   4.722  0.00  0.00    +0.009 A 
ATOM     14  C   UNL     1       4.684  -4.135   5.880  0.00  0.00    -0.016 A 
ATOM     15  C   UNL     1       3.309  -3.916   5.889  0.00  0.00    +0.035 A 
ATOM     16  C   UNL     1       2.683  -3.459   4.742  0.00  0.00    +0.056 A 
ATOM     17  N   UNL     1       1.315  -3.226   4.704  0.00  0.00    -0.307 N 
ATOM     18  H   UNL     1       0.779  -3.385   5.497  0.00  0.00    +0.170 HD
ATOM     19  C   UNL     1       0.728  -2.779   3.581  0.00  0.00    +0.330 A 
ATOM     20  O   UNL     1      -0.472  -2.582   3.591  0.00  0.00    -0.246 OA
BRANCH   8  21
ATOM     21  C   UNL     1       0.690  -2.061   1.266  0.00  0.00    +0.130 C 
BRANCH  21  22
ATOM     22  C   UNL     1       0.666  -0.531   1.273  0.00  0.00    +0.022 C 
BRANCH  22  24
ATOM     23  C   UNL     1      -0.107   1.502   0.045  0.00  0.00    +0.004 C 
ATOM     24  C   UNL     1      -0.084  -0.027   0.039  0.00  0.00    -0.002 C 
ENDBRANCH  22  24
ENDBRANCH  21  22
ENDBRANCH   8  21
ENDBRANCH   1  14
BRANCH   3  25
ATOM     25  N   UNL     1       5.551  -3.820  10.696  0.00  0.00    -0.281 N 
ATOM     26  C   UNL     1       5.367  -2.486  10.744  0.00  0.00    +0.248 C 
ATOM     27  O   UNL     1       5.310  -1.843   9.714  0.00  0.00    -0.270 OA
ATOM     28  H   UNL     1       5.530  -4.342  11.514  0.00  0.00    +0.155 HD
BRANCH  26  29
ATOM     29  C   UNL     1       5.236  -1.803  12.051  0.00  0.00    +0.042 A 
ATOM     30  C   UNL     1       5.305  -2.524  13.250  0.00  0.00    +0.033 A 
ATOM     31  C   UNL     1       5.178  -1.852  14.447  0.00  0.00    +0.113 A 
ATOM     32  N   UNL     1       4.993  -0.546  14.478  0.00  0.00    -0.240 NA
ATOM     33  C   UNL     1       4.921   0.177  13.371  0.00  0.00    +0.122 A 
ATOM     34  C   UNL     1       5.045  -0.422  12.122  0.00  0.00    +0.056 A 
ATOM     35  N   UNL     1       4.724   1.550  13.459  0.00  0.00    -0.315 N 
ATOM     36  C   UNL     1       4.691   2.333  14.703  0.00  0.00    +0.106 C 
ATOM     37  C   UNL     1       4.421   3.802  14.312  0.00  0.00    +0.020 C 
ATOM     38  C   UNL     1       3.756   3.674  12.917  0.00  0.00    +0.020 C 
ATOM     39  C   UNL     1       4.520   2.463  12.320  0.00  0.00    +0.106 C 
ENDBRANCH  26  29
ENDBRANCH   3  25
TORSDOF 6
