REMARK  Name = CHEMBL523880
REMARK  8 active torsions:
REMARK  status: ('A' for Active; 'I' for Inactive)
REMARK    1  A    between atoms: C_1  and  C_2
REMARK    2  A    between atoms: C_2  and  C_3
REMARK    3  A    between atoms: C_2  and  C_26
REMARK    4  A    between atoms: C_3  and  N_4
REMARK    5  A    between atoms: C_7  and  C_11
REMARK    6  A    between atoms: C_12  and  C_19
REMARK    7  A    between atoms: C_14  and  S_17
REMARK    8  A    between atoms: S_17  and  C_18
REMARK                            x       y       z     vdW  Elec       q    Type
REMARK                         _______ _______ _______ _____ _____    ______ ____
ROOT
ATOM      1  N   UNL     1       2.148  -0.104   1.172  0.00  0.00    -0.330 N 
ATOM      2  C   UNL     1       3.024  -0.452   2.194  0.00  0.00    +0.097 A 
ATOM      3  C   UNL     1       2.560  -1.190   3.273  0.00  0.00    +0.051 A 
ATOM      4  C   UNL     1       3.455  -1.532   4.293  0.00  0.00    +0.005 A 
ATOM      5  C   UNL     1       4.789  -1.109   4.174  0.00  0.00    +0.027 A 
ATOM      6  C   UNL     1       5.165  -0.380   3.070  0.00  0.00    +0.085 A 
ATOM      7  N   UNL     1       4.294  -0.080   2.123  0.00  0.00    -0.350 N 
ATOM      8  H   UNL     1       2.467   0.409   0.412  0.00  0.00    +0.147 HD
ATOM      9  H   UNL     1       4.592   0.432   1.355  0.00  0.00    +0.166 HD
ENDROOT
BRANCH   4  10
ATOM     10  C   UNL     1       3.010  -2.314   5.460  0.00  0.00    +0.075 A 
ATOM     11  C   UNL     1       3.660  -3.391   6.033  0.00  0.00    +0.098 A 
ATOM     12  N   UNL     1       2.917  -3.811   7.074  0.00  0.00    -0.221 NA
ATOM     13  C   UNL     1       1.845  -3.061   7.181  0.00  0.00    +0.167 A 
ATOM     14  N   UNL     1       1.861  -2.114   6.204  0.00  0.00    -0.332 N 
ATOM     15  H   UNL     1       1.191  -1.428   6.056  0.00  0.00    +0.168 HD
BRANCH  11  16
ATOM     16  C   UNL     1       4.944  -3.977   5.583  0.00  0.00    +0.003 A 
ATOM     17  C   UNL     1       5.259  -4.012   4.225  0.00  0.00    +0.013 A 
ATOM     18  C   UNL     1       6.456  -4.559   3.811  0.00  0.00    +0.039 A 
ATOM     19  C   UNL     1       7.344  -5.073   4.742  0.00  0.00    +0.123 A 
ATOM     20  C   UNL     1       7.035  -5.042   6.092  0.00  0.00    +0.039 A 
ATOM     21  C   UNL     1       5.844  -4.491   6.516  0.00  0.00    +0.013 A 
ATOM     22  F   UNL     1       8.515  -5.608   4.331  0.00  0.00    -0.205 F 
ENDBRANCH  11  16
BRANCH  13  23
ATOM     23  S   UNL     1       0.588  -3.247   8.402  0.00  0.00    -0.091 S 
ATOM     24  C   UNL     1       1.146  -4.658   9.396  0.00  0.00    +0.093 C 
ENDBRANCH  13  23
ENDBRANCH   4  10
BRANCH   1  25
ATOM     25  C   UNL     1       0.742  -0.511   1.242  0.00  0.00    +0.110 C 
BRANCH  25  27
ATOM     26  C   UNL     1      -0.019   1.526   0.010  0.00  0.00    +0.014 C 
ATOM     27  C   UNL     1       0.002  -0.004   0.002  0.00  0.00    +0.033 C 
BRANCH  27  28
ATOM     28  C   UNL     1      -1.412  -0.526   0.013  0.00  0.00    -0.043 A 
ATOM     29  C   UNL     1      -2.259  -0.204   1.056  0.00  0.00    +0.004 A 
ATOM     30  C   UNL     1      -3.556  -0.683   1.066  0.00  0.00    +0.000 A 
ATOM     31  C   UNL     1      -4.006  -1.482   0.032  0.00  0.00    +0.000 A 
ATOM     32  C   UNL     1      -3.159  -1.803  -1.012  0.00  0.00    +0.000 A 
ATOM     33  C   UNL     1      -1.863  -1.321  -1.024  0.00  0.00    +0.004 A 
ENDBRANCH  27  28
ENDBRANCH  25  27
ENDBRANCH   1  25
TORSDOF 6
