REMARK  Name = CHEMBL357598
REMARK  4 active torsions:
REMARK  status: ('A' for Active; 'I' for Inactive)
REMARK    1  A    between atoms: C_5  and  C_7
REMARK    2  A    between atoms: N_13  and  C_25
REMARK    3  A    between atoms: C_16  and  N_18
REMARK    4  A    between atoms: N_18  and  C_19
REMARK                            x       y       z     vdW  Elec       q    Type
REMARK                         _______ _______ _______ _____ _____    ______ ____
ROOT
ATOM      1  C   UNL     1       1.248  -2.163  -0.021  0.00  0.00    +0.084 A 
ATOM      2  C   UNL     1       0.047  -2.890   0.087  0.00  0.00    +0.025 A 
ATOM      3  C   UNL     1      -1.204  -2.241   0.205  0.00  0.00    +0.017 A 
ATOM      4  C   UNL     1      -2.331  -2.993   0.306  0.00  0.00    +0.071 A 
ATOM      5  C   UNL     1      -2.252  -4.400   0.294  0.00  0.00    +0.256 A 
ATOM      6  O   UNL     1      -3.274  -5.059   0.386  0.00  0.00    -0.267 OA
ATOM      7  N   UNL     1      -1.066  -5.029   0.182  0.00  0.00    -0.274 N 
ATOM      8  C   UNL     1       0.097  -4.301   0.077  0.00  0.00    +0.063 A 
ATOM      9  C   UNL     1       1.336  -4.918  -0.040  0.00  0.00    +0.070 A 
ATOM     10  C   UNL     1       2.475  -4.129  -0.143  0.00  0.00    +0.122 A 
ATOM     11  N   UNL     1       2.402  -2.804  -0.137  0.00  0.00    -0.231 NA
ENDROOT
BRANCH   7  12
ATOM     12  C   UNL     1      -1.016  -6.429   0.173  0.00  0.00    +0.087 A 
ATOM     13  C   UNL     1      -0.886  -7.129   1.366  0.00  0.00    +0.066 A 
ATOM     14  C   UNL     1      -0.838  -8.511   1.353  0.00  0.00    +0.022 A 
ATOM     15  C   UNL     1      -0.917  -9.195   0.154  0.00  0.00    +0.003 A 
ATOM     16  C   UNL     1      -1.046  -8.502  -1.035  0.00  0.00    +0.022 A 
ATOM     17  C   UNL     1      -1.102  -7.121  -1.029  0.00  0.00    +0.066 A 
ATOM     18 CL   UNL     1      -1.272  -6.252  -2.522  0.00  0.00    -0.081 Cl
ATOM     19 CL   UNL     1      -0.785  -6.270   2.871  0.00  0.00    -0.081 Cl
ENDBRANCH   7  12
BRANCH   1  24
ATOM     20  C   UNL     1       0.576   1.380   1.033  0.00  0.00    +0.001 A 
ATOM     21  C   UNL     1       1.170   2.087   0.002  0.00  0.00    +0.001 A 
ATOM     22  C   UNL     1       1.789   1.416  -1.037  0.00  0.00    +0.020 A 
ATOM     23  C   UNL     1       1.818   0.035  -1.051  0.00  0.00    +0.050 A 
ATOM     24  C   UNL     1       1.221  -0.682  -0.013  0.00  0.00    +0.019 A 
ATOM     25  C   UNL     1       0.598   0.001   1.031  0.00  0.00    +0.011 A 
ATOM     26 CL   UNL     1       2.595  -0.805  -2.356  0.00  0.00    -0.083 Cl
ENDBRANCH   1  24
BRANCH  10  27
ATOM     27  N   UNL     1       3.715  -4.739  -0.260  0.00  0.00    -0.326 N 
ATOM     28  H   UNL     1       4.517  -4.199  -0.332  0.00  0.00    +0.148 HD
BRANCH  27  29
ATOM     29  C   UNL     1       3.813  -6.201  -0.274  0.00  0.00    +0.068 C 
ATOM     30  C   UNL     1       3.865  -6.725   1.164  0.00  0.00    +0.003 C 
ATOM     31  C   UNL     1       4.048  -8.244   1.142  0.00  0.00    -0.081 C 
ATOM     32  N   UNL     1       5.299  -8.580   0.452  0.00  0.00    +0.379 N 
ATOM     33  C   UNL     1       5.228  -8.144  -0.948  0.00  0.00    -0.081 C 
ATOM     34  C   UNL     1       5.091  -6.621  -1.006  0.00  0.00    +0.003 C 
ATOM     35  H   UNL     1       6.069  -8.115   0.909  0.00  0.00    -0.086 HD
ATOM     36  H   UNL     1       5.443  -9.578   0.486  0.00  0.00    -0.086 HD
ENDBRANCH  27  29
ENDBRANCH  10  27
TORSDOF 4
