REMARK  Name = CHEMBL1209014
REMARK  11 active torsions:
REMARK  status: ('A' for Active; 'I' for Inactive)
REMARK    1  A    between atoms: C_1  and  C_2
REMARK    2  A    between atoms: C_5  and  N_8
REMARK    3  A    between atoms: C_10  and  C_36
REMARK    4  A    between atoms: N_16  and  C_17
REMARK    5  A    between atoms: C_20  and  O_27
REMARK    6  A    between atoms: O_27  and  C_28
REMARK    7  A    between atoms: C_28  and  C_29
REMARK    8  A    between atoms: C_29  and  N_30
REMARK    9  A    between atoms: C_36  and  C_37
REMARK   10  A    between atoms: C_36  and  C_38
REMARK   11  A    between atoms: C_36  and  C_39
REMARK                            x       y       z     vdW  Elec       q    Type
REMARK                         _______ _______ _______ _____ _____    ______ ____
ROOT
ATOM      1  N   UNL     1       0.324  -4.363   0.010  0.00  0.00    -0.238 N 
ATOM      2  C   UNL     1       0.241  -5.181   1.091  0.00  0.00    +0.120 A 
ATOM      3  C   UNL     1       0.108  -6.449   0.640  0.00  0.00    +0.018 A 
ATOM      4  C   UNL     1       0.109  -6.409  -0.764  0.00  0.00    +0.152 A 
ATOM      5  N   UNL     1       0.232  -5.158  -1.139  0.00  0.00    -0.151 NA
ATOM      6  N   UNL     1      -0.008  -7.515  -1.617  0.00  0.00    -0.252 N 
ATOM      7  C   UNL     1       0.006  -7.340  -2.953  0.00  0.00    +0.309 C 
ATOM      8  O   UNL     1       0.121  -6.222  -3.419  0.00  0.00    -0.252 OA
ATOM      9  N   UNL     1      -0.106  -8.403  -3.774  0.00  0.00    -0.269 N 
ATOM     10  H   UNL     1      -0.100  -8.406  -1.246  0.00  0.00    +0.158 HD
ATOM     11  H   UNL     1      -0.127  -9.300  -3.405  0.00  0.00    +0.156 HD
ENDROOT
BRANCH   9  12
ATOM     12  C   UNL     1      -0.194  -8.213  -5.157  0.00  0.00    +0.043 A 
ATOM     13  C   UNL     1       0.489  -7.180  -5.760  0.00  0.00    +0.027 A 
ATOM     14  C   UNL     1       0.411  -6.980  -7.135  0.00  0.00    +0.048 A 
ATOM     15  C   UNL     1      -0.344  -7.801  -7.924  0.00  0.00    +0.128 A 
ATOM     16  C   UNL     1      -1.056  -8.869  -7.344  0.00  0.00    +0.026 A 
ATOM     17  C   UNL     1      -0.977  -9.083  -5.945  0.00  0.00    +0.007 A 
ATOM     18  C   UNL     1      -1.683 -10.151  -5.370  0.00  0.00    +0.010 A 
ATOM     19  C   UNL     1      -2.429 -10.970  -6.161  0.00  0.00    +0.001 A 
ATOM     20  C   UNL     1      -2.503 -10.764  -7.537  0.00  0.00    +0.001 A 
ATOM     21  C   UNL     1      -1.842  -9.731  -8.127  0.00  0.00    +0.012 A 
BRANCH  15  22
ATOM     22  O   UNL     1      -0.407  -7.588  -9.264  0.00  0.00    -0.490 OA
BRANCH  22  23
ATOM     23  C   UNL     1       0.341  -6.486  -9.783  0.00  0.00    +0.244 C 
BRANCH  23  24
ATOM     24  C   UNL     1       0.147  -6.406 -11.298  0.00  0.00    +0.125 C 
BRANCH  24  25
ATOM     25  N   UNL     1      -1.264  -6.130 -11.598  0.00  0.00    -0.295 NA
ATOM     26  C   UNL     1      -1.540  -6.291 -13.033  0.00  0.00    +0.112 C 
ATOM     27  C   UNL     1      -3.030  -6.053 -13.291  0.00  0.00    +0.175 C 
ATOM     28  O   UNL     1      -3.389  -4.754 -12.813  0.00  0.00    -0.377 OA
ATOM     29  C   UNL     1      -3.135  -4.562 -11.418  0.00  0.00    +0.175 C 
ATOM     30  C   UNL     1      -1.646  -4.785 -11.142  0.00  0.00    +0.112 C 
ENDBRANCH  24  25
ENDBRANCH  23  24
ENDBRANCH  22  23
ENDBRANCH  15  22
ENDBRANCH   9  12
BRANCH   1  35
ATOM     31  C   UNL     1       0.908   1.280   0.130  0.00  0.00    +0.044 C 
ATOM     32  C   UNL     1       0.753  -0.218   0.098  0.00  0.00    -0.050 A 
ATOM     33  C   UNL     1       0.676  -0.878  -1.114  0.00  0.00    +0.005 A 
ATOM     34  C   UNL     1       0.534  -2.252  -1.147  0.00  0.00    +0.028 A 
ATOM     35  C   UNL     1       0.468  -2.970   0.040  0.00  0.00    +0.065 A 
ATOM     36  C   UNL     1       0.546  -2.304   1.256  0.00  0.00    +0.028 A 
ATOM     37  C   UNL     1       0.694  -0.931   1.282  0.00  0.00    +0.005 A 
ENDBRANCH   1  35
BRANCH   3  38
ATOM     38  C   UNL     1      -0.017  -7.685   1.492  0.00  0.00    -0.008 C 
ATOM     39  C   UNL     1       0.028  -7.292   2.970  0.00  0.00    +0.016 C 
ATOM     40  C   UNL     1      -1.346  -8.380   1.189  0.00  0.00    +0.016 C 
ATOM     41  C   UNL     1       1.139  -8.638   1.183  0.00  0.00    +0.016 C 
ENDBRANCH   3  38
TORSDOF 7
