REMARK  Name = CHEMBL494270
REMARK  8 active torsions:
REMARK  status: ('A' for Active; 'I' for Inactive)
REMARK    1  A    between atoms: C_1  and  C_2
REMARK    2  A    between atoms: C_5  and  C_27
REMARK    3  A    between atoms: C_7  and  C_8
REMARK    4  A    between atoms: C_17  and  N_18
REMARK    5  A    between atoms: N_18  and  C_19
REMARK    6  A    between atoms: C_19  and  C_20
REMARK    7  A    between atoms: C_20  and  N_21
REMARK    8  A    between atoms: N_29  and  C_30
REMARK                            x       y       z     vdW  Elec       q    Type
REMARK                         _______ _______ _______ _____ _____    ______ ____
ROOT
ATOM      1  C   UNL     1       0.025   0.030   2.495  0.00  0.00    -0.017 A 
ATOM      2  C   UNL     1       0.943   1.071   2.699  0.00  0.00    +0.009 A 
ATOM      3  C   UNL     1       0.968   1.763   3.871  0.00  0.00    +0.012 A 
ATOM      4  C   UNL     1       0.066   1.434   4.890  0.00  0.00    +0.025 A 
ATOM      5  C   UNL     1      -0.868   0.382   4.696  0.00  0.00    +0.006 A 
ATOM      6  C   UNL     1      -0.882  -0.314   3.482  0.00  0.00    +0.018 A 
ATOM      7  C   UNL     1      -1.754   0.089   5.749  0.00  0.00    +0.143 A 
ATOM      8  N   UNL     1      -1.684   0.791   6.857  0.00  0.00    -0.155 NA
ATOM      9  N   UNL     1      -0.844   1.740   7.040  0.00  0.00    -0.134 NA
ATOM     10  C   UNL     1       0.039   2.112   6.130  0.00  0.00    +0.149 A 
ENDROOT
BRANCH   1  17
ATOM     11  C   UNL     1      -0.018   1.503   0.010  0.00  0.00    +0.044 C 
ATOM     12  C   UNL     1       0.002  -0.004   0.002  0.00  0.00    -0.043 A 
ATOM     13  C   UNL     1       0.006  -0.686  -1.199  0.00  0.00    +0.005 A 
ATOM     14  C   UNL     1       0.025  -2.067  -1.216  0.00  0.00    +0.013 A 
ATOM     15  C   UNL     1       0.041  -2.781  -0.016  0.00  0.00    +0.037 A 
ATOM     16  C   UNL     1       0.037  -2.097   1.199  0.00  0.00    +0.021 A 
ATOM     17  C   UNL     1       0.023  -0.706   1.207  0.00  0.00    -0.014 A 
BRANCH  15  18
ATOM     18  C   UNL     1       0.061  -4.259  -0.034  0.00  0.00    +0.244 C 
ATOM     19  O   UNL     1       0.074  -4.880   1.012  0.00  0.00    -0.270 OA
ATOM     20  N   UNL     1       0.064  -4.919  -1.209  0.00  0.00    -0.308 N 
ATOM     21  H   UNL     1       0.053  -4.424  -2.043  0.00  0.00    +0.149 HD
BRANCH  20  22
ATOM     22  C   UNL     1       0.084  -6.384  -1.226  0.00  0.00    +0.073 C 
ATOM     23  C   UNL     1       1.024  -7.066  -2.222  0.00  0.00    +0.024 C 
ATOM     24  C   UNL     1      -0.487  -7.083  -2.462  0.00  0.00    +0.024 C 
ENDBRANCH  20  22
ENDBRANCH  15  18
ENDBRANCH   1  17
BRANCH  10  25
ATOM     25  N   UNL     1       0.923   3.147   6.386  0.00  0.00    -0.326 N 
ATOM     26  H   UNL     1       1.568   3.413   5.712  0.00  0.00    +0.148 HD
BRANCH  25  27
ATOM     27  C   UNL     1       0.883   3.842   7.676  0.00  0.00    +0.118 C 
BRANCH  27  28
ATOM     28  C   UNL     1       1.955   4.934   7.700  0.00  0.00    +0.103 C 
BRANCH  28  29
ATOM     29  N   UNL     1       1.915   5.630   8.993  0.00  0.00    -0.297 NA
ATOM     30  C   UNL     1       0.659   6.378   9.151  0.00  0.00    +0.112 C 
ATOM     31  C   UNL     1       0.634   7.037  10.532  0.00  0.00    +0.175 C 
ATOM     32  O   UNL     1       1.784   7.874  10.677  0.00  0.00    -0.377 OA
ATOM     33  C   UNL     1       3.025   7.178  10.530  0.00  0.00    +0.175 C 
ATOM     34  C   UNL     1       3.074   6.520   9.148  0.00  0.00    +0.112 C 
ENDBRANCH  28  29
ENDBRANCH  27  28
ENDBRANCH  25  27
ENDBRANCH  10  25
TORSDOF 7
