REMARK  Name = CHEMBL1098822
REMARK  3 active torsions:
REMARK  status: ('A' for Active; 'I' for Inactive)
REMARK    1  A    between atoms: C_4  and  C_20
REMARK    2  A    between atoms: C_10  and  C_12
REMARK    3  A    between atoms: C_23  and  C_27
REMARK                            x       y       z     vdW  Elec       q    Type
REMARK                         _______ _______ _______ _____ _____    ______ ____
ROOT
ATOM      1  C   UNL     1      -0.013   1.393   0.099  0.00  0.00    +0.004 A 
ATOM      2  C   UNL     1       1.161   2.084   0.003  0.00  0.00    +0.027 A 
ATOM      3  C   UNL     1       2.374   1.388  -0.102  0.00  0.00    +0.058 A 
ATOM      4  C   UNL     1       3.581   2.100  -0.200  0.00  0.00    +0.058 A 
ATOM      5  C   UNL     1       4.790   1.379  -0.306  0.00  0.00    +0.190 A 
ATOM      6  O   UNL     1       5.860   1.966  -0.393  0.00  0.00    -0.287 OA
ATOM      7  C   UNL     1       4.740  -0.036  -0.308  0.00  0.00    +0.069 A 
ATOM      8  C   UNL     1       3.558  -0.671  -0.212  0.00  0.00    +0.095 A 
ATOM      9  N   UNL     1       2.384   0.017  -0.109  0.00  0.00    -0.315 N 
ATOM     10  C   UNL     1       1.202  -0.677  -0.013  0.00  0.00    +0.056 A 
ATOM     11  C   UNL     1       0.006  -0.004   0.091  0.00  0.00    +0.027 A 
ENDROOT
BRANCH  10  12
ATOM     12  C   UNL     1       1.215  -2.153  -0.021  0.00  0.00    +0.034 A 
ATOM     13  C   UNL     1       1.624  -2.844  -1.164  0.00  0.00    +0.015 A 
ATOM     14  C   UNL     1       1.635  -4.222  -1.166  0.00  0.00    +0.039 A 
ATOM     15  C   UNL     1       1.241  -4.925  -0.036  0.00  0.00    +0.126 A 
ATOM     16  C   UNL     1       0.834  -4.247   1.101  0.00  0.00    +0.077 A 
ATOM     17  C   UNL     1       0.824  -2.865   1.118  0.00  0.00    +0.135 A 
ATOM     18  F   UNL     1       0.432  -2.204   2.229  0.00  0.00    -0.205 F 
ATOM     19  F   UNL     1       1.254  -6.275  -0.046  0.00  0.00    -0.205 F 
ENDBRANCH  10  12
BRANCH   4  20
ATOM     20  C   UNL     1       3.585   3.578  -0.194  0.00  0.00    +0.058 A 
ATOM     21  C   UNL     1       3.480   4.283  -1.398  0.00  0.00    +0.135 A 
ATOM     22  C   UNL     1       3.484   5.661  -1.391  0.00  0.00    +0.052 A 
ATOM     23  C   UNL     1       3.593   6.354  -0.182  0.00  0.00    +0.044 A 
ATOM     24  C   UNL     1       3.699   5.651   1.020  0.00  0.00    +0.052 A 
ATOM     25  C   UNL     1       3.689   4.272   1.016  0.00  0.00    +0.135 A 
ATOM     26  F   UNL     1       3.785   3.592   2.179  0.00  0.00    -0.205 F 
ATOM     27  F   UNL     1       3.375   3.614  -2.567  0.00  0.00    -0.205 F 
BRANCH  23  28
ATOM     28  C   UNL     1       3.598   7.831  -0.176  0.00  0.00    +0.248 A 
ATOM     29  N   UNL     1       3.501   8.615  -1.226  0.00  0.00    -0.108 NA
ATOM     30  N   UNL     1       3.539   9.842  -0.843  0.00  0.00    -0.116 NA
ATOM     31  C   UNL     1       3.662   9.891   0.455  0.00  0.00    +0.332 A 
ATOM     32  O   UNL     1       3.697   8.626   0.908  0.00  0.00    -0.423 OA
ENDBRANCH  23  28
ENDBRANCH   4  20
TORSDOF 3
