REMARK  Name = CHEMBL119699
REMARK  5 active torsions:
REMARK  status: ('A' for Active; 'I' for Inactive)
REMARK    1  A    between atoms: C_6  and  C_7
REMARK    2  A    between atoms: C_8  and  C_19
REMARK    3  A    between atoms: C_10  and  C_12
REMARK    4  A    between atoms: C_12  and  O_18
REMARK    5  A    between atoms: N_25  and  C_26
REMARK                            x       y       z     vdW  Elec       q    Type
REMARK                         _______ _______ _______ _____ _____    ______ ____
ROOT
ATOM      1  C   UNL     1      -1.255  -0.789   0.044  0.00  0.00    +0.086 A 
ATOM      2  C   UNL     1      -1.445  -1.920  -0.749  0.00  0.00    +0.047 A 
ATOM      3  S   UNL     1      -3.143  -2.310  -0.357  0.00  0.00    -0.069 S 
ATOM      4  C   UNL     1      -3.432  -1.056   0.726  0.00  0.00    +0.111 A 
ATOM      5  N   UNL     1      -2.295  -0.410   0.767  0.00  0.00    -0.240 NA
ENDROOT
BRANCH   4   6
ATOM      6  C   UNL     1      -4.702  -0.751   1.478  0.00  0.00    +0.111 C 
ATOM      7  C   UNL     1      -5.192   0.651   1.107  0.00  0.00    +0.022 C 
ATOM      8  C   UNL     1      -6.437   0.985   1.933  0.00  0.00    -0.079 C 
ATOM      9  N   UNL     1      -6.106   0.943   3.362  0.00  0.00    +0.379 N 
ATOM     10  C   UNL     1      -5.703  -0.417   3.740  0.00  0.00    -0.079 C 
ATOM     11  C   UNL     1      -4.430  -0.805   2.984  0.00  0.00    +0.022 C 
ATOM     12  H   UNL     1      -5.348   1.582   3.549  0.00  0.00    -0.086 HD
ATOM     13  H   UNL     1      -6.914   1.216   3.901  0.00  0.00    -0.086 HD
BRANCH   6  14
ATOM     14  O   UNL     1      -5.701  -1.715   1.138  0.00  0.00    -0.382 OA
ATOM     15  H   UNL     1      -5.925  -1.734   0.198  0.00  0.00    +0.211 HD
ENDBRANCH   6  14
ENDBRANCH   4   6
BRANCH   2  16
ATOM     16  C   UNL     1      -0.506  -2.603  -1.659  0.00  0.00    -0.005 A 
ATOM     17  C   UNL     1       0.799  -2.915  -1.246  0.00  0.00    +0.029 A 
ATOM     18  C   UNL     1       1.645  -3.553  -2.124  0.00  0.00    +0.113 A 
ATOM     19  N   UNL     1       1.247  -3.873  -3.342  0.00  0.00    -0.240 NA
ATOM     20  C   UNL     1       0.026  -3.599  -3.776  0.00  0.00    +0.119 A 
ATOM     21  C   UNL     1      -0.893  -2.962  -2.953  0.00  0.00    +0.052 A 
ATOM     22  N   UNL     1      -0.342  -3.958  -5.068  0.00  0.00    -0.326 N 
ATOM     23  H   UNL     1       0.295  -4.406  -5.647  0.00  0.00    +0.148 HD
BRANCH  22  24
ATOM     24  C   UNL     1      -1.690  -3.658  -5.556  0.00  0.00    +0.072 C 
ATOM     25  C   UNL     1      -2.646  -4.775  -5.132  0.00  0.00    +0.022 C 
ATOM     26  C   UNL     1      -4.054  -4.462  -5.641  0.00  0.00    +0.002 C 
ATOM     27  C   UNL     1      -4.033  -4.361  -7.168  0.00  0.00    +0.000 C 
ATOM     28  C   UNL     1      -3.078  -3.245  -7.593  0.00  0.00    +0.002 C 
ATOM     29  C   UNL     1      -1.669  -3.558  -7.083  0.00  0.00    +0.022 C 
ENDBRANCH  22  24
ENDBRANCH   2  16
BRANCH   1  35
ATOM     30  C   UNL     1       0.736   0.177  -1.103  0.00  0.00    +0.013 A 
ATOM     31  C   UNL     1       1.936   0.856  -1.065  0.00  0.00    +0.039 A 
ATOM     32  C   UNL     1       2.446   1.300   0.144  0.00  0.00    +0.123 A 
ATOM     33  C   UNL     1       1.754   1.064   1.321  0.00  0.00    +0.039 A 
ATOM     34  C   UNL     1       0.552   0.387   1.294  0.00  0.00    +0.013 A 
ATOM     35  C   UNL     1       0.035  -0.062   0.079  0.00  0.00    +0.002 A 
ATOM     36  F   UNL     1       3.622   1.963   0.176  0.00  0.00    -0.205 F 
ENDBRANCH   1  35
TORSDOF 5
