REMARK  Name = CHEMBL424107
REMARK  12 active torsions:
REMARK  status: ('A' for Active; 'I' for Inactive)
REMARK    1  A    between atoms: C_1  and  C_2
REMARK    2  A    between atoms: C_5  and  N_8
REMARK    3  A    between atoms: C_9  and  N_17
REMARK    4  A    between atoms: C_11  and  C_13
REMARK    5  A    between atoms: C_13  and  C_14
REMARK    6  A    between atoms: C_13  and  C_15
REMARK    7  A    between atoms: C_13  and  C_16
REMARK    8  A    between atoms: N_20  and  C_21
REMARK    9  A    between atoms: C_24  and  O_31
REMARK   10  A    between atoms: O_31  and  C_32
REMARK   11  A    between atoms: C_32  and  C_33
REMARK   12  A    between atoms: C_33  and  N_34
REMARK                            x       y       z     vdW  Elec       q    Type
REMARK                         _______ _______ _______ _____ _____    ______ ____
ROOT
ATOM      1  N   UNL     1       1.564  -3.818   2.750  0.00  0.00    -0.254 N 
ATOM      2  C   UNL     1       2.073  -4.807   3.510  0.00  0.00    +0.309 C 
ATOM      3  O   UNL     1       1.548  -5.904   3.512  0.00  0.00    -0.252 OA
ATOM      4  N   UNL     1       3.165  -4.581   4.268  0.00  0.00    -0.269 N 
ATOM      5  H   UNL     1       1.983  -2.943   2.748  0.00  0.00    +0.158 HD
ATOM      6  H   UNL     1       3.624  -3.728   4.215  0.00  0.00    +0.156 HD
ENDROOT
BRANCH   4   7
ATOM      7  C   UNL     1       3.635  -5.577   5.130  0.00  0.00    +0.043 A 
ATOM      8  C   UNL     1       3.531  -6.905   4.780  0.00  0.00    +0.027 A 
ATOM      9  C   UNL     1       3.996  -7.905   5.628  0.00  0.00    +0.048 A 
ATOM     10  C   UNL     1       4.567  -7.599   6.831  0.00  0.00    +0.128 A 
ATOM     11  C   UNL     1       4.692  -6.252   7.224  0.00  0.00    +0.026 A 
ATOM     12  C   UNL     1       4.226  -5.228   6.363  0.00  0.00    +0.007 A 
ATOM     13  C   UNL     1       4.356  -3.886   6.754  0.00  0.00    +0.010 A 
ATOM     14  C   UNL     1       4.931  -3.585   7.951  0.00  0.00    +0.001 A 
ATOM     15  C   UNL     1       5.394  -4.592   8.796  0.00  0.00    +0.001 A 
ATOM     16  C   UNL     1       5.275  -5.904   8.454  0.00  0.00    +0.012 A 
BRANCH  10  17
ATOM     17  O   UNL     1       5.014  -8.591   7.645  0.00  0.00    -0.493 OA
BRANCH  17  18
ATOM     18  C   UNL     1       4.854  -9.933   7.181  0.00  0.00    +0.210 C 
BRANCH  18  19
ATOM     19  C   UNL     1       5.412 -10.903   8.225  0.00  0.00    -0.037 C 
BRANCH  19  20
ATOM     20  N   UNL     1       4.629 -10.794   9.463  0.00  0.00    +0.382 N 
ATOM     21  C   UNL     1       5.258 -11.606  10.511  0.00  0.00    -0.079 C 
ATOM     22  C   UNL     1       4.492 -11.432  11.825  0.00  0.00    -0.019 C 
ATOM     23  C   UNL     1       3.042 -11.883  11.628  0.00  0.00    -0.004 C 
ATOM     24  C   UNL     1       2.419 -11.080  10.482  0.00  0.00    -0.019 C 
ATOM     25  C   UNL     1       3.261 -11.267   9.219  0.00  0.00    -0.079 C 
ATOM     26  H   UNL     1       4.602  -9.829   9.758  0.00  0.00    -0.082 HD
ENDBRANCH  19  20
ENDBRANCH  18  19
ENDBRANCH  17  18
ENDBRANCH  10  17
ENDBRANCH   4   7
BRANCH   1  28
ATOM     27  N   UNL     1      -0.183  -3.150   1.154  0.00  0.00    -0.218 N 
ATOM     28  C   UNL     1       0.435  -4.051   1.966  0.00  0.00    +0.130 A 
ATOM     29  C   UNL     1      -0.252  -5.223   1.871  0.00  0.00    +0.069 A 
ATOM     30  C   UNL     1      -1.312  -5.029   0.981  0.00  0.00    +0.071 A 
ATOM     31  N   UNL     1      -1.276  -3.791   0.557  0.00  0.00    -0.169 NA
BRANCH  27  36
ATOM     32  C   UNL     1       1.375   2.248   0.353  0.00  0.00    +0.044 C 
ATOM     33  C   UNL     1       0.961   0.815   0.566  0.00  0.00    -0.050 A 
ATOM     34  C   UNL     1       0.422   0.090  -0.481  0.00  0.00    +0.005 A 
ATOM     35  C   UNL     1       0.042  -1.224  -0.289  0.00  0.00    +0.028 A 
ATOM     36  C   UNL     1       0.202  -1.817   0.956  0.00  0.00    +0.067 A 
ATOM     37  C   UNL     1       0.745  -1.087   2.005  0.00  0.00    +0.028 A 
ATOM     38  C   UNL     1       1.127   0.225   1.806  0.00  0.00    +0.005 A 
ENDBRANCH  27  36
BRANCH  30  39
ATOM     39  C   UNL     1      -2.329  -6.067   0.582  0.00  0.00    +0.006 C 
ATOM     40  C   UNL     1      -3.322  -6.275   1.727  0.00  0.00    +0.017 C 
ATOM     41  C   UNL     1      -3.079  -5.593  -0.664  0.00  0.00    +0.017 C 
ATOM     42  C   UNL     1      -1.617  -7.387   0.278  0.00  0.00    +0.017 C 
ENDBRANCH  30  39
ENDBRANCH   1  28
TORSDOF 8
