REMARK  Name = CHEMBL254365
REMARK  6 active torsions:
REMARK  status: ('A' for Active; 'I' for Inactive)
REMARK    1  A    between atoms: C_1  and  C_2
REMARK    2  A    between atoms: C_2  and  N_3
REMARK    3  A    between atoms: C_4  and  C_6
REMARK    4  A    between atoms: C_9  and  C_27
REMARK    5  A    between atoms: C_10  and  N_12
REMARK    6  A    between atoms: N_21  and  C_22
REMARK                            x       y       z     vdW  Elec       q    Type
REMARK                         _______ _______ _______ _____ _____    ______ ____
ROOT
ATOM      1  N   UNL     1      -4.775  -5.575   0.029  0.00  0.00    -0.268 N 
ATOM      2  C   UNL     1      -4.923  -6.388  -1.181  0.00  0.00    +0.139 C 
ATOM      3  C   UNL     1      -4.758  -7.858  -0.735  0.00  0.00    +0.121 C 
ATOM      4  C   UNL     1      -5.110  -7.770   0.785  0.00  0.00    +0.164 C 
ATOM      5  C   UNL     1      -4.898  -6.321   1.138  0.00  0.00    +0.235 C 
ATOM      6  O   UNL     1      -4.849  -5.887   2.270  0.00  0.00    -0.274 OA
ATOM      7  S   UNL     1      -6.914  -8.115   0.662  0.00  0.00    -0.078 S 
ATOM      8  C   UNL     1      -6.901  -8.928  -0.928  0.00  0.00    +0.129 C 
ATOM      9  N   UNL     1      -5.729  -8.681  -1.436  0.00  0.00    -0.362 N 
ATOM     10  N   UNL     1      -7.917  -9.662  -1.496  0.00  0.00    -0.323 N 
ATOM     11  H   UNL     1      -7.796 -10.061  -2.371  0.00  0.00    +0.148 HD
ATOM     12  H   UNL     1      -5.499  -9.054  -2.301  0.00  0.00    +0.162 HD
ENDROOT
BRANCH   1  17
ATOM     13  C   UNL     1      -2.988  -2.351   0.018  0.00  0.00    +0.038 A 
ATOM     14  C   UNL     1      -4.063  -1.460   0.027  0.00  0.00    +0.013 A 
ATOM     15  C   UNL     1      -5.356  -1.941   0.037  0.00  0.00    +0.006 A 
ATOM     16  C   UNL     1      -5.593  -3.303   0.038  0.00  0.00    -0.029 A 
ATOM     17  C   UNL     1      -4.530  -4.197   0.029  0.00  0.00    +0.040 A 
ATOM     18  C   UNL     1      -3.227  -3.725   0.013  0.00  0.00    +0.036 A 
ATOM     19  C   UNL     1      -7.009  -3.819   0.049  0.00  0.00    +0.045 C 
BRANCH  13  21
ATOM     20  N   UNL     1      -1.372  -0.511   0.012  0.00  0.00    -0.312 N 
ATOM     21  C   UNL     1      -1.601  -1.839   0.007  0.00  0.00    +0.244 C 
ATOM     22  O   UNL     1      -0.666  -2.617  -0.006  0.00  0.00    -0.270 OA
ATOM     23  H   UNL     1      -2.118   0.109   0.023  0.00  0.00    +0.149 HD
BRANCH  20  25
ATOM     24  C   UNL     1      -0.019   1.526   0.010  0.00  0.00    +0.024 C 
ATOM     25  C   UNL     1       0.002  -0.004   0.002  0.00  0.00    +0.101 C 
ENDBRANCH  20  25
ENDBRANCH  13  21
ENDBRANCH   1  17
BRANCH  10  26
ATOM     26  C   UNL     1      -9.181  -9.841  -0.777  0.00  0.00    +0.072 C 
ATOM     27  C   UNL     1      -9.097 -11.077   0.142  0.00  0.00    +0.022 C 
ATOM     28  C   UNL     1     -10.508 -11.709   0.060  0.00  0.00    +0.002 C 
ATOM     29  C   UNL     1     -10.888 -11.505  -1.427  0.00  0.00    +0.002 C 
ATOM     30  C   UNL     1     -10.321 -10.113  -1.775  0.00  0.00    +0.022 C 
ENDBRANCH  10  26
TORSDOF 4
