REMARK  Name = CHEMBL66600
REMARK  4 active torsions:
REMARK  status: ('A' for Active; 'I' for Inactive)
REMARK    1  A    between atoms: C_8  and  C_10
REMARK    2  A    between atoms: C_11  and  C_26
REMARK    3  A    between atoms: C_13  and  C_16
REMARK    4  A    between atoms: C_18  and  N_24
REMARK                            x       y       z     vdW  Elec       q    Type
REMARK                         _______ _______ _______ _____ _____    ______ ____
ROOT
ATOM      1  C   UNL     1       3.796  -3.330  -0.053  0.00  0.00    +0.132 A 
ATOM      2  C   UNL     1       5.013  -3.485  -0.705  0.00  0.00    +0.077 A 
ATOM      3  N   UNL     1       5.428  -4.772  -0.450  0.00  0.00    -0.337 N 
ATOM      4  C   UNL     1       4.475  -5.355   0.333  0.00  0.00    +0.145 A 
ATOM      5  N   UNL     1       3.516  -4.489   0.566  0.00  0.00    -0.224 NA
ATOM      6  H   UNL     1       6.245  -5.186  -0.768  0.00  0.00    +0.167 HD
ENDROOT
BRANCH   4   7
ATOM      7  C   UNL     1       4.518  -6.742   0.843  0.00  0.00    +0.094 A 
ATOM      8  C   UNL     1       5.596  -7.584   0.544  0.00  0.00    +0.176 A 
ATOM      9  C   UNL     1       5.597  -8.881   1.043  0.00  0.00    +0.155 A 
ATOM     10  N   UNL     1       4.597  -9.322   1.791  0.00  0.00    -0.212 NA
ATOM     11  C   UNL     1       3.560  -8.556   2.096  0.00  0.00    +0.155 A 
ATOM     12  C   UNL     1       3.484  -7.246   1.642  0.00  0.00    +0.176 A 
ATOM     13  F   UNL     1       2.425  -6.470   1.962  0.00  0.00    -0.201 F 
ATOM     14  N   UNL     1       2.534  -9.071   2.886  0.00  0.00    -0.341 N 
ATOM     15  F   UNL     1       6.619  -7.143  -0.219  0.00  0.00    -0.201 F 
ATOM     16  H   UNL     1       2.583  -9.984   3.209  0.00  0.00    +0.144 HD
ATOM     17  H   UNL     1       1.772  -8.516   3.113  0.00  0.00    +0.144 HD
BRANCH   9  18
ATOM     18  N   UNL     1       6.665  -9.728   0.752  0.00  0.00    -0.341 N 
ATOM     19  H   UNL     1       7.400  -9.411   0.205  0.00  0.00    +0.144 HD
ATOM     20  H   UNL     1       6.672 -10.634   1.097  0.00  0.00    +0.144 HD
ENDBRANCH   9  18
ENDBRANCH   4   7
BRANCH   1  28
ATOM     21  C   UNL     1      -0.017   1.363   0.009  0.00  0.00    +0.001 A 
ATOM     22  C   UNL     1       1.170   2.082   0.002  0.00  0.00    +0.004 A 
ATOM     23  C   UNL     1       2.387   1.432  -0.013  0.00  0.00    +0.047 A 
ATOM     24  C   UNL     1       2.430   0.044  -0.021  0.00  0.00    +0.136 A 
ATOM     25  C   UNL     1       1.224  -0.679  -0.013  0.00  0.00    +0.021 A 
ATOM     26  C   UNL     1       0.002  -0.004   0.002  0.00  0.00    +0.011 A 
ATOM     27  C   UNL     1       1.609  -2.092  -0.025  0.00  0.00    +0.060 A 
ATOM     28  C   UNL     1       2.965  -2.111  -0.039  0.00  0.00    +0.156 A 
ATOM     29  O   UNL     1       3.440  -0.850  -0.036  0.00  0.00    -0.453 OA
ENDBRANCH   1  28
BRANCH   2  30
ATOM     30  C   UNL     1       5.719  -2.472  -1.510  0.00  0.00    +0.003 A 
ATOM     31  C   UNL     1       5.031  -1.686  -2.446  0.00  0.00    +0.030 A 
ATOM     32  C   UNL     1       5.732  -0.751  -3.176  0.00  0.00    +0.111 A 
ATOM     33  N   UNL     1       7.031  -0.591  -3.006  0.00  0.00    -0.263 NA
ATOM     34  C   UNL     1       7.718  -1.309  -2.136  0.00  0.00    +0.111 A 
ATOM     35  C   UNL     1       7.097  -2.263  -1.359  0.00  0.00    +0.030 A 
ENDBRANCH   2  30
TORSDOF 4
