REMARK  Name = CHEMBL512255
REMARK  6 active torsions:
REMARK  status: ('A' for Active; 'I' for Inactive)
REMARK    1  A    between atoms: C_1  and  O_2
REMARK    2  A    between atoms: O_2  and  C_3
REMARK    3  A    between atoms: C_6  and  C_28
REMARK    4  A    between atoms: C_8  and  C_9
REMARK    5  A    between atoms: N_19  and  C_20
REMARK    6  A    between atoms: N_30  and  N_31
REMARK                            x       y       z     vdW  Elec       q    Type
REMARK                         _______ _______ _______ _____ _____    ______ ____
ROOT
ATOM      1  C   UNL     1       0.088  -2.687   0.085  0.00  0.00    +0.079 A 
ATOM      2  C   UNL     1      -1.267  -2.760   0.412  0.00  0.00    +0.046 A 
ATOM      3  C   UNL     1      -2.418  -2.037   0.043  0.00  0.00    +0.017 A 
ATOM      4  C   UNL     1      -3.612  -2.407   0.583  0.00  0.00    +0.044 A 
ATOM      5  C   UNL     1      -3.686  -3.481   1.482  0.00  0.00    +0.125 A 
ATOM      6  N   UNL     1      -2.625  -4.172   1.842  0.00  0.00    -0.211 NA
ATOM      7  C   UNL     1      -1.407  -3.876   1.358  0.00  0.00    +0.183 A 
ATOM      8  N   UNL     1      -0.199  -4.380   1.535  0.00  0.00    -0.153 NA
ATOM      9  H   UNL     1       1.673  -3.850   0.716  0.00  0.00    +0.189 HD
ATOM     10  N   UNL     1       0.721  -3.668   0.760  0.00  0.00    -0.274 N 
ATOM     11  N   UNL     1      -4.920  -3.827   2.010  0.00  0.00    -0.297 N 
ATOM     12  H   UNL     1      -5.725  -3.393   1.687  0.00  0.00    +0.154 HD
ENDROOT
BRANCH  11  13
ATOM     13  C   UNL     1      -5.005  -4.803   3.011  0.00  0.00    +0.068 A 
ATOM     14  C   UNL     1      -3.971  -4.954   3.924  0.00  0.00    +0.029 A 
ATOM     15  C   UNL     1      -4.056  -5.917   4.911  0.00  0.00    +0.040 A 
ATOM     16  C   UNL     1      -5.172  -6.733   4.990  0.00  0.00    +0.126 A 
ATOM     17  C   UNL     1      -6.206  -6.585   4.081  0.00  0.00    +0.078 A 
ATOM     18  C   UNL     1      -6.128  -5.619   3.095  0.00  0.00    +0.147 A 
ATOM     19  F   UNL     1      -7.139  -5.471   2.211  0.00  0.00    -0.203 F 
ATOM     20  F   UNL     1      -5.253  -7.674   5.956  0.00  0.00    -0.205 F 
ENDBRANCH  11  13
BRANCH   1  26
ATOM     21  C   UNL     1       0.718  -0.349  -0.521  0.00  0.00    +0.129 A 
ATOM     22  C   UNL     1       1.310   0.560  -1.386  0.00  0.00    +0.047 A 
ATOM     23  C   UNL     1       1.891   0.126  -2.558  0.00  0.00    +0.017 A 
ATOM     24  C   UNL     1       1.886  -1.234  -2.885  0.00  0.00    +0.039 A 
ATOM     25  C   UNL     1       1.294  -2.156  -2.023  0.00  0.00    +0.026 A 
ATOM     26  C   UNL     1       0.713  -1.717  -0.836  0.00  0.00    +0.043 A 
BRANCH  24  27
ATOM     27  C   UNL     1       2.509  -1.693  -4.142  0.00  0.00    +0.258 C 
ATOM     28  O   UNL     1       2.505  -2.875  -4.427  0.00  0.00    -0.269 OA
ATOM     29  N   UNL     1       3.082  -0.801  -4.975  0.00  0.00    -0.244 N 
ATOM     30  H   UNL     1       3.085   0.142  -4.749  0.00  0.00    +0.170 HD
BRANCH  29  31
ATOM     31  N   UNL     1       3.658  -1.226  -6.139  0.00  0.00    -0.222 NA
ATOM     32  C   UNL     1       5.103  -0.959  -6.139  0.00  0.00    +0.133 C 
ATOM     33  C   UNL     1       5.717  -1.503  -7.432  0.00  0.00    +0.177 C 
ATOM     34  O   UNL     1       5.056  -0.910  -8.554  0.00  0.00    -0.377 OA
ATOM     35  C   UNL     1       3.647  -1.151  -8.585  0.00  0.00    +0.177 C 
ATOM     36  C   UNL     1       3.012  -0.604  -7.304  0.00  0.00    +0.133 C 
ENDBRANCH  29  31
ENDBRANCH  24  27
BRANCH  21  38
ATOM     37  C   UNL     1       0.189   1.488   0.888  0.00  0.00    +0.277 C 
ATOM     38  O   UNL     1       0.148   0.083   0.631  0.00  0.00    -0.494 OA
ENDBRANCH  21  38
ENDBRANCH   1  26
TORSDOF 5
