REMARK  Name = CHEMBL225088
REMARK  12 active torsions:
REMARK  status: ('A' for Active; 'I' for Inactive)
REMARK    1  A    between atoms: C_1  and  C_2
REMARK    2  A    between atoms: C_5  and  C_30
REMARK    3  A    between atoms: C_7  and  N_8
REMARK    4  A    between atoms: N_15  and  C_16
REMARK    5  A    between atoms: N_15  and  C_17
REMARK    6  A    between atoms: C_17  and  C_18
REMARK    7  A    between atoms: C_18  and  C_19
REMARK    8  A    between atoms: C_18  and  C_20
REMARK    9  A    between atoms: C_18  and  C_21
REMARK   10  A    between atoms: N_26  and  C_29
REMARK   11  A    between atoms: N_32  and  O_33
REMARK   12  A    between atoms: O_33  and  C_34
REMARK                            x       y       z     vdW  Elec       q    Type
REMARK                         _______ _______ _______ _____ _____    ______ ____
ROOT
ATOM      1  N   UNL     1       0.975   0.624   2.333  0.00  0.00    -0.283 N 
ATOM      2  C   UNL     1       0.840  -0.117   3.491  0.00  0.00    +0.225 A 
ATOM      3  N   UNL     1       0.711   0.498   4.663  0.00  0.00    -0.181 NA
ATOM      4  C   UNL     1       0.581  -0.214   5.777  0.00  0.00    +0.224 A 
ATOM      5  N   UNL     1       0.579  -1.543   5.720  0.00  0.00    -0.181 NA
ATOM      6  C   UNL     1       0.708  -2.158   4.549  0.00  0.00    +0.223 A 
ATOM      7  N   UNL     1       0.833  -1.445   3.434  0.00  0.00    -0.181 NA
ATOM      8  N   UNL     1       0.707  -3.537   4.490  0.00  0.00    -0.302 N 
ATOM      9  C   UNL     1       0.450  -4.322   5.700  0.00  0.00    +0.132 C 
ATOM     10  N   UNL     1       0.447   0.424   6.993  0.00  0.00    -0.301 N 
ATOM     11  C   UNL     1       0.201  -0.389   8.201  0.00  0.00    +0.106 C 
ATOM     12  C   UNL     1       1.027   0.127   9.394  0.00  0.00    +0.000 C 
ATOM     13  C   UNL     1       2.405   0.528   8.916  0.00  0.00    -0.078 C 
ATOM     14  N   UNL     1       2.410   1.956   8.603  0.00  0.00    +0.379 N 
ATOM     15  C   UNL     1       2.026   2.277   7.283  0.00  0.00    -0.060 C 
ATOM     16  C   UNL     1       0.560   1.867   7.040  0.00  0.00    +0.089 C 
ATOM     17  C   UNL     1       3.766   2.475   8.831  0.00  0.00    -0.096 C 
ATOM     18  H   UNL     1       1.170   0.180   1.493  0.00  0.00    +0.155 HD
ATOM     19  H   UNL     1       1.783   2.424   9.240  0.00  0.00    -0.082 HD
ENDROOT
BRANCH   1  26
ATOM     20  C   UNL     1       0.594   1.998  -0.125  0.00  0.00    +0.045 C 
ATOM     21  C   UNL     1       0.642   2.727   1.193  0.00  0.00    -0.029 A 
ATOM     22  C   UNL     1       0.493   4.101   1.227  0.00  0.00    +0.006 A 
ATOM     23  C   UNL     1       0.535   4.775   2.430  0.00  0.00    +0.013 A 
ATOM     24  C   UNL     1       0.729   4.070   3.619  0.00  0.00    +0.040 A 
ATOM     25  C   UNL     1       0.880   2.684   3.586  0.00  0.00    +0.036 A 
ATOM     26  C   UNL     1       0.830   2.015   2.372  0.00  0.00    +0.037 A 
BRANCH  24  27
ATOM     27  C   UNL     1       0.775   4.790   4.910  0.00  0.00    +0.267 C 
ATOM     28  O   UNL     1       0.795   4.166   5.953  0.00  0.00    -0.268 OA
ATOM     29  N   UNL     1       0.796   6.137   4.929  0.00  0.00    -0.191 N 
ATOM     30  H   UNL     1       0.781   6.635   4.097  0.00  0.00    +0.183 HD
BRANCH  29  31
ATOM     31  O   UNL     1       0.841   6.827   6.165  0.00  0.00    -0.283 OA
ATOM     32  C   UNL     1       0.859   8.250   6.037  0.00  0.00    +0.226 C 
ENDBRANCH  29  31
ENDBRANCH  24  27
ENDBRANCH   1  26
BRANCH   8  33
ATOM     33  C   UNL     1       0.963  -4.215   3.217  0.00  0.00    +0.113 C 
BRANCH  33  34
ATOM     34  C   UNL     1       2.471  -4.395   3.029  0.00  0.00    -0.022 C 
ATOM     35  C   UNL     1       3.013  -5.324   4.117  0.00  0.00    +0.012 C 
ATOM     36  C   UNL     1       2.744  -5.007   1.654  0.00  0.00    +0.012 C 
ATOM     37  C   UNL     1       3.163  -3.034   3.129  0.00  0.00    +0.012 C 
ENDBRANCH  33  34
ENDBRANCH   8  33
TORSDOF 5
