REMARK  Name = CHEMBL197799
REMARK  8 active torsions:
REMARK  status: ('A' for Active; 'I' for Inactive)
REMARK    1  A    between atoms: C_1  and  C_2
REMARK    2  A    between atoms: C_6  and  C_8
REMARK    3  A    between atoms: C_9  and  C_23
REMARK    4  A    between atoms: C_11  and  C_13
REMARK    5  A    between atoms: C_16  and  S_19
REMARK    6  A    between atoms: S_19  and  C_22
REMARK    7  A    between atoms: C_30  and  C_32
REMARK    8  A    between atoms: C_32  and  C_33
REMARK                            x       y       z     vdW  Elec       q    Type
REMARK                         _______ _______ _______ _____ _____    ______ ____
ROOT
ATOM      1  C   UNL     1       0.088  -2.887   2.467  0.00  0.00    +0.087 A 
ATOM      2  C   UNL     1      -0.689  -4.036   2.618  0.00  0.00    +0.047 A 
ATOM      3  S   UNL     1      -0.311  -4.469   4.311  0.00  0.00    -0.067 S 
ATOM      4  C   UNL     1       0.811  -3.119   4.643  0.00  0.00    +0.109 A 
ATOM      5  N   UNL     1       0.814  -2.476   3.486  0.00  0.00    -0.238 NA
ENDROOT
BRANCH   2   6
ATOM      6  C   UNL     1      -1.577  -4.706   1.649  0.00  0.00    -0.004 A 
ATOM      7  C   UNL     1      -1.139  -4.990   0.346  0.00  0.00    +0.029 A 
ATOM      8  C   UNL     1      -1.998  -5.617  -0.528  0.00  0.00    +0.113 A 
ATOM      9  N   UNL     1      -3.221  -5.952  -0.158  0.00  0.00    -0.240 NA
ATOM     10  C   UNL     1      -3.678  -5.704   1.060  0.00  0.00    +0.125 A 
ATOM     11  C   UNL     1      -2.877  -5.081   2.005  0.00  0.00    +0.053 A 
ATOM     12  N   UNL     1      -4.978  -6.079   1.398  0.00  0.00    -0.270 N 
ATOM     13  C   UNL     1      -5.725  -6.782   0.524  0.00  0.00    +0.223 C 
ATOM     14  O   UNL     1      -5.303  -7.008  -0.590  0.00  0.00    -0.275 OA
ATOM     15  H   UNL     1      -5.345  -5.833   2.262  0.00  0.00    +0.156 HD
BRANCH  13  16
ATOM     16  C   UNL     1      -7.086  -7.286   0.931  0.00  0.00    +0.131 C 
BRANCH  16  17
ATOM     17  C   UNL     1      -7.708  -8.036  -0.219  0.00  0.00    -0.039 A 
ATOM     18  C   UNL     1      -8.484  -7.362  -1.144  0.00  0.00    +0.004 A 
ATOM     19  C   UNL     1      -9.055  -8.050  -2.198  0.00  0.00    +0.000 A 
ATOM     20  C   UNL     1      -8.850  -9.411  -2.328  0.00  0.00    +0.000 A 
ATOM     21  C   UNL     1      -8.073 -10.084  -1.404  0.00  0.00    +0.000 A 
ATOM     22  C   UNL     1      -7.499  -9.396  -0.351  0.00  0.00    +0.004 A 
ENDBRANCH  16  17
ENDBRANCH  13  16
ENDBRANCH   2   6
BRANCH   1  28
ATOM     23  C   UNL     1       2.612  -0.480  -1.104  0.00  0.00    +0.044 C 
ATOM     24  C   UNL     1       1.313  -0.989  -0.536  0.00  0.00    -0.050 A 
ATOM     25  C   UNL     1       0.128  -0.765  -1.215  0.00  0.00    +0.003 A 
ATOM     26  C   UNL     1      -1.069  -1.228  -0.700  0.00  0.00    +0.001 A 
ATOM     27  C   UNL     1      -1.088  -1.918   0.495  0.00  0.00    +0.010 A 
ATOM     28  C   UNL     1       0.102  -2.147   1.184  0.00  0.00    +0.002 A 
ATOM     29  C   UNL     1       1.307  -1.681   0.657  0.00  0.00    +0.013 A 
ENDBRANCH   1  28
BRANCH   4  30
ATOM     30  C   UNL     1       1.550  -2.805   5.885  0.00  0.00    +0.007 A 
ATOM     31  C   UNL     1       2.382  -1.686   5.942  0.00  0.00    +0.012 A 
ATOM     32  C   UNL     1       3.068  -1.398   7.104  0.00  0.00    +0.027 A 
ATOM     33  C   UNL     1       2.932  -2.216   8.211  0.00  0.00    +0.088 A 
ATOM     34  C   UNL     1       2.109  -3.327   8.161  0.00  0.00    +0.027 A 
ATOM     35  C   UNL     1       1.413  -3.623   7.008  0.00  0.00    +0.012 A 
BRANCH  33  36
ATOM     36  S   UNL     1       3.812  -1.842   9.691  0.00  0.00    -0.006 S 
ATOM     37  O   UNL     1       3.963  -3.092  10.349  0.00  0.00    -0.170 OA
ATOM     38  O   UNL     1       4.950  -1.108   9.261  0.00  0.00    -0.170 OA
ATOM     39  C   UNL     1       2.697  -0.768  10.637  0.00  0.00    +0.200 C 
ENDBRANCH  33  36
ENDBRANCH   4  30
TORSDOF 6
