REMARK  Name = CHEMBL397975
REMARK  8 active torsions:
REMARK  status: ('A' for Active; 'I' for Inactive)
REMARK    1  A    between atoms: C_1  and  N_2
REMARK    2  A    between atoms: N_2  and  C_3
REMARK    3  A    between atoms: C_4  and  C_6
REMARK    4  A    between atoms: C_6  and  C_8
REMARK    5  A    between atoms: C_15  and  C_20
REMARK    6  A    between atoms: C_16  and  O_18
REMARK    7  A    between atoms: O_18  and  C_19
REMARK    8  A    between atoms: C_29  and  C_30
REMARK                            x       y       z     vdW  Elec       q    Type
REMARK                         _______ _______ _______ _____ _____    ______ ____
ROOT
ATOM      1  C   UNL     1      -0.223  -3.411  -3.926  0.00  0.00    +0.053 A 
ATOM      2  C   UNL     1      -0.034  -2.622  -5.043  0.00  0.00    +0.097 A 
ATOM      3  N   UNL     1      -0.421  -3.302  -6.147  0.00  0.00    -0.345 N 
ATOM      4  H   UNL     1      -0.381  -2.953  -7.051  0.00  0.00    +0.167 HD
ATOM      5  C   UNL     1      -0.877  -4.557  -5.814  0.00  0.00    +0.143 A 
ATOM      6  C   UNL     1      -0.771  -4.690  -4.418  0.00  0.00    +0.031 A 
ATOM      7  C   UNL     1      -1.162  -5.872  -3.802  0.00  0.00    +0.030 A 
ATOM      8  C   UNL     1      -1.650  -6.904  -4.610  0.00  0.00    +0.099 A 
ATOM      9  C   UNL     1      -1.724  -6.702  -5.999  0.00  0.00    +0.229 A 
ATOM     10  N   UNL     1      -1.350  -5.561  -6.544  0.00  0.00    -0.194 NA
ENDROOT
BRANCH   8  11
ATOM     11  C   UNL     1      -2.079  -8.183  -4.015  0.00  0.00    +0.252 C 
ATOM     12  O   UNL     1      -3.174  -8.640  -4.281  0.00  0.00    -0.270 OA
ATOM     13  N   UNL     1      -1.258  -8.845  -3.176  0.00  0.00    -0.290 N 
ATOM     14  C   UNL     1      -1.622 -10.169  -2.650  0.00  0.00    +0.130 C 
ATOM     15  C   UNL     1      -0.621 -11.212  -3.161  0.00  0.00    +0.142 C 
ATOM     16  N   UNL     1       0.738 -10.693  -3.000  0.00  0.00    -0.325 N 
ATOM     17  C   UNL     1       1.055  -9.368  -2.825  0.00  0.00    +0.056 A 
ATOM     18  C   UNL     1       2.388  -9.285  -2.725  0.00  0.00    +0.136 A 
ATOM     19  N   UNL     1       2.893 -10.524  -2.830  0.00  0.00    -0.235 NA
ATOM     20  C   UNL     1       1.908 -11.383  -2.995  0.00  0.00    +0.144 A 
ATOM     21  C   UNL     1       0.034  -8.263  -2.763  0.00  0.00    +0.163 C 
BRANCH  20  22
ATOM     22  C   UNL     1       2.051 -12.847  -3.147  0.00  0.00    +0.053 A 
ATOM     23  C   UNL     1       1.358 -13.518  -4.156  0.00  0.00    +0.017 A 
ATOM     24  C   UNL     1       1.495 -14.883  -4.293  0.00  0.00    +0.039 A 
ATOM     25  C   UNL     1       2.319 -15.591  -3.431  0.00  0.00    +0.126 A 
ATOM     26  C   UNL     1       3.010 -14.932  -2.428  0.00  0.00    +0.077 A 
ATOM     27  C   UNL     1       2.885 -13.563  -2.284  0.00  0.00    +0.137 A 
ATOM     28  F   UNL     1       3.563 -12.921  -1.308  0.00  0.00    -0.205 F 
ATOM     29  F   UNL     1       2.448 -16.928  -3.571  0.00  0.00    -0.205 F 
ENDBRANCH  20  22
ENDBRANCH   8  11
BRANCH   1  30
ATOM     30  C   UNL     1       0.069  -3.054  -2.538  0.00  0.00    +0.249 C 
ATOM     31  O   UNL     1      -0.142  -3.854  -1.648  0.00  0.00    -0.282 OA
BRANCH  30  35
ATOM     32  C   UNL     1       1.476  -0.079  -0.616  0.00  0.00    +0.132 C 
ATOM     33  N   UNL     1       1.039  -1.434  -0.962  0.00  0.00    -0.301 N 
ATOM     34  C   UNL     1       1.053  -2.490   0.053  0.00  0.00    +0.132 C 
ATOM     35  C   UNL     1       0.625  -1.708  -2.215  0.00  0.00    +0.287 C 
ATOM     36  O   UNL     1       0.704  -0.861  -3.080  0.00  0.00    -0.266 OA
ENDBRANCH  30  35
ENDBRANCH   1  30
BRANCH   9  37
ATOM     37  O   UNL     1      -2.196  -7.695  -6.792  0.00  0.00    -0.479 OA
ATOM     38  C   UNL     1      -2.249  -7.434  -8.196  0.00  0.00    +0.279 C 
ENDBRANCH   9  37
TORSDOF 5
