REMARK  Name = CHEMBL1089457
REMARK  6 active torsions:
REMARK  status: ('A' for Active; 'I' for Inactive)
REMARK    1  A    between atoms: C_1  and  C_2
REMARK    2  A    between atoms: C_5  and  C_29
REMARK    3  A    between atoms: C_7  and  C_8
REMARK    4  A    between atoms: N_15  and  C_18
REMARK    5  A    between atoms: C_20  and  C_25
REMARK    6  A    between atoms: N_31  and  C_32
REMARK                            x       y       z     vdW  Elec       q    Type
REMARK                         _______ _______ _______ _____ _____    ______ ____
ROOT
ATOM      1  C   UNL     1       0.256  -0.466   2.838  0.00  0.00    +0.048 A 
ATOM      2  C   UNL     1       1.250   0.467   3.053  0.00  0.00    +0.027 A 
ATOM      3  C   UNL     1       1.089   1.410   4.090  0.00  0.00    +0.038 A 
ATOM      4  C   UNL     1       1.893   2.474   4.567  0.00  0.00    +0.145 A 
ATOM      5  N   UNL     1       1.271   3.043   5.561  0.00  0.00    -0.171 NA
ATOM      6  N   UNL     1       0.051   2.393   5.780  0.00  0.00    -0.197 N 
ATOM      7  C   UNL     1      -0.067   1.384   4.875  0.00  0.00    +0.148 A 
ATOM      8  N   UNL     1      -1.038   0.449   4.642  0.00  0.00    -0.295 N 
ATOM      9  C   UNL     1      -0.903  -0.455   3.654  0.00  0.00    +0.260 A 
ATOM     10  O   UNL     1      -1.785  -1.274   3.462  0.00  0.00    -0.267 OA
ATOM     11  C   UNL     1      -2.243   0.436   5.474  0.00  0.00    +0.154 C 
ATOM     12  C   UNL     1      -0.886   2.724   6.762  0.00  0.00    +0.168 A 
ATOM     13  C   UNL     1      -0.510   2.727   8.100  0.00  0.00    +0.099 A 
ATOM     14  C   UNL     1      -1.448   3.057   9.063  0.00  0.00    +0.017 A 
ATOM     15  C   UNL     1      -2.736   3.374   8.651  0.00  0.00    +0.020 A 
ATOM     16  C   UNL     1      -3.039   3.351   7.304  0.00  0.00    +0.113 A 
ATOM     17  N   UNL     1      -2.123   3.037   6.409  0.00  0.00    -0.236 NA
ENDROOT
BRANCH   1  24
ATOM     18  C   UNL     1      -0.107   0.340   0.087  0.00  0.00    +0.044 C 
ATOM     19  C   UNL     1       0.223  -1.091   0.425  0.00  0.00    -0.043 A 
ATOM     20  C   UNL     1       0.358  -2.024  -0.585  0.00  0.00    +0.005 A 
ATOM     21  C   UNL     1       0.660  -3.337  -0.284  0.00  0.00    +0.013 A 
ATOM     22  C   UNL     1       0.831  -3.730   1.045  0.00  0.00    +0.037 A 
ATOM     23  C   UNL     1       0.696  -2.793   2.068  0.00  0.00    +0.022 A 
ATOM     24  C   UNL     1       0.396  -1.470   1.756  0.00  0.00    -0.009 A 
BRANCH  22  25
ATOM     25  C   UNL     1       1.153  -5.137   1.366  0.00  0.00    +0.244 C 
ATOM     26  O   UNL     1       1.302  -5.477   2.523  0.00  0.00    -0.270 OA
ATOM     27  N   UNL     1       1.283  -6.042   0.376  0.00  0.00    -0.308 N 
ATOM     28  H   UNL     1       1.165  -5.770  -0.548  0.00  0.00    +0.149 HD
BRANCH  27  29
ATOM     29  C   UNL     1       1.603  -7.435   0.694  0.00  0.00    +0.073 C 
ATOM     30  C   UNL     1       2.656  -8.133  -0.169  0.00  0.00    +0.024 C 
ATOM     31  C   UNL     1       1.179  -8.505  -0.314  0.00  0.00    +0.024 C 
ENDBRANCH  27  29
ENDBRANCH  22  25
ENDBRANCH   1  24
BRANCH  13  32
ATOM     32  C   UNL     1       0.900   2.374   8.497  0.00  0.00    +0.421 C 
ATOM     33  F   UNL     1       1.025   2.449   9.889  0.00  0.00    -0.166 F 
ATOM     34  F   UNL     1       1.193   1.074   8.072  0.00  0.00    -0.166 F 
ATOM     35  F   UNL     1       1.791   3.272   7.900  0.00  0.00    -0.166 F 
ENDBRANCH  13  32
TORSDOF 4
