REMARK  Name = CHEMBL493707
REMARK  4 active torsions:
REMARK  status: ('A' for Active; 'I' for Inactive)
REMARK    1  A    between atoms: C_1  and  C_2
REMARK    2  A    between atoms: C_7  and  C_8
REMARK    3  A    between atoms: C_23  and  C_25
REMARK    4  A    between atoms: C_28  and  N_29
REMARK                            x       y       z     vdW  Elec       q    Type
REMARK                         _______ _______ _______ _____ _____    ______ ____
ROOT
ATOM      1  C   UNL     1       0.096   0.838   2.331  0.00  0.00    -0.015 A 
ATOM      2  C   UNL     1      -1.040   0.663   3.138  0.00  0.00    +0.009 A 
ATOM      3  C   UNL     1      -1.062   1.114   4.422  0.00  0.00    +0.012 A 
ATOM      4  C   UNL     1       0.061   1.760   4.950  0.00  0.00    +0.025 A 
ATOM      5  C   UNL     1       1.217   1.943   4.146  0.00  0.00    +0.003 A 
ATOM      6  C   UNL     1       1.226   1.470   2.830  0.00  0.00    +0.018 A 
ATOM      7  C   UNL     1       2.322   2.599   4.723  0.00  0.00    +0.112 A 
ATOM      8  N   UNL     1       2.241   3.011   5.967  0.00  0.00    -0.282 N 
ATOM      9  N   UNL     1       1.202   2.849   6.699  0.00  0.00    -0.158 NA
ATOM     10  C   UNL     1       0.103   2.251   6.275  0.00  0.00    +0.150 A 
ATOM     11  N   UNL     1      -0.990   2.107   7.114  0.00  0.00    -0.306 N 
ATOM     12  C   UNL     1      -2.066   3.111   7.136  0.00  0.00    +0.135 C 
ATOM     13  C   UNL     1      -2.321   3.515   8.592  0.00  0.00    +0.179 C 
ATOM     14  O   UNL     1      -2.534   2.339   9.377  0.00  0.00    -0.376 OA
ATOM     15  C   UNL     1      -1.411   1.456   9.425  0.00  0.00    +0.182 C 
ATOM     16  C   UNL     1      -1.112   0.943   8.007  0.00  0.00    +0.097 C 
ATOM     17  C   UNL     1       0.200   0.155   8.008  0.00  0.00    +0.030 C 
ATOM     18  H   UNL     1       3.009   3.461   6.353  0.00  0.00    +0.188 HD
ENDROOT
BRANCH   1  25
ATOM     19  C   UNL     1       0.266   2.694   0.142  0.00  0.00    +0.044 C 
ATOM     20  C   UNL     1       0.172   1.214  -0.126  0.00  0.00    -0.041 A 
ATOM     21  C   UNL     1       0.173   0.759  -1.441  0.00  0.00    +0.005 A 
ATOM     22  C   UNL     1       0.092  -0.559  -1.757  0.00  0.00    +0.013 A 
ATOM     23  C   UNL     1       0.001  -1.532  -0.746  0.00  0.00    +0.039 A 
ATOM     24  C   UNL     1      -0.005  -1.098   0.660  0.00  0.00    +0.073 A 
ATOM     25  C   UNL     1       0.091   0.337   0.939  0.00  0.00    +0.010 A 
ATOM     26  N   UNL     1      -0.097  -2.183   1.398  0.00  0.00    -0.297 N 
ATOM     27  N   UNL     1      -0.153  -3.305   0.563  0.00  0.00    -0.286 N 
ATOM     28  C   UNL     1      -0.095  -2.922  -0.723  0.00  0.00    +0.118 A 
ATOM     29  H   UNL     1      -0.223  -4.223   0.868  0.00  0.00    +0.188 HD
ATOM     30  H   UNL     1      -0.122  -2.203   2.368  0.00  0.00    +0.187 HD
BRANCH  28  31
ATOM     31  N   UNL     1      -0.124  -3.758  -1.828  0.00  0.00    -0.343 N 
ATOM     32  H   UNL     1      -0.077  -3.383  -2.721  0.00  0.00    +0.144 HD
ATOM     33  H   UNL     1      -0.193  -4.718  -1.708  0.00  0.00    +0.144 HD
ENDBRANCH  28  31
ENDBRANCH   1  25
TORSDOF 2
