REMARK  Name = CHEMBL567068
REMARK  9 active torsions:
REMARK  status: ('A' for Active; 'I' for Inactive)
REMARK    1  A    between atoms: C_1  and  N_2
REMARK    2  A    between atoms: C_6  and  C_9
REMARK    3  A    between atoms: N_21  and  C_22
REMARK    4  A    between atoms: C_25  and  N_28
REMARK    5  A    between atoms: N_28  and  C_29
REMARK    6  A    between atoms: C_29  and  C_30
REMARK    7  A    between atoms: C_30  and  C_31
REMARK    8  A    between atoms: C_30  and  O_33
REMARK    9  A    between atoms: C_31  and  O_32
REMARK                            x       y       z     vdW  Elec       q    Type
REMARK                         _______ _______ _______ _____ _____    ______ ____
ROOT
ATOM      1  C   UNL     1      -0.052   1.410   0.707  0.00  0.00    +0.154 C 
ATOM      2  N   UNL     1      -0.022  -0.041   0.501  0.00  0.00    -0.295 N 
ATOM      3  C   UNL     1      -1.194  -0.720   0.283  0.00  0.00    +0.148 A 
ATOM      4  C   UNL     1      -1.183  -2.117   0.082  0.00  0.00    +0.037 A 
ATOM      5  C   UNL     1       0.038  -2.829   0.103  0.00  0.00    +0.027 A 
ATOM      6  C   UNL     1       1.202  -2.143   0.322  0.00  0.00    +0.050 A 
ATOM      7  C   UNL     1       1.156  -0.693   0.521  0.00  0.00    +0.260 A 
ATOM      8  O   UNL     1       2.188  -0.074   0.712  0.00  0.00    -0.267 OA
ATOM      9  C   UNL     1      -2.404  -2.773  -0.138  0.00  0.00    +0.126 A 
ATOM     10  N   UNL     1      -3.513  -2.058  -0.149  0.00  0.00    -0.222 NA
ATOM     11  C   UNL     1      -3.485  -0.743   0.044  0.00  0.00    +0.221 A 
ATOM     12  N   UNL     1      -2.358  -0.080   0.256  0.00  0.00    -0.196 NA
ATOM     13  N   UNL     1      -4.675  -0.043   0.023  0.00  0.00    -0.284 N 
ATOM     14  H   UNL     1      -4.669   0.925   0.081  0.00  0.00    +0.155 HD
ENDROOT
BRANCH   6  15
ATOM     15  C   UNL     1       2.498  -2.860   0.351  0.00  0.00    +0.024 A 
ATOM     16  C   UNL     1       2.987  -3.376   1.552  0.00  0.00    +0.050 A 
ATOM     17  C   UNL     1       4.195  -4.045   1.572  0.00  0.00    +0.021 A 
ATOM     18  C   UNL     1       4.921  -4.202   0.405  0.00  0.00    +0.003 A 
ATOM     19  C   UNL     1       4.443  -3.693  -0.789  0.00  0.00    +0.021 A 
ATOM     20  C   UNL     1       3.233  -3.028  -0.824  0.00  0.00    +0.050 A 
ATOM     21 CL   UNL     1       2.631  -2.396  -2.324  0.00  0.00    -0.083 Cl
ATOM     22 CL   UNL     1       2.078  -3.178   3.017  0.00  0.00    -0.083 Cl
ENDBRANCH   6  15
BRANCH  13  23
ATOM     23  C   UNL     1      -5.891  -0.731  -0.082  0.00  0.00    +0.034 A 
ATOM     24  C   UNL     1      -6.035  -1.979   0.509  0.00  0.00    +0.025 A 
ATOM     25  C   UNL     1      -7.234  -2.657   0.406  0.00  0.00    +0.025 A 
ATOM     26  C   UNL     1      -8.295  -2.090  -0.288  0.00  0.00    +0.027 A 
ATOM     27  C   UNL     1      -8.151  -0.841  -0.878  0.00  0.00    +0.025 A 
ATOM     28  C   UNL     1      -6.954  -0.161  -0.770  0.00  0.00    +0.025 A 
BRANCH  26  29
ATOM     29  N   UNL     1      -9.509  -2.777  -0.393  0.00  0.00    -0.341 N 
ATOM     30  H   UNL     1      -9.610  -3.650   0.019  0.00  0.00    +0.146 HD
BRANCH  29  31
ATOM     31  C   UNL     1     -10.629  -2.179  -1.124  0.00  0.00    +0.135 C 
BRANCH  31  32
ATOM     32  C   UNL     1     -11.828  -3.129  -1.088  0.00  0.00    +0.157 C 
BRANCH  32  33
ATOM     33  O   UNL     1     -12.286  -3.266   0.258  0.00  0.00    -0.388 OA
ATOM     34  H   UNL     1     -12.568  -2.435   0.664  0.00  0.00    +0.210 HD
ENDBRANCH  32  33
BRANCH  32  35
ATOM     35  C   UNL     1     -12.954  -2.562  -1.955  0.00  0.00    +0.188 C 
BRANCH  35  36
ATOM     36  O   UNL     1     -14.028  -3.503  -2.015  0.00  0.00    -0.392 OA
ATOM     37  H   UNL     1     -14.778  -3.209  -2.550  0.00  0.00    +0.210 HD
ENDBRANCH  35  36
ENDBRANCH  32  35
ENDBRANCH  31  32
ENDBRANCH  29  31
ENDBRANCH  26  29
ENDBRANCH  13  23
TORSDOF 8
