REMARK  Name = CHEMBL214198
REMARK  5 active torsions:
REMARK  status: ('A' for Active; 'I' for Inactive)
REMARK    1  A    between atoms: C_1  and  C_2
REMARK    2  A    between atoms: C_2  and  C_3
REMARK    3  A    between atoms: C_2  and  C_4
REMARK    4  A    between atoms: C_10  and  C_13
REMARK    5  A    between atoms: C_18  and  C_19
REMARK                            x       y       z     vdW  Elec       q    Type
REMARK                         _______ _______ _______ _____ _____    ______ ____
ROOT
ATOM      1  C   UNL     1      -2.572  -3.256   3.701  0.00  0.00    +0.029 A 
ATOM      2  C   UNL     1      -3.074  -4.335   3.037  0.00  0.00    +0.114 A 
ATOM      3  N   UNL     1      -4.311  -4.577   3.518  0.00  0.00    -0.284 N 
ATOM      4  H   UNL     1      -4.904  -5.288   3.227  0.00  0.00    +0.188 HD
ATOM      5  N   UNL     1      -4.595  -3.628   4.507  0.00  0.00    -0.173 NA
ATOM      6  C   UNL     1      -3.555  -2.832   4.629  0.00  0.00    +0.103 A 
ENDROOT
BRANCH   1  13
ATOM      7  C   UNL     1       0.731  -0.503   1.223  0.00  0.00    +0.140 A 
ATOM      8  N   UNL     1       1.973  -0.244   1.542  0.00  0.00    -0.133 NA
ATOM      9  N   UNL     1       2.280  -0.827   2.648  0.00  0.00    -0.129 NA
ATOM     10  C   UNL     1       1.233  -1.499   3.098  0.00  0.00    +0.161 A 
ATOM     11  N   UNL     1       0.216  -1.301   2.197  0.00  0.00    -0.286 N 
ATOM     12  C   UNL     1      -1.007  -1.871   2.396  0.00  0.00    +0.103 A 
ATOM     13  C   UNL     1      -1.237  -2.642   3.494  0.00  0.00    +0.002 A 
ATOM     14  C   UNL     1      -0.206  -2.857   4.438  0.00  0.00    +0.014 A 
ATOM     15  C   UNL     1       1.016  -2.298   4.238  0.00  0.00    +0.049 A 
BRANCH   7  17
ATOM     16  C   UNL     1      -0.019   1.526   0.010  0.00  0.00    +0.015 C 
ATOM     17  C   UNL     1       0.002  -0.004   0.002  0.00  0.00    +0.051 C 
ATOM     18  C   UNL     1       0.718  -0.497  -1.257  0.00  0.00    +0.015 C 
ENDBRANCH   7  17
ENDBRANCH   1  13
BRANCH   6  19
ATOM     19  C   UNL     1      -3.434  -1.692   5.569  0.00  0.00    +0.041 A 
ATOM     20  C   UNL     1      -2.273  -0.922   5.589  0.00  0.00    +0.051 A 
ATOM     21  C   UNL     1      -2.165   0.140   6.467  0.00  0.00    +0.124 A 
ATOM     22  C   UNL     1      -3.209   0.439   7.328  0.00  0.00    +0.041 A 
ATOM     23  C   UNL     1      -4.364  -0.322   7.313  0.00  0.00    +0.042 A 
ATOM     24  C   UNL     1      -4.485  -1.382   6.434  0.00  0.00    +0.133 A 
ATOM     25  F   UNL     1      -5.616  -2.121   6.417  0.00  0.00    -0.205 F 
ATOM     26  F   UNL     1      -1.040   0.887   6.487  0.00  0.00    -0.205 F 
ENDBRANCH   6  19
TORSDOF 3
