REMARK  Name = CHEMBL68572
REMARK  7 active torsions:
REMARK  status: ('A' for Active; 'I' for Inactive)
REMARK    1  A    between atoms: C_1  and  O_2
REMARK    2  A    between atoms: O_2  and  C_3
REMARK    3  A    between atoms: C_6  and  C_9
REMARK    4  A    between atoms: C_9  and  N_10
REMARK    5  A    between atoms: C_15  and  C_17
REMARK    6  A    between atoms: C_18  and  C_29
REMARK    7  A    between atoms: C_20  and  C_23
REMARK                            x       y       z     vdW  Elec       q    Type
REMARK                         _______ _______ _______ _____ _____    ______ ____
ROOT
ATOM      1  C   UNL     1      -8.589  -4.521  -4.502  0.00  0.00    +0.091 A 
ATOM      2  C   UNL     1      -8.200  -3.793  -5.615  0.00  0.00    +0.074 A 
ATOM      3  N   UNL     1      -8.812  -4.323  -6.684  0.00  0.00    -0.339 N 
ATOM      4  C   UNL     1      -9.559  -5.336  -6.307  0.00  0.00    +0.117 A 
ATOM      5  N   UNL     1      -9.446  -5.499  -4.958  0.00  0.00    -0.338 N 
ATOM      6  H   UNL     1      -9.887  -6.175  -4.420  0.00  0.00    +0.167 HD
ATOM      7  H   UNL     1      -8.718  -4.006  -7.596  0.00  0.00    +0.167 HD
ENDROOT
BRANCH   1  13
ATOM      8  N   UNL     1      -5.423  -2.855  -1.343  0.00  0.00    -0.309 N 
ATOM      9  C   UNL     1      -6.629  -3.489  -1.588  0.00  0.00    +0.216 A 
ATOM     10  N   UNL     1      -7.373  -3.880  -0.563  0.00  0.00    -0.223 NA
ATOM     11  C   UNL     1      -8.533  -4.490  -0.753  0.00  0.00    +0.116 A 
ATOM     12  C   UNL     1      -8.973  -4.721  -2.042  0.00  0.00    +0.050 A 
ATOM     13  C   UNL     1      -8.166  -4.298  -3.108  0.00  0.00    +0.094 A 
ATOM     14  N   UNL     1      -7.012  -3.684  -2.840  0.00  0.00    -0.213 NA
ATOM     15  H   UNL     1      -4.871  -2.561  -2.084  0.00  0.00    +0.149 HD
BRANCH   8  16
ATOM     16  C   UNL     1      -4.981  -2.629   0.035  0.00  0.00    +0.139 C 
BRANCH  16  20
ATOM     17  C   UNL     1      -1.200  -0.637   0.010  0.00  0.00    +0.120 A 
ATOM     18  C   UNL     1      -2.375   0.101   0.019  0.00  0.00    +0.046 A 
ATOM     19  C   UNL     1      -3.596  -0.545   0.027  0.00  0.00    +0.009 A 
ATOM     20  C   UNL     1      -3.648  -1.927   0.026  0.00  0.00    -0.030 A 
ATOM     21  C   UNL     1      -2.479  -2.665   0.017  0.00  0.00    +0.009 A 
ATOM     22  C   UNL     1      -1.255  -2.024   0.003  0.00  0.00    +0.046 A 
BRANCH  17  24
ATOM     23  C   UNL     1      -0.017   1.425   0.010  0.00  0.00    +0.277 C 
ATOM     24  O   UNL     1       0.002  -0.004   0.002  0.00  0.00    -0.495 OA
ENDBRANCH  17  24
ENDBRANCH  16  20
ENDBRANCH   8  16
ENDBRANCH   1  13
BRANCH   4  25
ATOM     25  C   UNL     1     -10.386  -6.172  -7.204  0.00  0.00    +0.015 A 
ATOM     26  C   UNL     1     -10.412  -5.914  -8.575  0.00  0.00    +0.011 A 
ATOM     27  C   UNL     1     -11.185  -6.697  -9.407  0.00  0.00    +0.001 A 
ATOM     28  C   UNL     1     -11.934  -7.737  -8.884  0.00  0.00    +0.000 A 
ATOM     29  C   UNL     1     -11.913  -7.997  -7.525  0.00  0.00    +0.001 A 
ATOM     30  C   UNL     1     -11.139  -7.225  -6.683  0.00  0.00    +0.011 A 
ENDBRANCH   4  25
BRANCH   2  31
ATOM     31  C   UNL     1      -7.274  -2.636  -5.622  0.00  0.00    +0.000 A 
ATOM     32  C   UNL     1      -7.400  -1.632  -4.662  0.00  0.00    +0.010 A 
ATOM     33  C   UNL     1      -6.535  -0.557  -4.674  0.00  0.00    +0.001 A 
ATOM     34  C   UNL     1      -5.544  -0.474  -5.637  0.00  0.00    +0.000 A 
ATOM     35  C   UNL     1      -5.415  -1.466  -6.592  0.00  0.00    +0.001 A 
ATOM     36  C   UNL     1      -6.270  -2.549  -6.586  0.00  0.00    +0.010 A 
ENDBRANCH   2  31
TORSDOF 6
