REMARK  Name = CHEMBL199993
REMARK  8 active torsions:
REMARK  status: ('A' for Active; 'I' for Inactive)
REMARK    1  A    between atoms: C_1  and  N_2
REMARK    2  A    between atoms: N_5  and  C_8
REMARK    3  A    between atoms: C_8  and  C_9
REMARK    4  A    between atoms: C_10  and  C_11
REMARK    5  A    between atoms: C_14  and  O_36
REMARK    6  A    between atoms: C_15  and  C_17
REMARK    7  A    between atoms: N_27  and  C_28
REMARK    8  A    between atoms: O_36  and  C_37
REMARK                            x       y       z     vdW  Elec       q    Type
REMARK                         _______ _______ _______ _____ _____    ______ ____
ROOT
ATOM      1  C   UNL     1       1.486  -8.516   6.555  0.00  0.00    +0.080 A 
ATOM      2  C   UNL     1       0.822  -9.206   7.570  0.00  0.00    +0.064 A 
ATOM      3  C   UNL     1       0.030  -8.852   8.674  0.00  0.00    +0.128 A 
ATOM      4  N   UNL     1      -0.444  -9.812   9.440  0.00  0.00    -0.222 NA
ATOM      5  C   UNL     1      -0.197 -11.100   9.201  0.00  0.00    +0.222 A 
ATOM      6  N   UNL     1       0.534 -11.522   8.191  0.00  0.00    -0.193 NA
ATOM      7  C   UNL     1       1.076 -10.638   7.333  0.00  0.00    +0.186 A 
ATOM      8  N   UNL     1       1.831 -10.719   6.258  0.00  0.00    -0.153 NA
ATOM      9  N   UNL     1       2.085  -9.433   5.769  0.00  0.00    -0.274 N 
ATOM     10  H   UNL     1       2.615  -9.231   4.982  0.00  0.00    +0.189 HD
ATOM     11  N   UNL     1      -0.736 -12.041  10.060  0.00  0.00    -0.281 N 
ATOM     12  H   UNL     1      -0.504 -12.978   9.961  0.00  0.00    +0.155 HD
ENDROOT
BRANCH  11  13
ATOM     13  C   UNL     1      -1.618 -11.642  11.072  0.00  0.00    +0.069 A 
ATOM     14  C   UNL     1      -2.503 -10.596  10.851  0.00  0.00    +0.029 A 
ATOM     15  C   UNL     1      -3.372 -10.203  11.851  0.00  0.00    +0.040 A 
ATOM     16  C   UNL     1      -3.362 -10.853  13.074  0.00  0.00    +0.126 A 
ATOM     17  C   UNL     1      -2.481 -11.897  13.298  0.00  0.00    +0.078 A 
ATOM     18  C   UNL     1      -1.613 -12.298  12.299  0.00  0.00    +0.147 A 
ATOM     19  F   UNL     1      -0.757 -13.321  12.515  0.00  0.00    -0.203 F 
ATOM     20  F   UNL     1      -4.213 -10.467  14.050  0.00  0.00    -0.205 F 
ENDBRANCH  11  13
BRANCH   1  25
ATOM     21  C   UNL     1       0.969  -5.091   5.085  0.00  0.00    +0.026 A 
ATOM     22  C   UNL     1       1.599  -4.291   6.042  0.00  0.00    +0.020 A 
ATOM     23  C   UNL     1       2.183  -4.864   7.152  0.00  0.00    +0.047 A 
ATOM     24  C   UNL     1       2.151  -6.239   7.326  0.00  0.00    +0.129 A 
ATOM     25  C   UNL     1       1.522  -7.053   6.372  0.00  0.00    +0.043 A 
ATOM     26  C   UNL     1       0.926  -6.473   5.253  0.00  0.00    +0.030 A 
BRANCH  21  28
ATOM     27  C   UNL     1      -0.132  -3.998   2.991  0.00  0.00    -0.081 C 
ATOM     28  C   UNL     1       0.364  -4.491   3.934  0.00  0.00    -0.065 C 
BRANCH  27  29
ATOM     29  C   UNL     1      -0.755  -3.380   1.809  0.00  0.00    +0.174 C 
BRANCH  29  34
ATOM     30  C   UNL     1       0.368   2.068   0.915  0.00  0.00    -0.096 C 
ATOM     31  N   UNL     1       0.208   0.612   0.808  0.00  0.00    +0.379 N 
ATOM     32  C   UNL     1      -1.210   0.263   0.965  0.00  0.00    -0.064 C 
ATOM     33  C   UNL     1      -1.379  -1.253   0.835  0.00  0.00    +0.067 C 
ATOM     34  N   UNL     1      -0.574  -1.923   1.865  0.00  0.00    -0.295 NA
ATOM     35  C   UNL     1       0.845  -1.563   1.735  0.00  0.00    +0.067 C 
ATOM     36  C   UNL     1       0.997  -0.046   1.858  0.00  0.00    -0.064 C 
ATOM     37  H   UNL     1       0.532   0.304  -0.097  0.00  0.00    -0.082 HD
ENDBRANCH  29  34
ENDBRANCH  27  29
ENDBRANCH  21  28
BRANCH  24  38
ATOM     38  O   UNL     1       2.728  -6.799   8.420  0.00  0.00    -0.494 OA
ATOM     39  C   UNL     1       3.351  -5.910   9.350  0.00  0.00    +0.277 C 
ENDBRANCH  24  38
ENDBRANCH   1  25
TORSDOF 6
