REMARK  Name = CHEMBL1089513
REMARK  5 active torsions:
REMARK  status: ('A' for Active; 'I' for Inactive)
REMARK    1  A    between atoms: C_1  and  C_2
REMARK    2  A    between atoms: C_7  and  C_8
REMARK    3  A    between atoms: N_13  and  C_19
REMARK    4  A    between atoms: N_15  and  C_18
REMARK    5  A    between atoms: N_30  and  C_31
REMARK                            x       y       z     vdW  Elec       q    Type
REMARK                         _______ _______ _______ _____ _____    ______ ____
ROOT
ATOM      1  C   UNL     1      -0.484   1.823   1.964  0.00  0.00    +0.051 A 
ATOM      2  C   UNL     1      -1.388   1.223   2.819  0.00  0.00    +0.027 A 
ATOM      3  C   UNL     1      -1.121   1.225   4.205  0.00  0.00    +0.038 A 
ATOM      4  C   UNL     1      -1.816   0.714   5.327  0.00  0.00    +0.145 A 
ATOM      5  N   UNL     1      -1.125   0.988   6.397  0.00  0.00    -0.172 NA
ATOM      6  N   UNL     1       0.037   1.680   6.036  0.00  0.00    -0.210 N 
ATOM      7  C   UNL     1       0.045   1.829   4.685  0.00  0.00    +0.147 A 
ATOM      8  N   UNL     1       0.924   2.417   3.816  0.00  0.00    -0.295 N 
ATOM      9  C   UNL     1       0.689   2.420   2.491  0.00  0.00    +0.260 A 
ATOM     10  O   UNL     1       1.489   2.945   1.737  0.00  0.00    -0.267 OA
ATOM     11  C   UNL     1       2.141   3.046   4.335  0.00  0.00    +0.154 C 
ENDROOT
BRANCH   1  18
ATOM     12  C   UNL     1      -1.940   4.019   0.791  0.00  0.00    +0.044 C 
ATOM     13  C   UNL     1      -1.438   2.891  -0.073  0.00  0.00    -0.039 A 
ATOM     14  C   UNL     1      -1.672   2.913  -1.438  0.00  0.00    +0.005 A 
ATOM     15  C   UNL     1      -1.219   1.890  -2.241  0.00  0.00    +0.015 A 
ATOM     16  C   UNL     1      -0.518   0.820  -1.680  0.00  0.00    +0.063 A 
ATOM     17  C   UNL     1      -0.275   0.788  -0.300  0.00  0.00    +0.177 A 
ATOM     18  C   UNL     1      -0.737   1.838   0.504  0.00  0.00    +0.036 A 
ATOM     19  O   UNL     1       0.413  -0.342  -0.040  0.00  0.00    -0.352 OA
ATOM     20  N   UNL     1       0.624  -1.053  -1.243  0.00  0.00    -0.062 NA
ATOM     21  C   UNL     1       0.088  -0.399  -2.237  0.00  0.00    +0.169 A 
ATOM     22  N   UNL     1       0.090  -0.782  -3.571  0.00  0.00    -0.329 N 
ATOM     23  C   UNL     1       0.740  -2.032  -3.973  0.00  0.00    +0.127 C 
ATOM     24  H   UNL     1      -0.338  -0.222  -4.237  0.00  0.00    +0.147 HD
ENDBRANCH   1  18
BRANCH   6  25
ATOM     25  C   UNL     1       1.025   2.142   6.918  0.00  0.00    +0.138 A 
ATOM     26  C   UNL     1       0.867   3.363   7.564  0.00  0.00    +0.152 A 
ATOM     27  C   UNL     1       1.844   3.815   8.434  0.00  0.00    +0.041 A 
ATOM     28  C   UNL     1       2.975   3.054   8.661  0.00  0.00    +0.006 A 
ATOM     29  C   UNL     1       3.136   1.839   8.021  0.00  0.00    +0.041 A 
ATOM     30  C   UNL     1       2.162   1.378   7.154  0.00  0.00    +0.152 A 
ATOM     31  F   UNL     1       2.317   0.188   6.533  0.00  0.00    -0.203 F 
ATOM     32  F   UNL     1      -0.238   4.108   7.341  0.00  0.00    -0.203 F 
ENDBRANCH   6  25
TORSDOF 2
