REMARK  Name = CHEMBL91630
REMARK  3 active torsions:
REMARK  status: ('A' for Active; 'I' for Inactive)
REMARK    1  A    between atoms: C_4  and  C_7
REMARK    2  A    between atoms: C_9  and  C_21
REMARK    3  A    between atoms: C_10  and  C_13
REMARK                            x       y       z     vdW  Elec       q    Type
REMARK                         _______ _______ _______ _____ _____    ______ ____
ROOT
ATOM      1  C   UNL     1       3.695  -0.684  -0.038  0.00  0.00    +0.048 A 
ATOM      2  C   UNL     1       4.926  -0.103  -0.042  0.00  0.00    +0.036 A 
ATOM      3  C   UNL     1       5.885  -1.138  -0.059  0.00  0.00    +0.008 A 
ATOM      4  C   UNL     1       5.190  -2.338  -0.066  0.00  0.00    +0.055 A 
ATOM      5  N   UNL     1       3.853  -2.048  -0.047  0.00  0.00    -0.354 N 
ATOM      6  H   UNL     1       3.133  -2.699  -0.043  0.00  0.00    +0.166 HD
ENDROOT
BRANCH   4   7
ATOM      7  C   UNL     1       5.786  -3.688  -0.084  0.00  0.00    +0.002 A 
ATOM      8  C   UNL     1       6.848  -3.974  -0.946  0.00  0.00    +0.013 A 
ATOM      9  C   UNL     1       7.402  -5.237  -0.959  0.00  0.00    +0.042 A 
ATOM     10  C   UNL     1       6.908  -6.223  -0.120  0.00  0.00    +0.158 A 
ATOM     11  C   UNL     1       5.853  -5.946   0.739  0.00  0.00    +0.159 A 
ATOM     12  C   UNL     1       5.295  -4.683   0.765  0.00  0.00    +0.051 A 
ATOM     13  F   UNL     1       5.375  -6.912   1.553  0.00  0.00    -0.202 F 
ATOM     14  F   UNL     1       7.455  -7.458  -0.138  0.00  0.00    -0.202 F 
ENDBRANCH   4   7
BRANCH   1  18
ATOM     15  C   UNL     1      -0.017   1.379   0.010  0.00  0.00    +0.000 A 
ATOM     16  C   UNL     1       1.168   2.094   0.002  0.00  0.00    +0.001 A 
ATOM     17  C   UNL     1       2.377   1.430  -0.013  0.00  0.00    +0.010 A 
ATOM     18  C   UNL     1       2.404   0.034  -0.021  0.00  0.00    -0.002 A 
ATOM     19  C   UNL     1       1.204  -0.681  -0.013  0.00  0.00    +0.010 A 
ATOM     20  C   UNL     1       0.002  -0.004   0.002  0.00  0.00    +0.001 A 
ENDBRANCH   1  18
BRANCH   3  21
ATOM     21  C   UNL     1       7.357  -0.973  -0.069  0.00  0.00    -0.013 A 
ATOM     22  C   UNL     1       8.165  -1.673   0.834  0.00  0.00    +0.028 A 
ATOM     23  C   UNL     1       9.531  -1.490   0.790  0.00  0.00    +0.111 A 
ATOM     24  N   UNL     1      10.076  -0.668  -0.086  0.00  0.00    -0.263 NA
ATOM     25  C   UNL     1       9.351   0.011  -0.955  0.00  0.00    +0.111 A 
ATOM     26  C   UNL     1       7.979  -0.117  -0.985  0.00  0.00    +0.028 A 
ENDBRANCH   3  21
TORSDOF 3
