REMARK  Name = CHEMBL161197
REMARK  6 active torsions:
REMARK  status: ('A' for Active; 'I' for Inactive)
REMARK    1  A    between atoms: C_1  and  C_2
REMARK    2  A    between atoms: C_2  and  C_31
REMARK    3  A    between atoms: C_5  and  C_8
REMARK    4  A    between atoms: C_11  and  C_21
REMARK    5  A    between atoms: C_12  and  C_14
REMARK    6  A    between atoms: N_27  and  C_28
REMARK                            x       y       z     vdW  Elec       q    Type
REMARK                         _______ _______ _______ _____ _____    ______ ____
ROOT
ATOM      1  C   UNL     1      -1.360  -3.842   1.028  0.00  0.00    +0.165 A 
ATOM      2  N   UNL     1      -0.539  -4.808   1.490  0.00  0.00    -0.336 N 
ATOM      3  H   UNL     1       0.308  -4.674   1.942  0.00  0.00    +0.167 HD
ATOM      4  C   UNL     1      -1.129  -6.020   1.204  0.00  0.00    +0.093 A 
ATOM      5  C   UNL     1      -2.318  -5.726   0.559  0.00  0.00    +0.098 A 
ATOM      6  N   UNL     1      -2.413  -4.387   0.483  0.00  0.00    -0.227 NA
ENDROOT
BRANCH   4   7
ATOM      7  C   UNL     1      -0.600  -7.359   1.519  0.00  0.00    +0.094 A 
ATOM      8  C   UNL     1       0.777  -7.559   1.689  0.00  0.00    +0.050 A 
ATOM      9  C   UNL     1       1.225  -8.832   1.984  0.00  0.00    +0.116 A 
ATOM     10  N   UNL     1       0.348  -9.819   2.096  0.00  0.00    -0.223 NA
ATOM     11  C   UNL     1      -0.949  -9.603   1.930  0.00  0.00    +0.216 A 
ATOM     12  N   UNL     1      -1.424  -8.400   1.653  0.00  0.00    -0.213 NA
ATOM     13  N   UNL     1      -1.830 -10.663   2.057  0.00  0.00    -0.311 N 
ATOM     14  H   UNL     1      -2.782 -10.519   1.938  0.00  0.00    +0.149 HD
BRANCH  13  15
ATOM     15  C   UNL     1      -1.325 -12.002   2.370  0.00  0.00    +0.073 C 
ATOM     16  C   UNL     1      -2.086 -12.817   3.417  0.00  0.00    +0.024 C 
ATOM     17  C   UNL     1      -2.177 -13.197   1.938  0.00  0.00    +0.024 C 
ENDBRANCH  13  15
ENDBRANCH   4   7
BRANCH   1  22
ATOM     18  C   UNL     1       0.246   1.505   0.134  0.00  0.00    +0.025 C 
ATOM     19  C   UNL     1       0.001   0.001  -0.000  0.00  0.00    +0.091 C 
ATOM     20  C   UNL     1      -1.506  -0.278   0.019  0.00  0.00    +0.181 C 
ATOM     21  O   UNL     1      -1.718  -1.693   0.027  0.00  0.00    -0.344 OA
ATOM     22  C   UNL     1      -1.103  -2.361   1.131  0.00  0.00    +0.318 C 
ATOM     23  O   UNL     1       0.306  -2.119   1.109  0.00  0.00    -0.344 OA
ATOM     24  C   UNL     1       0.655  -0.733   1.175  0.00  0.00    +0.181 C 
BRANCH  19  25
ATOM     25  C   UNL     1       0.591  -0.494  -1.296  0.00  0.00    +0.226 C 
ATOM     26  O   UNL     1      -0.095  -1.124  -2.073  0.00  0.00    -0.275 OA
ATOM     27  N   UNL     1       1.880  -0.236  -1.591  0.00  0.00    -0.297 N 
ATOM     28  C   UNL     1       2.764   0.421  -0.614  0.00  0.00    +0.136 C 
ATOM     29  C   UNL     1       4.047  -0.409  -0.489  0.00  0.00    +0.179 C 
ATOM     30  O   UNL     1       4.593  -0.630  -1.791  0.00  0.00    -0.377 OA
ATOM     31  C   UNL     1       3.745  -1.382  -2.662  0.00  0.00    +0.179 C 
ATOM     32  C   UNL     1       2.448  -0.608  -2.897  0.00  0.00    +0.136 C 
ENDBRANCH  19  25
ENDBRANCH   1  22
BRANCH   5  33
ATOM     33  C   UNL     1      -3.307  -6.706   0.052  0.00  0.00    +0.003 A 
ATOM     34  C   UNL     1      -2.878  -7.926  -0.470  0.00  0.00    +0.013 A 
ATOM     35  C   UNL     1      -3.803  -8.835  -0.942  0.00  0.00    +0.039 A 
ATOM     36  C   UNL     1      -5.155  -8.537  -0.897  0.00  0.00    +0.123 A 
ATOM     37  C   UNL     1      -5.586  -7.326  -0.380  0.00  0.00    +0.039 A 
ATOM     38  C   UNL     1      -4.670  -6.413   0.100  0.00  0.00    +0.013 A 
ATOM     39  F   UNL     1      -6.057  -9.430  -1.361  0.00  0.00    -0.205 F 
ENDBRANCH   5  33
TORSDOF 5
