REMARK  Name = CHEMBL121405
REMARK  5 active torsions:
REMARK  status: ('A' for Active; 'I' for Inactive)
REMARK    1  A    between atoms: C_6  and  C_7
REMARK    2  A    between atoms: C_8  and  C_19
REMARK    3  A    between atoms: C_10  and  C_12
REMARK    4  A    between atoms: C_12  and  O_18
REMARK    5  A    between atoms: N_25  and  C_26
REMARK                            x       y       z     vdW  Elec       q    Type
REMARK                         _______ _______ _______ _____ _____    ______ ____
ROOT
ATOM      1  C   UNL     1      -1.254  -0.791   0.046  0.00  0.00    +0.117 A 
ATOM      2  C   UNL     1      -1.543  -1.915  -0.702  0.00  0.00    +0.163 A 
ATOM      3  O   UNL     1      -2.827  -2.237  -0.430  0.00  0.00    -0.436 OA
ATOM      4  C   UNL     1      -3.300  -1.344   0.449  0.00  0.00    +0.228 A 
ATOM      5  N   UNL     1      -2.369  -0.483   0.741  0.00  0.00    -0.210 NA
ENDROOT
BRANCH   2   6
ATOM      6  C   UNL     1      -0.630  -2.624  -1.618  0.00  0.00    +0.024 A 
ATOM      7  C   UNL     1       0.674  -2.958  -1.220  0.00  0.00    +0.029 A 
ATOM      8  C   UNL     1       1.496  -3.620  -2.104  0.00  0.00    +0.085 A 
ATOM      9  N   UNL     1       1.075  -3.943  -3.314  0.00  0.00    -0.350 N 
ATOM     10  C   UNL     1      -0.147  -3.648  -3.733  0.00  0.00    +0.097 A 
ATOM     11  C   UNL     1      -1.042  -2.986  -2.904  0.00  0.00    +0.053 A 
ATOM     12  N   UNL     1      -0.539  -4.011  -5.018  0.00  0.00    -0.328 N 
ATOM     13  H   UNL     1       0.081  -4.477  -5.600  0.00  0.00    +0.148 HD
ATOM     14  H   UNL     1       1.679  -4.409  -3.913  0.00  0.00    +0.166 HD
BRANCH  12  15
ATOM     15  C   UNL     1      -1.887  -3.689  -5.490  0.00  0.00    +0.072 C 
ATOM     16  C   UNL     1      -2.859  -4.784  -5.043  0.00  0.00    +0.022 C 
ATOM     17  C   UNL     1      -4.268  -4.448  -5.536  0.00  0.00    +0.002 C 
ATOM     18  C   UNL     1      -4.266  -4.361  -7.064  0.00  0.00    +0.000 C 
ATOM     19  C   UNL     1      -3.294  -3.267  -7.511  0.00  0.00    +0.002 C 
ATOM     20  C   UNL     1      -1.885  -3.602  -7.018  0.00  0.00    +0.022 C 
ENDBRANCH  12  15
ENDBRANCH   2   6
BRANCH   4  21
ATOM     21  C   UNL     1      -4.696  -1.340   1.016  0.00  0.00    +0.138 C 
ATOM     22  C   UNL     1      -5.390  -0.021   0.662  0.00  0.00    +0.025 C 
ATOM     23  C   UNL     1      -6.776   0.009   1.308  0.00  0.00    -0.079 C 
ATOM     24  N   UNL     1      -6.643  -0.099   2.766  0.00  0.00    +0.379 N 
ATOM     25  C   UNL     1      -6.044  -1.392   3.117  0.00  0.00    -0.079 C 
ATOM     26  C   UNL     1      -4.629  -1.477   2.540  0.00  0.00    +0.025 C 
ATOM     27  H   UNL     1      -6.054   0.646   3.105  0.00  0.00    -0.086 HD
ATOM     28  H   UNL     1      -7.554  -0.025   3.192  0.00  0.00    -0.086 HD
BRANCH  21  29
ATOM     29  O   UNL     1      -5.437  -2.433   0.471  0.00  0.00    -0.379 OA
ATOM     30  H   UNL     1      -5.521  -2.409  -0.492  0.00  0.00    +0.211 HD
ENDBRANCH  21  29
ENDBRANCH   4  21
BRANCH   1  36
ATOM     31  C   UNL     1       0.744   0.164  -1.097  0.00  0.00    +0.013 A 
ATOM     32  C   UNL     1       1.945   0.842  -1.058  0.00  0.00    +0.039 A 
ATOM     33  C   UNL     1       2.448   1.295   0.151  0.00  0.00    +0.123 A 
ATOM     34  C   UNL     1       1.748   1.071   1.325  0.00  0.00    +0.039 A 
ATOM     35  C   UNL     1       0.547   0.394   1.297  0.00  0.00    +0.013 A 
ATOM     36  C   UNL     1       0.036  -0.064   0.082  0.00  0.00    +0.004 A 
ATOM     37  F   UNL     1       3.625   1.958   0.184  0.00  0.00    -0.205 F 
ENDBRANCH   1  36
TORSDOF 5
