REMARK  Name = CHEMBL1208890
REMARK  13 active torsions:
REMARK  status: ('A' for Active; 'I' for Inactive)
REMARK    1  A    between atoms: C_1  and  C_2
REMARK    2  A    between atoms: C_2  and  C_3
REMARK    3  A    between atoms: C_2  and  C_4
REMARK    4  A    between atoms: C_2  and  C_5
REMARK    5  A    between atoms: C_7  and  N_18
REMARK    6  A    between atoms: C_8  and  O_16
REMARK    7  A    between atoms: C_9  and  N_11
REMARK    8  A    between atoms: N_11  and  S_12
REMARK    9  A    between atoms: S_12  and  C_15
REMARK   10  A    between atoms: O_16  and  C_17
REMARK   11  A    between atoms: C_19  and  C_21
REMARK   12  A    between atoms: C_21  and  C_23
REMARK   13  A    between atoms: C_26  and  N_33
REMARK                            x       y       z     vdW  Elec       q    Type
REMARK                         _______ _______ _______ _____ _____    ______ ____
ROOT
ATOM      1  N   UNL     1       0.465  -3.388  -3.859  0.00  0.00    -0.276 N 
ATOM      2  C   UNL     1      -0.238  -4.300  -3.157  0.00  0.00    +0.289 C 
ATOM      3  O   UNL     1      -1.278  -3.980  -2.618  0.00  0.00    -0.266 OA
ATOM      4  H   UNL     1       1.254  -3.660  -4.353  0.00  0.00    +0.155 HD
ENDROOT
BRANCH   1   7
ATOM      5  C   UNL     1      -1.159  -0.237  -2.874  0.00  0.00    -0.038 A 
ATOM      6  C   UNL     1      -0.756  -1.559  -2.860  0.00  0.00    +0.031 A 
ATOM      7  C   UNL     1       0.056  -2.050  -3.874  0.00  0.00    +0.078 A 
ATOM      8  C   UNL     1       0.462  -1.210  -4.906  0.00  0.00    +0.166 A 
ATOM      9  C   UNL     1       0.053   0.120  -4.916  0.00  0.00    +0.117 A 
ATOM     10  C   UNL     1      -0.762   0.600  -3.900  0.00  0.00    +0.034 A 
BRANCH   5  12
ATOM     11  C   UNL     1      -2.345   1.768  -2.026  0.00  0.00    +0.015 C 
ATOM     12  C   UNL     1      -2.040   0.291  -1.771  0.00  0.00    -0.013 C 
ATOM     13  C   UNL     1      -1.321   0.142  -0.429  0.00  0.00    +0.015 C 
ATOM     14  C   UNL     1      -3.348  -0.502  -1.740  0.00  0.00    +0.015 C 
ENDBRANCH   5  12
BRANCH   8  15
ATOM     15  O   UNL     1       1.258  -1.686  -5.902  0.00  0.00    -0.491 OA
ATOM     16  C   UNL     1       0.604  -2.237  -7.047  0.00  0.00    +0.277 C 
ENDBRANCH   8  15
BRANCH   9  17
ATOM     17  N   UNL     1       0.458   0.971  -5.951  0.00  0.00    -0.099 NA
BRANCH  17  18
ATOM     18  S   UNL     1      -0.030   2.553  -5.961  0.00  0.00    +0.060 S 
ATOM     19  O   UNL     1      -1.443   2.496  -6.101  0.00  0.00    -0.154 OA
ATOM     20  O   UNL     1       0.561   3.122  -4.801  0.00  0.00    -0.154 OA
ATOM     21  C   UNL     1       0.717   3.262  -7.455  0.00  0.00    +0.220 C 
ENDBRANCH  17  18
ENDBRANCH   9  17
ENDBRANCH   1   7
BRANCH   2  22
ATOM     22  C   UNL     1       0.261  -5.699  -3.043  0.00  0.00    +0.248 C 
ATOM     23  O   UNL     1       1.348  -5.995  -3.500  0.00  0.00    -0.282 OA
BRANCH  22  24
ATOM     24  C   UNL     1      -0.557  -6.715  -2.383  0.00  0.00    +0.035 A 
ATOM     25  C   UNL     1      -1.756  -6.365  -1.754  0.00  0.00    +0.014 A 
ATOM     26  C   UNL     1      -2.529  -7.322  -1.129  0.00  0.00    +0.024 A 
ATOM     27  C   UNL     1      -2.151  -8.655  -1.101  0.00  0.00    +0.040 A 
ATOM     28  C   UNL     1      -0.950  -9.073  -1.719  0.00  0.00    +0.004 A 
ATOM     29  C   UNL     1      -0.137  -8.119  -2.373  0.00  0.00    -0.005 A 
ATOM     30  C   UNL     1       1.048  -8.529  -2.991  0.00  0.00    +0.009 A 
ATOM     31  C   UNL     1       1.405  -9.846  -2.960  0.00  0.00    +0.001 A 
ATOM     32  C   UNL     1       0.604 -10.787  -2.323  0.00  0.00    +0.001 A 
ATOM     33  C   UNL     1      -0.552 -10.418  -1.700  0.00  0.00    +0.010 A 
BRANCH  27  34
ATOM     34  N   UNL     1      -2.955  -9.582  -0.463  0.00  0.00    -0.299 N 
ATOM     35  C   UNL     1      -3.719  -9.203   0.631  0.00  0.00    +0.126 A 
ATOM     36  C   UNL     1      -4.630 -10.092   1.203  0.00  0.00    +0.063 A 
ATOM     37  C   UNL     1      -5.367  -9.667   2.291  0.00  0.00    +0.116 A 
ATOM     38  N   UNL     1      -5.186  -8.438   2.753  0.00  0.00    -0.244 NA
ATOM     39  C   UNL     1      -4.318  -7.622   2.191  0.00  0.00    +0.223 A 
ATOM     40  N   UNL     1      -3.590  -7.987   1.155  0.00  0.00    -0.221 NA
ATOM     41  H   UNL     1      -2.985 -10.498  -0.781  0.00  0.00    +0.154 HD
ENDBRANCH  27  34
ENDBRANCH  22  24
ENDBRANCH   2  22
TORSDOF 8
