REMARK  Name = CHEMBL1088751
REMARK  8 active torsions:
REMARK  status: ('A' for Active; 'I' for Inactive)
REMARK    1  A    between atoms: C_1  and  C_2
REMARK    2  A    between atoms: C_5  and  C_27
REMARK    3  A    between atoms: C_7  and  N_8
REMARK    4  A    between atoms: C_9  and  C_26
REMARK    5  A    between atoms: C_11  and  O_16
REMARK    6  A    between atoms: O_16  and  C_17
REMARK    7  A    between atoms: C_17  and  C_18
REMARK    8  A    between atoms: N_29  and  C_30
REMARK                            x       y       z     vdW  Elec       q    Type
REMARK                         _______ _______ _______ _____ _____    ______ ____
ROOT
ATOM      1  N   UNL     1       0.030  -0.004   2.417  0.00  0.00    -0.280 N 
ATOM      2  C   UNL     1      -1.153   0.385   2.966  0.00  0.00    +0.028 A 
ATOM      3  C   UNL     1      -1.185   1.056   4.137  0.00  0.00    +0.068 A 
ATOM      4  C   UNL     1       0.018   1.360   4.804  0.00  0.00    +0.142 A 
ATOM      5  C   UNL     1       1.216   0.961   4.240  0.00  0.00    +0.124 A 
ATOM      6  C   UNL     1       1.199   0.263   3.026  0.00  0.00    +0.274 A 
ATOM      7  O   UNL     1       2.249  -0.100   2.517  0.00  0.00    -0.266 OA
ATOM      8 BR   UNL     1       2.856   1.347   5.100  0.00  0.00    -0.041 Br
ATOM      9  C   UNL     1      -2.444   0.064   2.257  0.00  0.00    +0.064 C 
ENDROOT
BRANCH   1  16
ATOM     10  C   UNL     1       0.180   1.505   0.013  0.00  0.00    +0.046 C 
ATOM     11  C   UNL     1       0.101   0.000   0.001  0.00  0.00    -0.026 A 
ATOM     12  C   UNL     1       0.107  -0.681  -1.202  0.00  0.00    +0.006 A 
ATOM     13  C   UNL     1       0.036  -2.059  -1.220  0.00  0.00    +0.013 A 
ATOM     14  C   UNL     1      -0.043  -2.769  -0.021  0.00  0.00    +0.039 A 
ATOM     15  C   UNL     1      -0.048  -2.082   1.192  0.00  0.00    +0.039 A 
ATOM     16  C   UNL     1       0.029  -0.698   1.200  0.00  0.00    +0.053 A 
BRANCH  14  17
ATOM     17  C   UNL     1      -0.119  -4.246  -0.038  0.00  0.00    +0.244 C 
ATOM     18  O   UNL     1      -0.187  -4.863   1.007  0.00  0.00    -0.270 OA
ATOM     19  N   UNL     1      -0.114  -4.908  -1.212  0.00  0.00    -0.314 N 
ATOM     20  C   UNL     1      -0.190  -6.371  -1.228  0.00  0.00    +0.128 C 
ATOM     21  H   UNL     1      -0.060  -4.415  -2.046  0.00  0.00    +0.149 HD
ENDBRANCH  14  17
ENDBRANCH   1  16
BRANCH   4  22
ATOM     22  O   UNL     1       0.002   2.033   5.980  0.00  0.00    -0.486 OA
BRANCH  22  23
ATOM     23  C   UNL     1      -0.465   3.383   5.949  0.00  0.00    +0.267 C 
BRANCH  23  24
ATOM     24  C   UNL     1      -0.295   4.005   7.311  0.00  0.00    +0.025 A 
ATOM     25  C   UNL     1       0.251   3.267   8.344  0.00  0.00    +0.012 A 
ATOM     26  C   UNL     1       0.408   3.837   9.593  0.00  0.00    +0.039 A 
ATOM     27  C   UNL     1       0.017   5.147   9.811  0.00  0.00    +0.126 A 
ATOM     28  C   UNL     1      -0.530   5.887   8.777  0.00  0.00    +0.077 A 
ATOM     29  C   UNL     1      -0.681   5.317   7.525  0.00  0.00    +0.132 A 
ATOM     30  F   UNL     1      -1.210   6.040   6.513  0.00  0.00    -0.205 F 
ATOM     31  F   UNL     1       0.170   5.704  11.033  0.00  0.00    -0.205 F 
ENDBRANCH  23  24
ENDBRANCH  22  23
ENDBRANCH   4  22
TORSDOF 5
