REMARK  Name = CHEMBL371716
REMARK  7 active torsions:
REMARK  status: ('A' for Active; 'I' for Inactive)
REMARK    1  A    between atoms: C_1  and  C_2
REMARK    2  A    between atoms: C_6  and  C_8
REMARK    3  A    between atoms: C_9  and  C_23
REMARK    4  A    between atoms: C_11  and  C_13
REMARK    5  A    between atoms: C_16  and  S_19
REMARK    6  A    between atoms: S_19  and  C_22
REMARK    7  A    between atoms: C_30  and  C_32
REMARK                            x       y       z     vdW  Elec       q    Type
REMARK                         _______ _______ _______ _____ _____    ______ ____
ROOT
ATOM      1  C   UNL     1       0.093  -2.895   2.470  0.00  0.00    +0.087 A 
ATOM      2  C   UNL     1      -0.688  -4.042   2.620  0.00  0.00    +0.047 A 
ATOM      3  S   UNL     1      -0.315  -4.473   4.315  0.00  0.00    -0.067 S 
ATOM      4  C   UNL     1       0.811  -3.125   4.648  0.00  0.00    +0.109 A 
ATOM      5  N   UNL     1       0.817  -2.484   3.489  0.00  0.00    -0.238 NA
ENDROOT
BRANCH   2   6
ATOM      6  C   UNL     1      -1.575  -4.712   1.651  0.00  0.00    -0.004 A 
ATOM      7  C   UNL     1      -1.135  -4.998   0.349  0.00  0.00    +0.029 A 
ATOM      8  C   UNL     1      -1.994  -5.625  -0.526  0.00  0.00    +0.113 A 
ATOM      9  N   UNL     1      -3.218  -5.957  -0.158  0.00  0.00    -0.240 NA
ATOM     10  C   UNL     1      -3.677  -5.707   1.059  0.00  0.00    +0.126 A 
ATOM     11  C   UNL     1      -2.876  -5.084   2.006  0.00  0.00    +0.053 A 
ATOM     12  N   UNL     1      -4.978  -6.079   1.395  0.00  0.00    -0.266 N 
ATOM     13  C   UNL     1      -5.724  -6.782   0.520  0.00  0.00    +0.249 C 
ATOM     14  O   UNL     1      -5.300  -7.008  -0.596  0.00  0.00    -0.270 OA
ATOM     15  H   UNL     1      -5.345  -5.831   2.258  0.00  0.00    +0.157 HD
BRANCH  13  16
ATOM     16  C   UNL     1      -7.059  -7.277   0.919  0.00  0.00    +0.037 A 
ATOM     17  C   UNL     1      -7.551  -7.013   2.198  0.00  0.00    +0.013 A 
ATOM     18  C   UNL     1      -8.797  -7.478   2.564  0.00  0.00    +0.001 A 
ATOM     19  C   UNL     1      -9.559  -8.204   1.665  0.00  0.00    +0.000 A 
ATOM     20  C   UNL     1      -9.077  -8.469   0.396  0.00  0.00    +0.001 A 
ATOM     21  C   UNL     1      -7.835  -8.005   0.016  0.00  0.00    +0.013 A 
ENDBRANCH  13  16
ENDBRANCH   2   6
BRANCH   1  27
ATOM     22  C   UNL     1      -2.337  -0.985  -1.450  0.00  0.00    +0.044 C 
ATOM     23  C   UNL     1      -1.053  -1.238  -0.703  0.00  0.00    -0.050 A 
ATOM     24  C   UNL     1       0.147  -0.781  -1.217  0.00  0.00    +0.003 A 
ATOM     25  C   UNL     1       1.329  -1.009  -0.537  0.00  0.00    +0.001 A 
ATOM     26  C   UNL     1       1.318  -1.695   0.661  0.00  0.00    +0.010 A 
ATOM     27  C   UNL     1       0.112  -2.158   1.185  0.00  0.00    +0.002 A 
ATOM     28  C   UNL     1      -1.078  -1.920   0.496  0.00  0.00    +0.013 A 
ENDBRANCH   1  27
BRANCH   4  29
ATOM     29  C   UNL     1       1.547  -2.811   5.890  0.00  0.00    +0.007 A 
ATOM     30  C   UNL     1       2.382  -1.694   5.947  0.00  0.00    +0.012 A 
ATOM     31  C   UNL     1       3.067  -1.406   7.109  0.00  0.00    +0.027 A 
ATOM     32  C   UNL     1       2.927  -2.222   8.218  0.00  0.00    +0.088 A 
ATOM     33  C   UNL     1       2.100  -3.331   8.169  0.00  0.00    +0.027 A 
ATOM     34  C   UNL     1       1.405  -3.626   7.014  0.00  0.00    +0.012 A 
BRANCH  32  35
ATOM     35  S   UNL     1       3.806  -1.849   9.699  0.00  0.00    -0.006 S 
ATOM     36  O   UNL     1       3.952  -3.098  10.359  0.00  0.00    -0.170 OA
ATOM     37  O   UNL     1       4.946  -1.118   9.269  0.00  0.00    -0.170 OA
ATOM     38  C   UNL     1       2.692  -0.770  10.642  0.00  0.00    +0.200 C 
ENDBRANCH  32  35
ENDBRANCH   4  29
TORSDOF 5
