REMARK  Name = CHEMBL519617
REMARK  7 active torsions:
REMARK  status: ('A' for Active; 'I' for Inactive)
REMARK    1  A    between atoms: C_1  and  S_2
REMARK    2  A    between atoms: S_2  and  C_3
REMARK    3  A    between atoms: C_6  and  C_16
REMARK    4  A    between atoms: C_7  and  C_9
REMARK    5  A    between atoms: N_22  and  C_23
REMARK    6  A    between atoms: C_23  and  C_24
REMARK    7  A    between atoms: C_24  and  C_25
REMARK                            x       y       z     vdW  Elec       q    Type
REMARK                         _______ _______ _______ _____ _____    ______ ____
ROOT
ATOM      1  C   UNL     1      -1.562   6.880  -2.264  0.00  0.00    +0.005 A 
ATOM      2  C   UNL     1      -0.701   7.990  -2.279  0.00  0.00    +0.027 A 
ATOM      3  C   UNL     1      -1.138   9.170  -2.836  0.00  0.00    +0.085 A 
ATOM      4  N   UNL     1      -2.350   9.271  -3.353  0.00  0.00    -0.350 N 
ATOM      5  C   UNL     1      -3.197   8.251  -3.363  0.00  0.00    +0.097 A 
ATOM      6  C   UNL     1      -2.835   7.024  -2.827  0.00  0.00    +0.051 A 
ATOM      7  N   UNL     1      -4.460   8.412  -3.920  0.00  0.00    -0.330 N 
ATOM      8  H   UNL     1      -4.718   9.267  -4.300  0.00  0.00    +0.147 HD
ATOM      9  H   UNL     1      -2.628  10.116  -3.739  0.00  0.00    +0.166 HD
ENDROOT
BRANCH   1  13
ATOM     10  C   UNL     1      -0.735   3.448  -1.364  0.00  0.00    +0.167 A 
ATOM     11  N   UNL     1      -1.262   4.342  -2.245  0.00  0.00    -0.332 N 
ATOM     12  H   UNL     1      -1.654   4.137  -3.108  0.00  0.00    +0.168 HD
ATOM     13  C   UNL     1      -1.133   5.598  -1.678  0.00  0.00    +0.075 A 
ATOM     14  C   UNL     1      -0.522   5.409  -0.453  0.00  0.00    +0.098 A 
ATOM     15  N   UNL     1      -0.304   4.090  -0.303  0.00  0.00    -0.221 NA
BRANCH  14  16
ATOM     16  C   UNL     1      -0.174   6.469   0.522  0.00  0.00    +0.003 A 
ATOM     17  C   UNL     1      -1.081   7.493   0.796  0.00  0.00    +0.013 A 
ATOM     18  C   UNL     1      -0.752   8.478   1.704  0.00  0.00    +0.039 A 
ATOM     19  C   UNL     1       0.477   8.450   2.345  0.00  0.00    +0.123 A 
ATOM     20  C   UNL     1       1.380   7.435   2.077  0.00  0.00    +0.039 A 
ATOM     21  C   UNL     1       1.059   6.442   1.174  0.00  0.00    +0.013 A 
ATOM     22  F   UNL     1       0.794   9.417   3.233  0.00  0.00    -0.205 F 
ENDBRANCH  14  16
BRANCH  10  24
ATOM     23  C   UNL     1       0.136   1.089  -0.092  0.00  0.00    +0.093 C 
ATOM     24  S   UNL     1      -0.653   1.704  -1.605  0.00  0.00    -0.091 S 
ENDBRANCH  10  24
ENDBRANCH   1  13
BRANCH   7  25
ATOM     25  C   UNL     1      -5.403   7.291  -3.934  0.00  0.00    +0.108 C 
BRANCH  25  26
ATOM     26  C   UNL     1      -6.709   7.731  -4.599  0.00  0.00    +0.061 C 
BRANCH  26  27
ATOM     27  C   UNL     1      -7.679   6.577  -4.614  0.00  0.00    -0.009 A 
ATOM     28  C   UNL     1      -8.606   6.230  -3.688  0.00  0.00    +0.011 A 
ATOM     29  C   UNL     1      -9.396   5.119  -3.915  0.00  0.00    +0.008 A 
ATOM     30  C   UNL     1      -9.220   4.409  -5.056  0.00  0.00    +0.045 A 
ATOM     31  S   UNL     1      -7.909   5.318  -5.858  0.00  0.00    -0.102 S 
ENDBRANCH  26  27
ENDBRANCH  25  26
ENDBRANCH   7  25
TORSDOF 6
