REMARK  Name = CHEMBL200040
REMARK  7 active torsions:
REMARK  status: ('A' for Active; 'I' for Inactive)
REMARK    1  A    between atoms: C_1  and  O_2
REMARK    2  A    between atoms: O_2  and  C_3
REMARK    3  A    between atoms: C_6  and  C_28
REMARK    4  A    between atoms: C_8  and  C_9
REMARK    5  A    between atoms: C_13  and  N_19
REMARK    6  A    between atoms: N_19  and  C_20
REMARK    7  A    between atoms: N_30  and  C_31
REMARK                            x       y       z     vdW  Elec       q    Type
REMARK                         _______ _______ _______ _____ _____    ______ ____
ROOT
ATOM      1  C   UNL     1       0.963  -3.545   0.063  0.00  0.00    +0.105 A 
ATOM      2  C   UNL     1      -0.048  -4.593   0.231  0.00  0.00    +0.046 A 
ATOM      3  C   UNL     1      -0.616  -5.229   1.341  0.00  0.00    +0.017 A 
ATOM      4  C   UNL     1      -1.562  -6.192   1.123  0.00  0.00    +0.044 A 
ATOM      5  C   UNL     1      -1.931  -6.511  -0.186  0.00  0.00    +0.125 A 
ATOM      6  N   UNL     1      -1.384  -5.901  -1.223  0.00  0.00    -0.213 NA
ATOM      7  C   UNL     1      -0.461  -4.959  -1.063  0.00  0.00    +0.158 A 
ATOM      8  N   UNL     1       0.252  -4.185  -1.939  0.00  0.00    -0.260 N 
ATOM      9  N   UNL     1       1.101  -3.336  -1.224  0.00  0.00    -0.171 NA
ATOM     10  H   UNL     1       0.176  -4.218  -2.905  0.00  0.00    +0.191 HD
ENDROOT
BRANCH   1  16
ATOM     11  C   UNL     1       1.814  -1.451   1.126  0.00  0.00    +0.129 A 
ATOM     12  C   UNL     1       2.491  -0.797   2.146  0.00  0.00    +0.047 A 
ATOM     13  C   UNL     1       3.048  -1.515   3.181  0.00  0.00    +0.016 A 
ATOM     14  C   UNL     1       2.935  -2.909   3.210  0.00  0.00    +0.038 A 
ATOM     15  C   UNL     1       2.256  -3.574   2.189  0.00  0.00    +0.026 A 
ATOM     16  C   UNL     1       1.691  -2.846   1.149  0.00  0.00    +0.045 A 
BRANCH  14  17
ATOM     17  C   UNL     1       3.534  -3.675   4.321  0.00  0.00    +0.244 C 
ATOM     18  O   UNL     1       3.435  -4.887   4.345  0.00  0.00    -0.270 OA
ATOM     19  N   UNL     1       4.189  -3.033   5.307  0.00  0.00    -0.308 N 
ATOM     20  H   UNL     1       4.268  -2.066   5.287  0.00  0.00    +0.149 HD
BRANCH  19  21
ATOM     21  C   UNL     1       4.784  -3.794   6.409  0.00  0.00    +0.078 C 
ATOM     22  C   UNL     1       3.726  -4.042   7.489  0.00  0.00    +0.050 C 
ATOM     23  C   UNL     1       4.375  -4.769   8.670  0.00  0.00    +0.161 C 
ATOM     24  O   UNL     1       5.462  -3.987   9.169  0.00  0.00    -0.380 OA
ATOM     25  C   UNL     1       6.504  -3.762   8.217  0.00  0.00    +0.161 C 
ATOM     26  C   UNL     1       5.941  -2.996   7.017  0.00  0.00    +0.050 C 
ENDBRANCH  19  21
ENDBRANCH  14  17
BRANCH  11  28
ATOM     27  C   UNL     1       1.432   0.681   0.150  0.00  0.00    +0.277 C 
ATOM     28  O   UNL     1       1.267  -0.738   0.110  0.00  0.00    -0.494 OA
ENDBRANCH  11  28
ENDBRANCH   1  16
BRANCH   5  29
ATOM     29  N   UNL     1      -2.892  -7.491  -0.402  0.00  0.00    -0.297 N 
ATOM     30  H   UNL     1      -3.369  -7.877   0.349  0.00  0.00    +0.154 HD
BRANCH  29  31
ATOM     31  C   UNL     1      -3.174  -7.920  -1.705  0.00  0.00    +0.068 A 
ATOM     32  C   UNL     1      -2.240  -7.734  -2.715  0.00  0.00    +0.029 A 
ATOM     33  C   UNL     1      -2.520  -8.158  -4.000  0.00  0.00    +0.040 A 
ATOM     34  C   UNL     1      -3.730  -8.769  -4.282  0.00  0.00    +0.126 A 
ATOM     35  C   UNL     1      -4.664  -8.957  -3.276  0.00  0.00    +0.078 A 
ATOM     36  C   UNL     1      -4.387  -8.539  -1.988  0.00  0.00    +0.147 A 
ATOM     37  F   UNL     1      -5.295  -8.727  -1.006  0.00  0.00    -0.203 F 
ATOM     38  F   UNL     1      -4.000  -9.182  -5.539  0.00  0.00    -0.205 F 
ENDBRANCH  29  31
ENDBRANCH   5  29
TORSDOF 6
