REMARK  Name = CHEMBL1209564
REMARK  12 active torsions:
REMARK  status: ('A' for Active; 'I' for Inactive)
REMARK    1  A    between atoms: C_1  and  C_2
REMARK    2  A    between atoms: N_5  and  C_7
REMARK    3  A    between atoms: C_7  and  C_8
REMARK    4  A    between atoms: N_10  and  C_11
REMARK    5  A    between atoms: C_11  and  C_12
REMARK    6  A    between atoms: C_16  and  N_18
REMARK    7  A    between atoms: C_19  and  N_27
REMARK    8  A    between atoms: C_21  and  C_23
REMARK    9  A    between atoms: C_23  and  C_24
REMARK   10  A    between atoms: C_23  and  C_25
REMARK   11  A    between atoms: C_23  and  C_26
REMARK   12  A    between atoms: N_30  and  C_31
REMARK                            x       y       z     vdW  Elec       q    Type
REMARK                         _______ _______ _______ _____ _____    ______ ____
ROOT
ATOM      1  N   UNL     1       4.045  -8.707   5.167  0.00  0.00    -0.218 N 
ATOM      2  C   UNL     1       4.706  -9.562   5.994  0.00  0.00    +0.130 A 
ATOM      3  C   UNL     1       5.254 -10.537   5.218  0.00  0.00    +0.069 A 
ATOM      4  C   UNL     1       4.918 -10.268   3.888  0.00  0.00    +0.071 A 
ATOM      5  N   UNL     1       4.192  -9.179   3.856  0.00  0.00    -0.169 NA
ENDROOT
BRANCH   1  10
ATOM      6  C   UNL     1       2.631  -5.311   5.129  0.00  0.00    -0.028 A 
ATOM      7  C   UNL     1       1.945  -5.300   6.330  0.00  0.00    +0.005 A 
ATOM      8  C   UNL     1       1.954  -6.416   7.146  0.00  0.00    +0.002 A 
ATOM      9  C   UNL     1       2.650  -7.546   6.763  0.00  0.00    +0.028 A 
ATOM     10  C   UNL     1       3.339  -7.561   5.558  0.00  0.00    +0.068 A 
ATOM     11  C   UNL     1       3.322  -6.440   4.738  0.00  0.00    +0.033 A 
BRANCH   6  12
ATOM     12  C   UNL     1       2.618  -4.092   4.243  0.00  0.00    +0.139 C 
BRANCH  12  15
ATOM     13  C   UNL     1       1.269  -3.183   2.429  0.00  0.00    +0.235 C 
ATOM     14  O   UNL     1       2.017  -2.230   2.389  0.00  0.00    -0.274 OA
ATOM     15  N   UNL     1       1.482  -4.171   3.321  0.00  0.00    -0.310 N 
ATOM     16  H   UNL     1       0.883  -4.933   3.352  0.00  0.00    +0.149 HD
BRANCH  13  17
ATOM     17  C   UNL     1       0.101  -3.264   1.480  0.00  0.00    +0.239 C 
BRANCH  17  22
ATOM     18  C   UNL     1       0.060   1.532   0.001  0.00  0.00    +0.067 C 
ATOM     19  C   UNL     1       0.070   0.025  -0.006  0.00  0.00    +0.060 A 
ATOM     20  C   UNL     1       0.070  -0.790  -1.143  0.00  0.00    +0.044 A 
ATOM     21  C   UNL     1       0.081  -2.079  -0.731  0.00  0.00    +0.109 A 
ATOM     22  N   UNL     1       0.088  -2.079   0.619  0.00  0.00    -0.262 N 
ATOM     23  N   UNL     1       0.086  -0.747   1.050  0.00  0.00    -0.176 NA
ENDBRANCH  17  22
ENDBRANCH  13  17
ENDBRANCH  12  15
ENDBRANCH   6  12
ENDBRANCH   1  10
BRANCH   2  24
ATOM     24  N   UNL     1       4.804  -9.459   7.381  0.00  0.00    -0.254 N 
ATOM     25  C   UNL     1       5.495 -10.383   8.078  0.00  0.00    +0.309 C 
ATOM     26  O   UNL     1       6.032 -11.307   7.498  0.00  0.00    -0.252 OA
ATOM     27  N   UNL     1       5.590 -10.283   9.419  0.00  0.00    -0.269 N 
ATOM     28  H   UNL     1       4.376  -8.722   7.844  0.00  0.00    +0.158 HD
ATOM     29  H   UNL     1       5.219  -9.511   9.875  0.00  0.00    +0.156 HD
BRANCH  27  30
ATOM     30  C   UNL     1       6.223 -11.292  10.153  0.00  0.00    +0.035 A 
ATOM     31  C   UNL     1       7.321 -11.955   9.621  0.00  0.00    +0.023 A 
ATOM     32  C   UNL     1       7.944 -12.950  10.348  0.00  0.00    +0.002 A 
ATOM     33  C   UNL     1       7.475 -13.287  11.604  0.00  0.00    +0.000 A 
ATOM     34  C   UNL     1       6.381 -12.630  12.136  0.00  0.00    +0.002 A 
ATOM     35  C   UNL     1       5.757 -11.630  11.417  0.00  0.00    +0.023 A 
ENDBRANCH  27  30
ENDBRANCH   2  24
BRANCH   4  36
ATOM     36  C   UNL     1       5.318 -11.094   2.693  0.00  0.00    +0.006 C 
ATOM     37  C   UNL     1       4.477 -12.372   2.652  0.00  0.00    +0.017 C 
ATOM     38  C   UNL     1       5.085 -10.288   1.414  0.00  0.00    +0.017 C 
ATOM     39  C   UNL     1       6.800 -11.462   2.801  0.00  0.00    +0.017 C 
ENDBRANCH   4  36
TORSDOF 8
