REMARK  Name = CHEMBL41310
REMARK  13 active torsions:
REMARK  status: ('A' for Active; 'I' for Inactive)
REMARK    1  A    between atoms: C_1  and  C_2
REMARK    2  A    between atoms: C_2  and  O_3
REMARK    3  A    between atoms: O_3  and  C_4
REMARK    4  A    between atoms: N_6  and  C_7
REMARK    5  A    between atoms: C_10  and  O_13
REMARK    6  A    between atoms: O_13  and  C_14
REMARK    7  A    between atoms: C_17  and  N_20
REMARK    8  A    between atoms: N_23  and  C_24
REMARK    9  A    between atoms: C_26  and  C_30
REMARK   10  A    between atoms: N_28  and  C_29
REMARK   11  A    between atoms: C_30  and  C_31
REMARK   12  A    between atoms: C_30  and  C_32
REMARK   13  A    between atoms: C_30  and  C_33
REMARK                            x       y       z     vdW  Elec       q    Type
REMARK                         _______ _______ _______ _____ _____    ______ ____
ROOT
ATOM      1  C   UNL     1       2.722  -7.772   4.377  0.00  0.00    +0.129 A 
ATOM      2  C   UNL     1       3.244  -6.744   5.149  0.00  0.00    +0.048 A 
ATOM      3  C   UNL     1       3.908  -7.031   6.325  0.00  0.00    +0.027 A 
ATOM      4  C   UNL     1       4.053  -8.349   6.736  0.00  0.00    +0.035 A 
ATOM      5  C   UNL     1       3.530  -9.378   5.963  0.00  0.00    +0.027 A 
ATOM      6  C   UNL     1       2.862  -9.089   4.790  0.00  0.00    +0.048 A 
ENDROOT
BRANCH   4   7
ATOM      7  N   UNL     1       4.727  -8.641   7.929  0.00  0.00    -0.269 N 
ATOM      8  C   UNL     1       4.631  -7.803   8.980  0.00  0.00    +0.309 C 
ATOM      9  O   UNL     1       3.879  -6.848   8.929  0.00  0.00    -0.252 OA
ATOM     10  N   UNL     1       5.368  -8.022  10.086  0.00  0.00    -0.254 N 
ATOM     11  H   UNL     1       5.262  -9.447   7.999  0.00  0.00    +0.156 HD
ATOM     12  H   UNL     1       5.968  -8.784  10.127  0.00  0.00    +0.158 HD
BRANCH  10  13
ATOM     13  C   UNL     1       5.269  -7.154  11.174  0.00  0.00    +0.124 A 
ATOM     14  C   UNL     1       4.468  -6.057  11.256  0.00  0.00    +0.069 A 
ATOM     15  C   UNL     1       4.672  -5.471  12.509  0.00  0.00    +0.070 A 
ATOM     16  N   UNL     1       5.558  -6.184  13.157  0.00  0.00    -0.174 NA
ATOM     17  N   UNL     1       5.946  -7.254  12.341  0.00  0.00    -0.253 N 
ATOM     18  C   UNL     1       6.916  -8.296  12.688  0.00  0.00    +0.174 C 
BRANCH  15  19
ATOM     19  C   UNL     1       3.989  -4.231  13.025  0.00  0.00    +0.006 C 
ATOM     20  C   UNL     1       2.547  -4.567  13.412  0.00  0.00    +0.017 C 
ATOM     21  C   UNL     1       4.738  -3.710  14.253  0.00  0.00    +0.017 C 
ATOM     22  C   UNL     1       3.988  -3.158  11.935  0.00  0.00    +0.017 C 
ENDBRANCH  15  19
ENDBRANCH  10  13
ENDBRANCH   4   7
BRANCH   1  23
ATOM     23  O   UNL     1       2.069  -7.489   3.219  0.00  0.00    -0.456 OA
BRANCH  23  27
ATOM     24  C   UNL     1       4.250  -5.874   0.108  0.00  0.00    +0.037 A 
ATOM     25  C   UNL     1       4.894  -6.287   1.267  0.00  0.00    +0.027 A 
ATOM     26  C   UNL     1       4.164  -6.826   2.307  0.00  0.00    +0.048 A 
ATOM     27  C   UNL     1       2.787  -6.957   2.195  0.00  0.00    +0.129 A 
ATOM     28  C   UNL     1       2.143  -6.545   1.037  0.00  0.00    +0.048 A 
ATOM     29  C   UNL     1       2.872  -6.000  -0.002  0.00  0.00    +0.027 A 
BRANCH  24  32
ATOM     30  C   UNL     1       4.466  -4.333  -1.694  0.00  0.00    +0.405 C 
ATOM     31  O   UNL     1       3.324  -3.967  -1.502  0.00  0.00    -0.226 OA
ATOM     32  N   UNL     1       4.990  -5.326  -0.948  0.00  0.00    -0.251 N 
ATOM     33  H   UNL     1       5.880  -5.660  -1.142  0.00  0.00    +0.158 HD
BRANCH  30  34
ATOM     34  O   UNL     1       5.209  -3.747  -2.652  0.00  0.00    -0.450 OA
BRANCH  34  36
ATOM     35  C   UNL     1       5.581  -2.161  -4.438  0.00  0.00    +0.048 C 
ATOM     36  C   UNL     1       4.590  -2.702  -3.404  0.00  0.00    +0.230 C 
ENDBRANCH  34  36
ENDBRANCH  30  34
ENDBRANCH  24  32
ENDBRANCH  23  27
ENDBRANCH   1  23
TORSDOF 8
