REMARK  Name = CHEMBL324977
REMARK  8 active torsions:
REMARK  status: ('A' for Active; 'I' for Inactive)
REMARK    1  A    between atoms: C_1  and  C_2
REMARK    2  A    between atoms: C_2  and  C_3
REMARK    3  A    between atoms: C_2  and  N_9
REMARK    4  A    between atoms: C_12  and  C_16
REMARK    5  A    between atoms: C_17  and  C_24
REMARK    6  A    between atoms: C_19  and  S_22
REMARK    7  A    between atoms: N_20  and  C_21
REMARK    8  A    between atoms: S_22  and  C_23
REMARK                            x       y       z     vdW  Elec       q    Type
REMARK                         _______ _______ _______ _____ _____    ______ ____
ROOT
ATOM      1  N   UNL     1      -1.372  -0.511   0.012  0.00  0.00    -0.322 N 
ATOM      2  C   UNL     1      -2.072  -0.647  -1.181  0.00  0.00    +0.120 A 
ATOM      3  C   UNL     1      -1.460  -0.305  -2.378  0.00  0.00    +0.053 A 
ATOM      4  C   UNL     1      -2.178  -0.448  -3.571  0.00  0.00    +0.005 A 
ATOM      5  C   UNL     1      -3.494  -0.933  -3.498  0.00  0.00    +0.030 A 
ATOM      6  C   UNL     1      -4.025  -1.249  -2.269  0.00  0.00    +0.113 A 
ATOM      7  N   UNL     1      -3.316  -1.106  -1.163  0.00  0.00    -0.240 NA
ATOM      8  H   UNL     1      -1.794  -0.752   0.852  0.00  0.00    +0.148 HD
ENDROOT
BRANCH   4   9
ATOM      9  C   UNL     1      -1.571  -0.098  -4.867  0.00  0.00    +0.077 A 
ATOM     10  C   UNL     1      -0.830   1.032  -5.157  0.00  0.00    +0.098 A 
ATOM     11  N   UNL     1      -0.465   0.962  -6.451  0.00  0.00    -0.221 NA
ATOM     12  C   UNL     1      -0.934  -0.143  -6.982  0.00  0.00    +0.169 A 
ATOM     13  N   UNL     1      -1.624  -0.837  -6.036  0.00  0.00    -0.321 N 
ATOM     14  C   UNL     1      -2.299  -2.124  -6.220  0.00  0.00    +0.151 C 
BRANCH  10  15
ATOM     15  C   UNL     1      -0.497   2.125  -4.213  0.00  0.00    +0.003 A 
ATOM     16  C   UNL     1      -1.411   2.502  -3.229  0.00  0.00    +0.013 A 
ATOM     17  C   UNL     1      -1.096   3.520  -2.353  0.00  0.00    +0.039 A 
ATOM     18  C   UNL     1       0.125   4.167  -2.449  0.00  0.00    +0.123 A 
ATOM     19  C   UNL     1       1.036   3.797  -3.425  0.00  0.00    +0.039 A 
ATOM     20  C   UNL     1       0.733   2.776  -4.303  0.00  0.00    +0.013 A 
ATOM     21  F   UNL     1       0.428   5.164  -1.589  0.00  0.00    -0.205 F 
ENDBRANCH  10  15
BRANCH  12  22
ATOM     22  S   UNL     1      -0.703  -0.650  -8.653  0.00  0.00    -0.091 S 
ATOM     23  C   UNL     1       0.292   0.680  -9.382  0.00  0.00    +0.093 C 
ENDBRANCH  12  22
ENDBRANCH   4   9
BRANCH   1  25
ATOM     24  C   UNL     1      -0.019   1.526   0.010  0.00  0.00    +0.033 C 
ATOM     25  C   UNL     1       0.002  -0.004   0.002  0.00  0.00    +0.099 C 
BRANCH  25  26
ATOM     26  C   UNL     1       0.731  -0.503   1.223  0.00  0.00    -0.028 A 
ATOM     27  C   UNL     1       0.081  -0.558   2.442  0.00  0.00    +0.005 A 
ATOM     28  C   UNL     1       0.749  -1.016   3.562  0.00  0.00    +0.000 A 
ATOM     29  C   UNL     1       2.068  -1.420   3.463  0.00  0.00    +0.000 A 
ATOM     30  C   UNL     1       2.718  -1.365   2.244  0.00  0.00    +0.000 A 
ATOM     31  C   UNL     1       2.048  -0.911   1.123  0.00  0.00    +0.005 A 
ENDBRANCH  25  26
ENDBRANCH   1  25
TORSDOF 5
