REMARK  Name = CHEMBL372301
REMARK  8 active torsions:
REMARK  status: ('A' for Active; 'I' for Inactive)
REMARK    1  A    between atoms: C_10  and  C_11
REMARK    2  A    between atoms: C_12  and  C_30
REMARK    3  A    between atoms: C_14  and  N_17
REMARK    4  A    between atoms: N_17  and  C_18
REMARK    5  A    between atoms: C_18  and  C_19
REMARK    6  A    between atoms: C_19  and  C_21
REMARK    7  A    between atoms: C_19  and  N_29
REMARK    8  A    between atoms: C_21  and  C_22
REMARK                            x       y       z     vdW  Elec       q    Type
REMARK                         _______ _______ _______ _____ _____    ______ ____
ROOT
ATOM      1  C   UNL     1       4.977   0.120  -0.271  0.00  0.00    +0.099 A 
ATOM      2  C   UNL     1       6.178  -0.546   0.047  0.00  0.00    +0.013 A 
ATOM      3  C   UNL     1       7.316   0.234   0.258  0.00  0.00    +0.053 A 
ATOM      4  C   UNL     1       7.190   1.616   0.141  0.00  0.00    +0.113 A 
ATOM      5  N   UNL     1       6.016   2.152  -0.161  0.00  0.00    -0.264 N 
ATOM      6  N   UNL     1       4.966   1.444  -0.363  0.00  0.00    -0.172 NA
ATOM      7  H   UNL     1       5.949   3.117  -0.237  0.00  0.00    +0.190 HD
ENDROOT
BRANCH   1  17
ATOM      8  C   UNL     1       0.207   0.240   1.565  0.00  0.00    +0.001 A 
ATOM      9  C   UNL     1       1.363   0.981   1.802  0.00  0.00    +0.001 A 
ATOM     10  C   UNL     1       2.520   0.706   1.139  0.00  0.00    +0.009 A 
ATOM     11  C   UNL     1       2.553  -0.337   0.202  0.00  0.00    -0.009 A 
ATOM     12  C   UNL     1       1.379  -1.091  -0.041  0.00  0.00    -0.017 A 
ATOM     13  C   UNL     1       0.202  -0.779   0.662  0.00  0.00    +0.008 A 
ATOM     14  C   UNL     1       1.410  -2.138  -0.978  0.00  0.00    +0.008 A 
ATOM     15  C   UNL     1       2.563  -2.422  -1.647  0.00  0.00    +0.001 A 
ATOM     16  C   UNL     1       3.724  -1.692  -1.420  0.00  0.00    +0.011 A 
ATOM     17  C   UNL     1       3.737  -0.652  -0.506  0.00  0.00    +0.010 A 
ENDBRANCH   1  17
BRANCH   2  18
ATOM     18  C   UNL     1       6.231  -2.024   0.153  0.00  0.00    -0.013 A 
ATOM     19  C   UNL     1       5.375  -2.712   1.019  0.00  0.00    +0.028 A 
ATOM     20  C   UNL     1       5.457  -4.088   1.086  0.00  0.00    +0.111 A 
ATOM     21  N   UNL     1       6.327  -4.752   0.349  0.00  0.00    -0.263 NA
ATOM     22  C   UNL     1       7.152  -4.141  -0.480  0.00  0.00    +0.111 A 
ATOM     23  C   UNL     1       7.133  -2.767  -0.614  0.00  0.00    +0.028 A 
ENDBRANCH   2  18
BRANCH   4  24
ATOM     24  N   UNL     1       8.296   2.434   0.343  0.00  0.00    -0.331 N 
ATOM     25  H   UNL     1       8.209   3.397   0.262  0.00  0.00    +0.147 HD
BRANCH  24  26
ATOM     26  C   UNL     1       9.594   1.842   0.678  0.00  0.00    +0.087 C 
BRANCH  26  27
ATOM     27  C   UNL     1      10.633   2.953   0.846  0.00  0.00    -0.053 C 
BRANCH  27  28
ATOM     28  N   UNL     1      10.157   3.922   1.841  0.00  0.00    +0.381 N 
ATOM     29  H   UNL     1      10.842   4.655   1.952  0.00  0.00    -0.090 HD
ATOM     30  H   UNL     1       9.284   4.322   1.531  0.00  0.00    -0.090 HD
ATOM     31  H   UNL     1      10.017   3.456   2.725  0.00  0.00    -0.090 HD
ENDBRANCH  27  28
BRANCH  27  32
ATOM     32  C   UNL     1      11.956   2.346   1.317  0.00  0.00    +0.020 C 
BRANCH  32  33
ATOM     33  C   UNL     1      13.012   3.420   1.364  0.00  0.00    -0.049 A 
ATOM     34  C   UNL     1      13.787   3.676   0.248  0.00  0.00    +0.006 A 
ATOM     35  C   UNL     1      14.756   4.661   0.290  0.00  0.00    +0.038 A 
ATOM     36  C   UNL     1      14.950   5.391   1.451  0.00  0.00    +0.123 A 
ATOM     37  C   UNL     1      14.173   5.133   2.568  0.00  0.00    +0.038 A 
ATOM     38  C   UNL     1      13.202   4.152   2.522  0.00  0.00    +0.006 A 
ATOM     39  F   UNL     1      15.897   6.354   1.493  0.00  0.00    -0.205 F 
ENDBRANCH  32  33
ENDBRANCH  27  32
ENDBRANCH  26  27
ENDBRANCH  24  26
ENDBRANCH   4  24
TORSDOF 8
