REMARK  Name = CHEMBL423071
REMARK  6 active torsions:
REMARK  status: ('A' for Active; 'I' for Inactive)
REMARK    1  A    between atoms: C_1  and  C_2
REMARK    2  A    between atoms: C_2  and  C_34
REMARK    3  A    between atoms: C_5  and  C_8
REMARK    4  A    between atoms: C_11  and  C_21
REMARK    5  A    between atoms: C_12  and  C_14
REMARK    6  A    between atoms: N_27  and  C_28
REMARK                            x       y       z     vdW  Elec       q    Type
REMARK                         _______ _______ _______ _____ _____    ______ ____
ROOT
ATOM      1  C   UNL     1      -1.103  -3.181   0.426  0.00  0.00    +0.165 A 
ATOM      2  N   UNL     1      -0.144  -4.096   0.677  0.00  0.00    -0.336 N 
ATOM      3  H   UNL     1       0.778  -3.912   0.915  0.00  0.00    +0.167 HD
ATOM      4  C   UNL     1      -0.717  -5.341   0.533  0.00  0.00    +0.093 A 
ATOM      5  C   UNL     1      -2.040  -5.119   0.191  0.00  0.00    +0.098 A 
ATOM      6  N   UNL     1      -2.223  -3.787   0.144  0.00  0.00    -0.227 NA
ENDROOT
BRANCH   4   7
ATOM      7  C   UNL     1      -0.055  -6.646   0.709  0.00  0.00    +0.094 A 
ATOM      8  C   UNL     1       1.332  -6.769   0.546  0.00  0.00    +0.050 A 
ATOM      9  C   UNL     1       1.907  -8.013   0.721  0.00  0.00    +0.116 A 
ATOM     10  N   UNL     1       1.137  -9.045   1.034  0.00  0.00    -0.223 NA
ATOM     11  C   UNL     1      -0.172  -8.902   1.182  0.00  0.00    +0.220 A 
ATOM     12  N   UNL     1      -0.765  -7.729   1.030  0.00  0.00    -0.213 NA
ATOM     13  N   UNL     1      -0.938 -10.008   1.511  0.00  0.00    -0.284 N 
ATOM     14  H   UNL     1      -1.905  -9.936   1.544  0.00  0.00    +0.155 HD
BRANCH  13  15
ATOM     15  C   UNL     1      -0.319 -11.229   1.794  0.00  0.00    +0.034 A 
ATOM     16  C   UNL     1       0.920 -11.252   2.421  0.00  0.00    +0.023 A 
ATOM     17  C   UNL     1       1.530 -12.460   2.700  0.00  0.00    +0.002 A 
ATOM     18  C   UNL     1       0.907 -13.645   2.355  0.00  0.00    +0.000 A 
ATOM     19  C   UNL     1      -0.326 -13.626   1.730  0.00  0.00    +0.002 A 
ATOM     20  C   UNL     1      -0.944 -12.422   1.454  0.00  0.00    +0.023 A 
ENDBRANCH  13  15
ENDBRANCH   4   7
BRANCH   1  25
ATOM     21  C   UNL     1      -0.052   2.237  -0.805  0.00  0.00    +0.025 C 
ATOM     22  C   UNL     1      -0.239   0.720  -0.883  0.00  0.00    +0.091 C 
ATOM     23  C   UNL     1      -1.681   0.361  -0.506  0.00  0.00    +0.181 C 
ATOM     24  O   UNL     1      -1.806  -1.064  -0.454  0.00  0.00    -0.344 OA
ATOM     25  C   UNL     1      -0.910  -1.687   0.470  0.00  0.00    +0.318 C 
ATOM     26  O   UNL     1       0.438  -1.369   0.115  0.00  0.00    -0.344 OA
ATOM     27  C   UNL     1       0.715   0.034   0.101  0.00  0.00    +0.181 C 
BRANCH  22  28
ATOM     28  C   UNL     1       0.053   0.246  -2.283  0.00  0.00    +0.226 C 
ATOM     29  O   UNL     1      -0.762  -0.427  -2.878  0.00  0.00    -0.275 OA
ATOM     30  N   UNL     1       1.220   0.570  -2.874  0.00  0.00    -0.297 N 
ATOM     31  C   UNL     1       2.273   1.283  -2.133  0.00  0.00    +0.136 C 
ATOM     32  C   UNL     1       3.592   0.524  -2.317  0.00  0.00    +0.179 C 
ATOM     33  O   UNL     1       3.826   0.319  -3.712  0.00  0.00    -0.377 OA
ATOM     34  C   UNL     1       2.838  -0.487  -4.359  0.00  0.00    +0.179 C 
ATOM     35  C   UNL     1       1.482   0.215  -4.278  0.00  0.00    +0.136 C 
ENDBRANCH  22  28
ENDBRANCH   1  25
BRANCH   5  36
ATOM     36  C   UNL     1      -3.065  -6.155  -0.070  0.00  0.00    +0.003 A 
ATOM     37  C   UNL     1      -2.706  -7.356  -0.683  0.00  0.00    +0.013 A 
ATOM     38  C   UNL     1      -3.664  -8.318  -0.924  0.00  0.00    +0.039 A 
ATOM     39  C   UNL     1      -4.982  -8.094  -0.558  0.00  0.00    +0.123 A 
ATOM     40  C   UNL     1      -5.344  -6.903   0.051  0.00  0.00    +0.039 A 
ATOM     41  C   UNL     1      -4.391  -5.937   0.301  0.00  0.00    +0.013 A 
ATOM     42  F   UNL     1      -5.917  -9.040  -0.796  0.00  0.00    -0.205 F 
ENDBRANCH   5  36
TORSDOF 5
