REMARK  Name = CHEMBL600583
REMARK  9 active torsions:
REMARK  status: ('A' for Active; 'I' for Inactive)
REMARK    1  A    between atoms: C_1  and  C_2
REMARK    2  A    between atoms: N_5  and  C_31
REMARK    3  A    between atoms: C_6  and  C_30
REMARK    4  A    between atoms: C_10  and  C_12
REMARK    5  A    between atoms: N_19  and  C_29
REMARK    6  A    between atoms: C_21  and  C_22
REMARK    7  A    between atoms: C_22  and  C_24
REMARK    8  A    between atoms: N_26  and  C_27
REMARK    9  A    between atoms: N_26  and  C_28
REMARK                            x       y       z     vdW  Elec       q    Type
REMARK                         _______ _______ _______ _____ _____    ______ ____
ROOT
ATOM      1  C   UNL     1      -1.562   1.422   1.073  0.00  0.00    +0.029 C 
ATOM      2  C   UNL     1      -1.599  -0.107   1.126  0.00  0.00    +0.087 C 
ATOM      3  C   UNL     1      -3.002  -0.573   1.529  0.00  0.00    +0.107 C 
ATOM      4  N   UNL     1      -3.279  -0.148   2.907  0.00  0.00    -0.290 NA
ATOM      5  C   UNL     1      -2.351  -0.778   3.856  0.00  0.00    +0.072 C 
ATOM      6  C   UNL     1      -0.922  -0.320   3.549  0.00  0.00    +0.127 C 
ATOM      7  N   UNL     1      -0.636  -0.590   2.127  0.00  0.00    -0.292 N 
ATOM      8  C   UNL     1       0.471  -1.262   1.754  0.00  0.00    +0.248 C 
ATOM      9  O   UNL     1       0.724  -1.409   0.574  0.00  0.00    -0.270 OA
ATOM     10  C   UNL     1      -2.440  -2.300   3.723  0.00  0.00    +0.026 C 
ENDROOT
BRANCH   8  11
ATOM     11  C   UNL     1       1.376  -1.819   2.778  0.00  0.00    +0.056 A 
ATOM     12  C   UNL     1       1.883  -0.997   3.783  0.00  0.00    +0.025 A 
ATOM     13  C   UNL     1       2.732  -1.531   4.741  0.00  0.00    +0.012 A 
ATOM     14  C   UNL     1       3.082  -2.893   4.701  0.00  0.00    +0.051 A 
ATOM     15  C   UNL     1       2.569  -3.704   3.692  0.00  0.00    +0.047 A 
ATOM     16  C   UNL     1       1.722  -3.177   2.745  0.00  0.00    +0.055 A 
ATOM     17 CL   UNL     1       1.083  -4.199   1.496  0.00  0.00    -0.083 Cl
ATOM     18  N   UNL     1       3.926  -3.139   5.763  0.00  0.00    -0.349 N 
ATOM     19  C   UNL     1       4.137  -2.018   6.477  0.00  0.00    +0.098 A 
ATOM     20  C   UNL     1       3.434  -0.970   5.914  0.00  0.00    +0.052 A 
ATOM     21  C   UNL     1       4.515  -4.445   6.072  0.00  0.00    +0.149 C 
BRANCH  20  22
ATOM     22  C   UNL     1       3.393   0.414   6.383  0.00  0.00    +0.249 C 
ATOM     23  O   UNL     1       2.728   1.238   5.786  0.00  0.00    -0.282 OA
BRANCH  22  24
ATOM     24  C   UNL     1       4.167   0.814   7.594  0.00  0.00    +0.287 C 
ATOM     25  O   UNL     1       4.723  -0.031   8.265  0.00  0.00    -0.266 OA
ATOM     26  N   UNL     1       4.250   2.114   7.941  0.00  0.00    -0.301 N 
ATOM     27  C   UNL     1       5.059   2.513   9.095  0.00  0.00    +0.132 C 
ATOM     28  C   UNL     1       3.530   3.127   7.166  0.00  0.00    +0.132 C 
ENDBRANCH  22  24
ENDBRANCH  20  22
ENDBRANCH   8  11
BRANCH   4  29
ATOM     29  C   UNL     1      -4.675  -0.424   3.273  0.00  0.00    +0.088 C 
ATOM     30  C   UNL     1      -5.630   0.466   2.451  0.00  0.00    +0.028 C 
ATOM     31  C   UNL     1      -5.819   1.690   3.373  0.00  0.00    +0.037 C 
ATOM     32  C   UNL     1      -5.582   1.170   4.774  0.00  0.00    -0.043 A 
ATOM     33  C   UNL     1      -4.924  -0.045   4.717  0.00  0.00    -0.027 A 
ATOM     34  C   UNL     1      -4.601  -0.709   5.888  0.00  0.00    +0.005 A 
ATOM     35  C   UNL     1      -4.935  -0.163   7.112  0.00  0.00    +0.000 A 
ATOM     36  C   UNL     1      -5.592   1.052   7.169  0.00  0.00    +0.000 A 
ATOM     37  C   UNL     1      -5.914   1.717   6.002  0.00  0.00    +0.004 A 
ENDBRANCH   4  29
TORSDOF 4
