REMARK  Name = CHEMBL143141
REMARK  16 active torsions:
REMARK  status: ('A' for Active; 'I' for Inactive)
REMARK    1  A    between atoms: C_1  and  C_2
REMARK    2  A    between atoms: C_5  and  N_8
REMARK    3  A    between atoms: C_9  and  N_17
REMARK    4  A    between atoms: C_11  and  C_13
REMARK    5  A    between atoms: C_13  and  C_14
REMARK    6  A    between atoms: C_13  and  C_15
REMARK    7  A    between atoms: C_13  and  C_16
REMARK    8  A    between atoms: N_20  and  C_21
REMARK    9  A    between atoms: C_24  and  O_31
REMARK   10  A    between atoms: O_31  and  C_32
REMARK   11  A    between atoms: C_32  and  C_33
REMARK   12  A    between atoms: C_33  and  C_34
REMARK   13  A    between atoms: C_37  and  O_42
REMARK   14  A    between atoms: C_38  and  O_40
REMARK   15  A    between atoms: O_40  and  C_41
REMARK   16  A    between atoms: O_42  and  C_43
REMARK                            x       y       z     vdW  Elec       q    Type
REMARK                         _______ _______ _______ _____ _____    ______ ____
ROOT
ATOM      1  C   UNL     1       3.323  -5.936   4.751  0.00  0.00    +0.043 A 
ATOM      2  C   UNL     1       3.215  -7.294   4.545  0.00  0.00    +0.027 A 
ATOM      3  C   UNL     1       3.758  -8.199   5.453  0.00  0.00    +0.048 A 
ATOM      4  C   UNL     1       4.411  -7.766   6.572  0.00  0.00    +0.128 A 
ATOM      5  C   UNL     1       4.542  -6.385   6.817  0.00  0.00    +0.026 A 
ATOM      6  C   UNL     1       3.997  -5.458   5.894  0.00  0.00    +0.007 A 
ATOM      7  C   UNL     1       4.132  -4.082   6.137  0.00  0.00    +0.010 A 
ATOM      8  C   UNL     1       4.789  -3.656   7.251  0.00  0.00    +0.001 A 
ATOM      9  C   UNL     1       5.330  -4.567   8.156  0.00  0.00    +0.001 A 
ATOM     10  C   UNL     1       5.208  -5.908   7.958  0.00  0.00    +0.012 A 
ENDROOT
BRANCH   1  14
ATOM     11  N   UNL     1       1.049  -4.444   2.372  0.00  0.00    -0.254 N 
ATOM     12  C   UNL     1       1.627  -5.346   3.190  0.00  0.00    +0.309 C 
ATOM     13  O   UNL     1       1.115  -6.438   3.351  0.00  0.00    -0.252 OA
ATOM     14  N   UNL     1       2.773  -5.038   3.830  0.00  0.00    -0.269 N 
ATOM     15  H   UNL     1       1.457  -3.574   2.244  0.00  0.00    +0.158 HD
ATOM     16  H   UNL     1       3.216  -4.194   3.652  0.00  0.00    +0.156 HD
BRANCH  11  18
ATOM     17  N   UNL     1      -0.826  -3.955   0.860  0.00  0.00    -0.218 N 
ATOM     18  C   UNL     1      -0.137  -4.763   1.710  0.00  0.00    +0.130 A 
ATOM     19  C   UNL     1      -0.816  -5.940   1.796  0.00  0.00    +0.069 A 
ATOM     20  C   UNL     1      -1.945  -5.844   0.978  0.00  0.00    +0.071 A 
ATOM     21  N   UNL     1      -1.956  -4.658   0.423  0.00  0.00    -0.169 NA
BRANCH  17  26
ATOM     22  C   UNL     1       0.605   1.331  -0.630  0.00  0.00    +0.044 C 
ATOM     23  C   UNL     1       0.225  -0.072  -0.234  0.00  0.00    -0.050 A 
ATOM     24  C   UNL     1      -0.388  -0.906  -1.152  0.00  0.00    +0.005 A 
ATOM     25  C   UNL     1      -0.738  -2.193  -0.792  0.00  0.00    +0.028 A 
ATOM     26  C   UNL     1      -0.472  -2.649   0.492  0.00  0.00    +0.067 A 
ATOM     27  C   UNL     1       0.144  -1.810   1.411  0.00  0.00    +0.028 A 
ATOM     28  C   UNL     1       0.495  -0.526   1.044  0.00  0.00    +0.005 A 
ENDBRANCH  17  26
BRANCH  20  29
ATOM     29  C   UNL     1      -2.978  -6.921   0.773  0.00  0.00    +0.006 C 
ATOM     30  C   UNL     1      -3.876  -7.008   2.010  0.00  0.00    +0.017 C 
ATOM     31  C   UNL     1      -3.830  -6.585  -0.452  0.00  0.00    +0.017 C 
ATOM     32  C   UNL     1      -2.279  -8.264   0.555  0.00  0.00    +0.017 C 
ENDBRANCH  20  29
ENDBRANCH  11  18
ENDBRANCH   1  14
BRANCH   4  33
ATOM     33  O   UNL     1       4.934  -8.666   7.447  0.00  0.00    -0.491 OA
BRANCH  33  34
ATOM     34  C   UNL     1       4.762 -10.049   7.133  0.00  0.00    +0.233 C 
BRANCH  34  35
ATOM     35  C   UNL     1       5.412 -10.903   8.225  0.00  0.00    +0.076 C 
BRANCH  35  36
ATOM     36  C   UNL     1       5.231 -12.362   7.894  0.00  0.00    -0.040 A 
ATOM     37  C   UNL     1       4.113 -13.038   8.346  0.00  0.00    +0.007 A 
ATOM     38  C   UNL     1       3.942 -14.377   8.046  0.00  0.00    +0.049 A 
ATOM     39  C   UNL     1       4.894 -15.044   7.291  0.00  0.00    +0.161 A 
ATOM     40  C   UNL     1       6.019 -14.364   6.836  0.00  0.00    +0.162 A 
ATOM     41  C   UNL     1       6.181 -13.021   7.136  0.00  0.00    +0.053 A 
BRANCH  40  42
ATOM     42  O   UNL     1       6.955 -15.014   6.095  0.00  0.00    -0.491 OA
ATOM     43  C   UNL     1       8.085 -14.252   5.662  0.00  0.00    +0.277 C 
ENDBRANCH  40  42
BRANCH  39  44
ATOM     44  O   UNL     1       4.728 -16.361   6.995  0.00  0.00    -0.491 OA
ATOM     45  C   UNL     1       3.549 -16.995   7.495  0.00  0.00    +0.277 C 
ENDBRANCH  39  44
ENDBRANCH  35  36
ENDBRANCH  34  35
ENDBRANCH  33  34
ENDBRANCH   4  33
TORSDOF 10
