REMARK  Name = CHEMBL265710
REMARK  6 active torsions:
REMARK  status: ('A' for Active; 'I' for Inactive)
REMARK    1  A    between atoms: C_1  and  C_2
REMARK    2  A    between atoms: C_5  and  C_32
REMARK    3  A    between atoms: C_7  and  N_8
REMARK    4  A    between atoms: N_13  and  C_26
REMARK    5  A    between atoms: N_22  and  C_25
REMARK    6  A    between atoms: N_34  and  C_35
REMARK                            x       y       z     vdW  Elec       q    Type
REMARK                         _______ _______ _______ _____ _____    ______ ____
ROOT
ATOM      1  N   UNL     1      -0.514  -0.347   2.972  0.00  0.00    -0.299 N 
ATOM      2  C   UNL     1      -0.081  -1.096   4.049  0.00  0.00    +0.139 A 
ATOM      3  C   UNL     1       0.154  -0.491   5.300  0.00  0.00    +0.079 A 
ATOM      4  C   UNL     1       0.053   0.826   5.798  0.00  0.00    +0.148 A 
ATOM      5  N   UNL     1       0.400   0.822   7.054  0.00  0.00    -0.172 NA
ATOM      6  N   UNL     1       0.743  -0.479   7.444  0.00  0.00    -0.214 N 
ATOM      7  C   UNL     1       0.594  -1.302   6.364  0.00  0.00    +0.170 A 
ATOM      8  N   UNL     1       0.772  -2.604   6.151  0.00  0.00    -0.194 NA
ATOM      9  C   UNL     1       0.539  -3.130   4.960  0.00  0.00    +0.221 A 
ATOM     10  N   UNL     1       0.117  -2.404   3.931  0.00  0.00    -0.198 NA
ATOM     11  N   UNL     1       0.735  -4.488   4.781  0.00  0.00    -0.301 N 
ATOM     12  C   UNL     1       0.992  -5.332   5.965  0.00  0.00    +0.106 C 
ATOM     13  C   UNL     1       0.225  -6.664   5.871  0.00  0.00    +0.000 C 
ATOM     14  C   UNL     1      -1.153  -6.413   5.300  0.00  0.00    -0.078 C 
ATOM     15  N   UNL     1      -1.117  -6.608   3.852  0.00  0.00    +0.379 N 
ATOM     16  C   UNL     1      -0.765  -5.462   3.105  0.00  0.00    -0.060 C 
ATOM     17  C   UNL     1       0.677  -5.031   3.439  0.00  0.00    +0.089 C 
ATOM     18  C   UNL     1      -2.445  -7.058   3.412  0.00  0.00    -0.096 C 
ATOM     19  H   UNL     1      -0.764   0.582   3.096  0.00  0.00    +0.154 HD
ATOM     20  H   UNL     1      -0.453  -7.339   3.646  0.00  0.00    -0.082 HD
ENDROOT
BRANCH   1  27
ATOM     21  C   UNL     1      -1.710   1.161   0.882  0.00  0.00    +0.045 C 
ATOM     22  C   UNL     1      -1.168  -0.225   0.651  0.00  0.00    -0.029 A 
ATOM     23  C   UNL     1      -1.240  -0.792  -0.608  0.00  0.00    +0.006 A 
ATOM     24  C   UNL     1      -0.746  -2.062  -0.828  0.00  0.00    +0.013 A 
ATOM     25  C   UNL     1      -0.169  -2.778   0.223  0.00  0.00    +0.038 A 
ATOM     26  C   UNL     1      -0.096  -2.206   1.493  0.00  0.00    +0.036 A 
ATOM     27  C   UNL     1      -0.591  -0.927   1.702  0.00  0.00    +0.036 A 
BRANCH  25  28
ATOM     28  C   UNL     1       0.361  -4.138  -0.009  0.00  0.00    +0.244 C 
ATOM     29  O   UNL     1       0.934  -4.728   0.886  0.00  0.00    -0.270 OA
ATOM     30  N   UNL     1       0.210  -4.724  -1.214  0.00  0.00    -0.314 N 
ATOM     31  C   UNL     1       0.736  -6.072  -1.444  0.00  0.00    +0.128 C 
ATOM     32  H   UNL     1      -0.247  -4.253  -1.928  0.00  0.00    +0.149 HD
ENDBRANCH  25  28
ENDBRANCH   1  27
BRANCH   6  33
ATOM     33  C   UNL     1       1.167  -0.869   8.721  0.00  0.00    +0.068 A 
ATOM     34  C   UNL     1       0.810  -2.113   9.223  0.00  0.00    +0.028 A 
ATOM     35  C   UNL     1       1.229  -2.494  10.482  0.00  0.00    +0.002 A 
ATOM     36  C   UNL     1       2.003  -1.638  11.244  0.00  0.00    +0.000 A 
ATOM     37  C   UNL     1       2.360  -0.398  10.747  0.00  0.00    +0.002 A 
ATOM     38  C   UNL     1       1.949  -0.013   9.486  0.00  0.00    +0.028 A 
ENDBRANCH   6  33
TORSDOF 3
