REMARK  Name = CHEMBL162295
REMARK  7 active torsions:
REMARK  status: ('A' for Active; 'I' for Inactive)
REMARK    1  A    between atoms: C_1  and  C_2
REMARK    2  A    between atoms: C_2  and  C_4
REMARK    3  A    between atoms: C_2  and  N_10
REMARK    4  A    between atoms: C_15  and  C_17
REMARK    5  A    between atoms: C_19  and  N_33
REMARK    6  A    between atoms: C_22  and  C_23
REMARK    7  A    between atoms: C_27  and  C_29
REMARK                            x       y       z     vdW  Elec       q    Type
REMARK                         _______ _______ _______ _____ _____    ______ ____
ROOT
ATOM      1  C   UNL     1       0.820  -1.666   5.818  0.00  0.00    +0.031 A 
ATOM      2  C   UNL     1       0.208  -1.744   7.070  0.00  0.00    +0.057 A 
ATOM      3  C   UNL     1       0.954  -2.259   8.129  0.00  0.00    +0.145 A 
ATOM      4  N   UNL     1       2.203  -2.656   7.929  0.00  0.00    -0.134 NA
ATOM      5  N   UNL     1       2.772  -2.587   6.781  0.00  0.00    -0.147 NA
ATOM      6  C   UNL     1       2.149  -2.119   5.709  0.00  0.00    +0.103 A 
ENDROOT
BRANCH   1  12
ATOM      7  N   UNL     1      -0.529  -2.028   1.250  0.00  0.00    -0.307 N 
ATOM      8  C   UNL     1      -0.552  -1.315   2.436  0.00  0.00    +0.216 A 
ATOM      9  N   UNL     1      -1.222  -0.173   2.490  0.00  0.00    -0.223 NA
ATOM     10  C   UNL     1      -1.268   0.538   3.605  0.00  0.00    +0.116 A 
ATOM     11  C   UNL     1      -0.605   0.077   4.729  0.00  0.00    +0.048 A 
ATOM     12  C   UNL     1       0.093  -1.130   4.642  0.00  0.00    +0.078 A 
ATOM     13  N   UNL     1       0.091  -1.794   3.489  0.00  0.00    -0.214 NA
ATOM     14  H   UNL     1      -0.046  -2.868   1.198  0.00  0.00    +0.149 HD
BRANCH   7  16
ATOM     15  C   UNL     1      -0.333  -0.529  -0.673  0.00  0.00    +0.033 C 
ATOM     16  C   UNL     1      -1.235  -1.515   0.073  0.00  0.00    +0.100 C 
BRANCH  16  17
ATOM     17  C   UNL     1      -1.589  -2.661  -0.840  0.00  0.00    -0.027 A 
ATOM     18  C   UNL     1      -0.690  -3.692  -1.035  0.00  0.00    +0.005 A 
ATOM     19  C   UNL     1      -1.015  -4.743  -1.872  0.00  0.00    +0.000 A 
ATOM     20  C   UNL     1      -2.239  -4.763  -2.513  0.00  0.00    +0.000 A 
ATOM     21  C   UNL     1      -3.139  -3.732  -2.317  0.00  0.00    +0.000 A 
ATOM     22  C   UNL     1      -2.816  -2.683  -1.477  0.00  0.00    +0.005 A 
ENDBRANCH  16  17
ENDBRANCH   7  16
ENDBRANCH   1  12
BRANCH   6  23
ATOM     23  C   UNL     1       2.849  -2.068   4.404  0.00  0.00    +0.003 A 
ATOM     24  C   UNL     1       2.726  -0.944   3.588  0.00  0.00    +0.010 A 
ATOM     25  C   UNL     1       3.380  -0.901   2.374  0.00  0.00    +0.001 A 
ATOM     26  C   UNL     1       4.157  -1.971   1.965  0.00  0.00    +0.012 A 
ATOM     27  C   UNL     1       4.282  -3.089   2.770  0.00  0.00    +0.055 A 
ATOM     28  C   UNL     1       3.637  -3.140   3.989  0.00  0.00    +0.022 A 
BRANCH  27  29
ATOM     29  C   UNL     1       5.129  -4.250   2.318  0.00  0.00    +0.417 C 
ATOM     30  F   UNL     1       5.680  -3.965   1.064  0.00  0.00    -0.166 F 
ATOM     31  F   UNL     1       6.158  -4.465   3.241  0.00  0.00    -0.166 F 
ATOM     32  F   UNL     1       4.336  -5.399   2.228  0.00  0.00    -0.166 F 
ENDBRANCH  27  29
ENDBRANCH   6  23
BRANCH   3  33
ATOM     33  N   UNL     1       0.388  -2.357   9.395  0.00  0.00    -0.309 N 
ATOM     34  C   UNL     1       1.211  -2.689  10.569  0.00  0.00    +0.134 C 
ATOM     35  C   UNL     1       0.928  -1.656  11.666  0.00  0.00    +0.178 C 
ATOM     36  O   UNL     1      -0.482  -1.573  11.882  0.00  0.00    -0.377 OA
ATOM     37  C   UNL     1      -1.224  -1.124  10.745  0.00  0.00    +0.178 C 
ATOM     38  C   UNL     1      -1.050  -2.124   9.602  0.00  0.00    +0.134 C 
ENDBRANCH   3  33
TORSDOF 6
