REMARK  Name = CHEMBL246356
REMARK  10 active torsions:
REMARK  status: ('A' for Active; 'I' for Inactive)
REMARK    1  A    between atoms: C_1  and  C_2
REMARK    2  A    between atoms: C_5  and  N_23
REMARK    3  A    between atoms: C_7  and  O_8
REMARK    4  A    between atoms: O_8  and  C_9
REMARK    5  A    between atoms: C_10  and  C_15
REMARK    6  A    between atoms: N_21  and  C_22
REMARK    7  A    between atoms: C_24  and  C_26
REMARK    8  A    between atoms: C_30  and  O_32
REMARK    9  A    between atoms: O_32  and  C_33
REMARK   10  A    between atoms: C_33  and  C_34
REMARK                            x       y       z     vdW  Elec       q    Type
REMARK                         _______ _______ _______ _____ _____    ______ ____
ROOT
ATOM      1  C   UNL     1       0.004   1.306   0.505  0.00  0.00    +0.047 C 
ATOM      2  C   UNL     1       0.025  -0.186   0.294  0.00  0.00    -0.008 A 
ATOM      3  C   UNL     1      -0.019  -0.702  -0.988  0.00  0.00    +0.009 A 
ATOM      4  C   UNL     1       0.001  -2.069  -1.185  0.00  0.00    +0.024 A 
ATOM      5  C   UNL     1       0.065  -2.929  -0.096  0.00  0.00    +0.037 A 
ATOM      6  C   UNL     1       0.109  -2.412   1.192  0.00  0.00    +0.070 A 
ATOM      7  C   UNL     1       0.094  -1.040   1.386  0.00  0.00    +0.135 A 
ENDROOT
BRANCH   5   8
ATOM      8  N   UNL     1       0.085  -4.313  -0.296  0.00  0.00    -0.281 N 
ATOM      9  C   UNL     1       0.799  -5.103   0.530  0.00  0.00    +0.248 C 
ATOM     10  O   UNL     1       1.508  -4.607   1.383  0.00  0.00    -0.270 OA
ATOM     11  H   UNL     1      -0.415  -4.704  -1.029  0.00  0.00    +0.155 HD
BRANCH   9  12
ATOM     12  C   UNL     1       0.719  -6.573   0.398  0.00  0.00    +0.040 A 
ATOM     13  C   UNL     1      -0.091  -7.146  -0.585  0.00  0.00    +0.013 A 
ATOM     14  C   UNL     1      -0.163  -8.518  -0.705  0.00  0.00    +0.004 A 
ATOM     15  C   UNL     1       0.565  -9.330   0.146  0.00  0.00    +0.046 A 
ATOM     16  C   UNL     1       1.373  -8.770   1.126  0.00  0.00    +0.128 A 
ATOM     17  C   UNL     1       1.457  -7.394   1.252  0.00  0.00    +0.059 A 
BRANCH  16  18
ATOM     18  O   UNL     1       2.085  -9.573   1.960  0.00  0.00    -0.428 OA
BRANCH  18  19
ATOM     19  C   UNL     1       1.955 -10.983   1.770  0.00  0.00    +0.463 C 
ATOM     20  F   UNL     1       0.617 -11.356   1.942  0.00  0.00    -0.158 F 
ATOM     21  F   UNL     1       2.370 -11.320   0.477  0.00  0.00    -0.158 F 
BRANCH  19  22
ATOM     22  C   UNL     1       2.824 -11.718   2.792  0.00  0.00    +0.453 C 
ATOM     23  F   UNL     1       2.697 -13.099   2.607  0.00  0.00    -0.198 F 
ATOM     24  F   UNL     1       4.162 -11.346   2.620  0.00  0.00    -0.198 F 
ENDBRANCH  19  22
ENDBRANCH  18  19
ENDBRANCH  16  18
ENDBRANCH   9  12
ENDBRANCH   5   8
BRANCH   7  25
ATOM     25  O   UNL     1       0.142  -0.530   2.645  0.00  0.00    -0.437 OA
BRANCH  25  26
ATOM     26  C   UNL     1       1.319  -0.016   3.079  0.00  0.00    +0.231 A 
ATOM     27  C   UNL     1       1.440   0.423   4.404  0.00  0.00    +0.081 A 
ATOM     28  C   UNL     1       2.661   0.950   4.830  0.00  0.00    +0.018 A 
ATOM     29  C   UNL     1       3.703   1.016   3.920  0.00  0.00    +0.021 A 
ATOM     30  C   UNL     1       3.507   0.563   2.629  0.00  0.00    +0.114 A 
ATOM     31  N   UNL     1       2.346   0.064   2.250  0.00  0.00    -0.220 NA
BRANCH  27  32
ATOM     32  C   UNL     1       0.293   0.330   5.336  0.00  0.00    +0.170 A 
ATOM     33  N   UNL     1      -0.866  -0.179   4.920  0.00  0.00    -0.216 NA
ATOM     34  C   UNL     1      -1.889  -0.263   5.752  0.00  0.00    +0.227 A 
ATOM     35  N   UNL     1      -1.768   0.158   6.998  0.00  0.00    -0.203 NA
ATOM     36  C   UNL     1      -0.614   0.668   7.422  0.00  0.00    +0.218 A 
ATOM     37  N   UNL     1       0.420   0.750   6.591  0.00  0.00    -0.195 NA
ATOM     38  N   UNL     1      -0.489   1.107   8.725  0.00  0.00    -0.316 N 
ATOM     39  C   UNL     1      -1.628   1.011   9.642  0.00  0.00    +0.128 C 
ATOM     40  H   UNL     1       0.352   1.479   9.033  0.00  0.00    +0.149 HD
ENDBRANCH  27  32
ENDBRANCH  25  26
ENDBRANCH   7  25
TORSDOF 8
