REMARK  Name = CHEMBL521548
REMARK  4 active torsions:
REMARK  status: ('A' for Active; 'I' for Inactive)
REMARK    1  A    between atoms: C_1  and  C_2
REMARK    2  A    between atoms: C_5  and  N_21
REMARK    3  A    between atoms: C_7  and  C_8
REMARK    4  A    between atoms: C_22  and  C_24
REMARK                            x       y       z     vdW  Elec       q    Type
REMARK                         _______ _______ _______ _____ _____    ______ ____
ROOT
ATOM      1  C   UNL     1      -0.044   1.502   0.029  0.00  0.00    +0.044 C 
ATOM      2  C   UNL     1      -0.017  -0.004   0.016  0.00  0.00    -0.043 A 
ATOM      3  C   UNL     1      -0.004  -0.684  -1.186  0.00  0.00    +0.006 A 
ATOM      4  C   UNL     1       0.021  -2.066  -1.204  0.00  0.00    +0.023 A 
ATOM      5  C   UNL     1       0.033  -2.779  -0.011  0.00  0.00    +0.034 A 
ATOM      6  C   UNL     1       0.020  -2.104   1.200  0.00  0.00    +0.032 A 
ATOM      7  C   UNL     1       0.001  -0.712   1.217  0.00  0.00    -0.013 A 
ENDROOT
BRANCH   7   8
ATOM      8  C   UNL     1      -0.006   0.017   2.509  0.00  0.00    -0.017 A 
ATOM      9  C   UNL     1       0.902   1.059   2.726  0.00  0.00    +0.010 A 
ATOM     10  C   UNL     1       0.913   1.743   3.906  0.00  0.00    +0.029 A 
ATOM     11  C   UNL     1       0.008   1.405   4.918  0.00  0.00    +0.080 A 
ATOM     12  C   UNL     1      -0.913   0.353   4.706  0.00  0.00    +0.065 A 
ATOM     13  C   UNL     1      -0.919  -0.334   3.495  0.00  0.00    +0.024 A 
ATOM     14  C   UNL     1      -1.851   0.024   5.788  0.00  0.00    +0.260 A 
ATOM     15  O   UNL     1      -2.667  -0.871   5.666  0.00  0.00    -0.267 OA
ATOM     16  N   UNL     1      -1.773   0.752   6.926  0.00  0.00    -0.295 N 
ATOM     17  H   UNL     1      -2.376   0.562   7.662  0.00  0.00    +0.172 HD
ATOM     18  C   UNL     1      -0.851   1.751   7.046  0.00  0.00    +0.194 A 
ATOM     19  N   UNL     1      -0.006   2.062   6.095  0.00  0.00    -0.216 NA
ATOM     20  N   UNL     1      -0.808   2.463   8.218  0.00  0.00    -0.329 N 
ATOM     21  H   UNL     1      -1.423   2.251   8.937  0.00  0.00    +0.145 HD
ATOM     22  H   UNL     1      -0.161   3.178   8.327  0.00  0.00    +0.145 HD
ENDBRANCH   7   8
BRANCH   5  23
ATOM     23  N   UNL     1       0.058  -4.177  -0.032  0.00  0.00    -0.281 N 
ATOM     24  C   UNL     1       0.741  -4.854   0.912  0.00  0.00    +0.248 C 
ATOM     25  O   UNL     1       1.265  -4.253   1.830  0.00  0.00    -0.270 OA
ATOM     26  H   UNL     1      -0.416  -4.660  -0.727  0.00  0.00    +0.155 HD
BRANCH  24  27
ATOM     27  C   UNL     1       0.854  -6.328   0.832  0.00  0.00    +0.042 A 
ATOM     28  C   UNL     1       0.262  -7.038  -0.221  0.00  0.00    +0.033 A 
ATOM     29  C   UNL     1       0.388  -8.411  -0.261  0.00  0.00    +0.113 A 
ATOM     30  N   UNL     1       1.055  -9.059   0.675  0.00  0.00    -0.240 NA
ATOM     31  C   UNL     1       1.631  -8.432   1.688  0.00  0.00    +0.122 A 
ATOM     32  C   UNL     1       1.556  -7.047   1.800  0.00  0.00    +0.056 A 
ATOM     33  N   UNL     1       2.322  -9.163   2.647  0.00  0.00    -0.315 N 
ATOM     34  C   UNL     1       2.582 -10.609   2.598  0.00  0.00    +0.106 C 
ATOM     35  C   UNL     1       3.355 -10.979   3.882  0.00  0.00    +0.020 C 
ATOM     36  C   UNL     1       2.993  -9.822   4.851  0.00  0.00    +0.020 C 
ATOM     37  C   UNL     1       2.921  -8.616   3.878  0.00  0.00    +0.106 C 
ENDBRANCH  24  27
ENDBRANCH   5  23
TORSDOF 3
