REMARK  Name = CHEMBL476996
REMARK  8 active torsions:
REMARK  status: ('A' for Active; 'I' for Inactive)
REMARK    1  A    between atoms: C_1  and  C_2
REMARK    2  A    between atoms: C_5  and  N_21
REMARK    3  A    between atoms: C_7  and  C_8
REMARK    4  A    between atoms: C_11  and  C_14
REMARK    5  A    between atoms: N_16  and  C_17
REMARK    6  A    between atoms: C_17  and  C_18
REMARK    7  A    between atoms: C_22  and  C_24
REMARK    8  A    between atoms: C_28  and  C_30
REMARK                            x       y       z     vdW  Elec       q    Type
REMARK                         _______ _______ _______ _____ _____    ______ ____
ROOT
ATOM      1  C   UNL     1      -0.044   1.502   0.029  0.00  0.00    +0.044 C 
ATOM      2  C   UNL     1      -0.017  -0.004   0.015  0.00  0.00    -0.043 A 
ATOM      3  C   UNL     1      -0.004  -0.684  -1.186  0.00  0.00    +0.006 A 
ATOM      4  C   UNL     1       0.021  -2.066  -1.204  0.00  0.00    +0.023 A 
ATOM      5  C   UNL     1       0.033  -2.779  -0.011  0.00  0.00    +0.034 A 
ATOM      6  C   UNL     1       0.021  -2.105   1.200  0.00  0.00    +0.032 A 
ATOM      7  C   UNL     1       0.001  -0.712   1.217  0.00  0.00    -0.013 A 
ENDROOT
BRANCH   7   8
ATOM      8  C   UNL     1      -0.006   0.017   2.509  0.00  0.00    -0.018 A 
ATOM      9  C   UNL     1       0.898   1.056   2.728  0.00  0.00    +0.009 A 
ATOM     10  C   UNL     1       0.893   1.732   3.927  0.00  0.00    +0.013 A 
ATOM     11  C   UNL     1      -0.019   1.378   4.924  0.00  0.00    +0.037 A 
ATOM     12  C   UNL     1      -0.925   0.338   4.703  0.00  0.00    +0.013 A 
ATOM     13  C   UNL     1      -0.921  -0.334   3.501  0.00  0.00    +0.009 A 
BRANCH  11  14
ATOM     14  C   UNL     1      -0.026   2.103   6.211  0.00  0.00    +0.244 C 
ATOM     15  O   UNL     1       0.763   3.008   6.403  0.00  0.00    -0.270 OA
ATOM     16  N   UNL     1      -0.906   1.761   7.173  0.00  0.00    -0.311 N 
ATOM     17  H   UNL     1      -1.535   1.039   7.019  0.00  0.00    +0.149 HD
BRANCH  16  18
ATOM     18  C   UNL     1      -0.912   2.480   8.449  0.00  0.00    +0.108 C 
BRANCH  18  19
ATOM     19  C   UNL     1      -1.999   1.899   9.356  0.00  0.00    +0.006 C 
ATOM     20  C   UNL     1      -3.154   2.820   9.754  0.00  0.00    +0.005 C 
ATOM     21  C   UNL     1      -2.089   2.438  10.785  0.00  0.00    +0.005 C 
ENDBRANCH  18  19
ENDBRANCH  16  18
ENDBRANCH  11  14
ENDBRANCH   7   8
BRANCH   5  22
ATOM     22  N   UNL     1       0.058  -4.178  -0.032  0.00  0.00    -0.281 N 
ATOM     23  C   UNL     1       0.741  -4.854   0.912  0.00  0.00    +0.248 C 
ATOM     24  O   UNL     1       1.265  -4.254   1.830  0.00  0.00    -0.270 OA
ATOM     25  H   UNL     1      -0.416  -4.660  -0.727  0.00  0.00    +0.155 HD
BRANCH  23  26
ATOM     26  C   UNL     1       0.853  -6.326   0.832  0.00  0.00    +0.038 A 
ATOM     27  C   UNL     1       0.257  -7.017  -0.226  0.00  0.00    +0.013 A 
ATOM     28  C   UNL     1       0.361  -8.391  -0.301  0.00  0.00    +0.001 A 
ATOM     29  C   UNL     1       1.055  -9.091   0.667  0.00  0.00    +0.008 A 
ATOM     30  C   UNL     1       1.655  -8.413   1.728  0.00  0.00    -0.014 A 
ATOM     31  C   UNL     1       1.559  -7.027   1.807  0.00  0.00    +0.021 A 
BRANCH  30  32
ATOM     32  C   UNL     1       2.399  -9.168   2.766  0.00  0.00    +0.020 A 
ATOM     33  C   UNL     1       2.606 -10.619   2.829  0.00  0.00    +0.049 A 
ATOM     34  C   UNL     1       3.333 -10.843   3.936  0.00  0.00    +0.195 A 
ATOM     35  O   UNL     1       3.580  -9.671   4.540  0.00  0.00    -0.470 OA
ATOM     36  C   UNL     1       3.035  -8.657   3.852  0.00  0.00    +0.203 A 
ENDBRANCH  30  32
ENDBRANCH  23  26
ENDBRANCH   5  22
TORSDOF 7
