REMARK  Name = CHEMBL481883
REMARK  6 active torsions:
REMARK  status: ('A' for Active; 'I' for Inactive)
REMARK    1  A    between atoms: C_1  and  S_2
REMARK    2  A    between atoms: S_2  and  C_3
REMARK    3  A    between atoms: C_6  and  C_16
REMARK    4  A    between atoms: C_7  and  C_9
REMARK    5  A    between atoms: N_22  and  C_23
REMARK    6  A    between atoms: C_23  and  C_24
REMARK                            x       y       z     vdW  Elec       q    Type
REMARK                         _______ _______ _______ _____ _____    ______ ____
ROOT
ATOM      1  C   UNL     1      -5.923   0.294  -2.353  0.00  0.00    +0.005 A 
ATOM      2  C   UNL     1      -7.101   0.331  -1.589  0.00  0.00    +0.027 A 
ATOM      3  C   UNL     1      -8.315   0.191  -2.223  0.00  0.00    +0.085 A 
ATOM      4  N   UNL     1      -8.385   0.024  -3.531  0.00  0.00    -0.350 N 
ATOM      5  C   UNL     1      -7.301  -0.018  -4.293  0.00  0.00    +0.097 A 
ATOM      6  C   UNL     1      -6.038   0.121  -3.737  0.00  0.00    +0.051 A 
ATOM      7  N   UNL     1      -7.432  -0.197  -5.666  0.00  0.00    -0.325 N 
ATOM      8  H   UNL     1      -8.313  -0.290  -6.061  0.00  0.00    +0.148 HD
ATOM      9  H   UNL     1      -9.256  -0.072  -3.947  0.00  0.00    +0.166 HD
ENDROOT
BRANCH   1  13
ATOM     10  C   UNL     1      -2.543   1.087  -1.250  0.00  0.00    +0.167 A 
ATOM     11  N   UNL     1      -3.571   1.268  -2.123  0.00  0.00    -0.332 N 
ATOM     12  H   UNL     1      -3.579   1.865  -2.887  0.00  0.00    +0.168 HD
ATOM     13  C   UNL     1      -4.603   0.441  -1.715  0.00  0.00    +0.075 A 
ATOM     14  C   UNL     1      -4.148  -0.221  -0.590  0.00  0.00    +0.098 A 
ATOM     15  N   UNL     1      -2.892   0.199  -0.348  0.00  0.00    -0.221 NA
BRANCH  14  16
ATOM     16  C   UNL     1      -4.904  -1.217   0.204  0.00  0.00    +0.003 A 
ATOM     17  C   UNL     1      -5.652  -2.203  -0.440  0.00  0.00    +0.013 A 
ATOM     18  C   UNL     1      -6.355  -3.128   0.304  0.00  0.00    +0.039 A 
ATOM     19  C   UNL     1      -6.319  -3.078   1.688  0.00  0.00    +0.123 A 
ATOM     20  C   UNL     1      -5.578  -2.100   2.332  0.00  0.00    +0.039 A 
ATOM     21  C   UNL     1      -4.867  -1.175   1.597  0.00  0.00    +0.013 A 
ATOM     22  F   UNL     1      -7.010  -3.986   2.412  0.00  0.00    -0.205 F 
ENDBRANCH  14  16
BRANCH  10  24
ATOM     23  C   UNL     1      -0.068   1.236   0.090  0.00  0.00    +0.093 C 
ATOM     24  S   UNL     1      -0.985   1.908  -1.323  0.00  0.00    -0.091 S 
ENDBRANCH  10  24
ENDBRANCH   1  13
BRANCH   7  25
ATOM     25  C   UNL     1      -6.240  -0.243  -6.516  0.00  0.00    +0.158 C 
BRANCH  25  26
ATOM     26  C   UNL     1      -6.653  -0.445  -7.951  0.00  0.00    +0.058 A 
ATOM     27  C   UNL     1      -6.794   0.652  -8.781  0.00  0.00    +0.025 A 
ATOM     28  C   UNL     1      -7.175   0.456 -10.100  0.00  0.00    +0.003 A 
ATOM     29  C   UNL     1      -7.401  -0.841 -10.536  0.00  0.00    +0.020 A 
ATOM     30  C   UNL     1      -7.240  -1.888  -9.648  0.00  0.00    +0.111 A 
ATOM     31  N   UNL     1      -6.871  -1.664  -8.401  0.00  0.00    -0.258 NA
ENDBRANCH  25  26
ENDBRANCH   7  25
TORSDOF 5
