REMARK  Name = CHEMBL1082159
REMARK  6 active torsions:
REMARK  status: ('A' for Active; 'I' for Inactive)
REMARK    1  A    between atoms: C_1  and  C_2
REMARK    2  A    between atoms: C_5  and  C_26
REMARK    3  A    between atoms: C_7  and  O_8
REMARK    4  A    between atoms: O_8  and  C_9
REMARK    5  A    between atoms: N_13  and  C_18
REMARK    6  A    between atoms: N_28  and  C_29
REMARK                            x       y       z     vdW  Elec       q    Type
REMARK                         _______ _______ _______ _____ _____    ______ ____
ROOT
ATOM      1  C   UNL     1       1.213   0.422   2.859  0.00  0.00    +0.251 A 
ATOM      2  C   UNL     1       1.292   1.009   4.133  0.00  0.00    +0.085 A 
ATOM      3  C   UNL     1       0.372   1.312   5.158  0.00  0.00    +0.148 A 
ATOM      4  N   UNL     1       1.016   1.867   6.146  0.00  0.00    -0.173 NA
ATOM      5  N   UNL     1       2.378   1.960   5.830  0.00  0.00    -0.225 N 
ATOM      6  C   UNL     1       2.563   1.431   4.584  0.00  0.00    +0.100 A 
ATOM      7  C   UNL     1       3.652   1.237   3.736  0.00  0.00    +0.163 A 
ATOM      8  N   UNL     1       3.465   0.676   2.561  0.00  0.00    -0.152 NA
ATOM      9  N   UNL     1       2.317   0.285   2.146  0.00  0.00    -0.110 NA
ENDROOT
BRANCH   5  10
ATOM     10  C   UNL     1       3.378   2.502   6.650  0.00  0.00    +0.136 A 
ATOM     11  C   UNL     1       4.272   3.434   6.136  0.00  0.00    +0.151 A 
ATOM     12  C   UNL     1       5.257   3.967   6.949  0.00  0.00    +0.041 A 
ATOM     13  C   UNL     1       5.352   3.574   8.271  0.00  0.00    +0.006 A 
ATOM     14  C   UNL     1       4.465   2.647   8.786  0.00  0.00    +0.041 A 
ATOM     15  C   UNL     1       3.474   2.114   7.981  0.00  0.00    +0.151 A 
ATOM     16  F   UNL     1       2.604   1.212   8.487  0.00  0.00    -0.203 F 
ATOM     17  F   UNL     1       4.180   3.818   4.844  0.00  0.00    -0.203 F 
ENDBRANCH   5  10
BRANCH   1  18
ATOM     18  O   UNL     1       0.022  -0.004   2.371  0.00  0.00    -0.436 OA
BRANCH  18  25
ATOM     19  C   UNL     1      -0.115   1.583   0.042  0.00  0.00    +0.047 C 
ATOM     20  C   UNL     1      -0.049   0.078  -0.006  0.00  0.00    -0.008 A 
ATOM     21  C   UNL     1      -0.049  -0.573  -1.226  0.00  0.00    +0.008 A 
ATOM     22  C   UNL     1       0.010  -1.950  -1.278  0.00  0.00    +0.013 A 
ATOM     23  C   UNL     1       0.070  -2.691  -0.096  0.00  0.00    +0.040 A 
ATOM     24  C   UNL     1       0.070  -2.033   1.134  0.00  0.00    +0.059 A 
ATOM     25  C   UNL     1       0.016  -0.649   1.175  0.00  0.00    +0.134 A 
BRANCH  23  26
ATOM     26  C   UNL     1       0.133  -4.167  -0.147  0.00  0.00    +0.244 C 
ATOM     27  O   UNL     1       0.185  -4.809   0.883  0.00  0.00    -0.270 OA
ATOM     28  N   UNL     1       0.132  -4.800  -1.337  0.00  0.00    -0.308 N 
ATOM     29  H   UNL     1       0.090  -4.287  -2.159  0.00  0.00    +0.149 HD
BRANCH  28  30
ATOM     30  C   UNL     1       0.195  -6.263  -1.388  0.00  0.00    +0.073 C 
ATOM     31  C   UNL     1       1.135  -6.894  -2.417  0.00  0.00    +0.024 C 
ATOM     32  C   UNL     1      -0.379  -6.951  -2.628  0.00  0.00    +0.024 C 
ENDBRANCH  28  30
ENDBRANCH  23  26
ENDBRANCH  18  25
ENDBRANCH   1  18
TORSDOF 5
