REMARK  Name = CHEMBL273611
REMARK  5 active torsions:
REMARK  status: ('A' for Active; 'I' for Inactive)
REMARK    1  A    between atoms: C_6  and  C_7
REMARK    2  A    between atoms: C_8  and  C_18
REMARK    3  A    between atoms: N_9  and  C_12
REMARK    4  A    between atoms: C_22  and  O_24
REMARK    5  A    between atoms: O_24  and  C_25
REMARK                            x       y       z     vdW  Elec       q    Type
REMARK                         _______ _______ _______ _____ _____    ______ ____
ROOT
ATOM      1  C   UNL     1      -1.348  -0.937  -0.129  0.00  0.00    +0.073 A 
ATOM      2  C   UNL     1      -1.870  -1.882   0.738  0.00  0.00    +0.093 A 
ATOM      3  N   UNL     1      -3.212  -1.974   0.440  0.00  0.00    -0.327 N 
ATOM      4  C   UNL     1      -3.461  -1.112  -0.567  0.00  0.00    +0.175 A 
ATOM      5  N   UNL     1      -2.360  -0.497  -0.898  0.00  0.00    -0.345 N 
ATOM      6  H   UNL     1      -2.281   0.175  -1.593  0.00  0.00    +0.167 HD
ENDROOT
BRANCH   3   7
ATOM      7  C   UNL     1      -4.188  -2.848   1.096  0.00  0.00    +0.085 C 
ATOM      8  C   UNL     1      -4.700  -3.887   0.094  0.00  0.00    +0.006 C 
ATOM      9  C   UNL     1      -5.777  -4.745   0.762  0.00  0.00    -0.081 C 
ATOM     10  N   UNL     1      -6.889  -3.891   1.195  0.00  0.00    +0.379 N 
ATOM     11  C   UNL     1      -6.421  -2.939   2.209  0.00  0.00    -0.081 C 
ATOM     12  C   UNL     1      -5.369  -2.011   1.597  0.00  0.00    +0.006 C 
ATOM     13  H   UNL     1      -7.251  -3.384   0.401  0.00  0.00    -0.086 HD
ATOM     14  H   UNL     1      -7.620  -4.465   1.586  0.00  0.00    -0.086 HD
ENDBRANCH   3   7
BRANCH   1  20
ATOM     15  C   UNL     1       0.362   0.869  -0.286  0.00  0.00    +0.013 A 
ATOM     16  C   UNL     1       1.677   1.281  -0.345  0.00  0.00    +0.039 A 
ATOM     17  C   UNL     1       2.700   0.346  -0.313  0.00  0.00    +0.123 A 
ATOM     18  C   UNL     1       2.408  -1.005  -0.221  0.00  0.00    +0.039 A 
ATOM     19  C   UNL     1       1.096  -1.426  -0.161  0.00  0.00    +0.013 A 
ATOM     20  C   UNL     1       0.063  -0.490  -0.193  0.00  0.00    +0.001 A 
ATOM     21  F   UNL     1       3.987   0.754  -0.372  0.00  0.00    -0.205 F 
ENDBRANCH   1  20
BRANCH   2  22
ATOM     22  C   UNL     1      -1.138  -2.636   1.771  0.00  0.00    +0.096 A 
ATOM     23  C   UNL     1      -1.562  -3.917   2.154  0.00  0.00    +0.050 A 
ATOM     24  C   UNL     1      -0.843  -4.584   3.126  0.00  0.00    +0.118 A 
ATOM     25  N   UNL     1       0.218  -3.999   3.663  0.00  0.00    -0.203 NA
ATOM     26  C   UNL     1       0.597  -2.789   3.284  0.00  0.00    +0.324 A 
ATOM     27  N   UNL     1      -0.057  -2.115   2.354  0.00  0.00    -0.193 NA
BRANCH  26  28
ATOM     28  O   UNL     1       1.688  -2.229   3.860  0.00  0.00    -0.423 OA
BRANCH  28  29
ATOM     29  C   UNL     1       2.409  -2.986   4.729  0.00  0.00    +0.136 A 
ATOM     30  C   UNL     1       3.102  -4.097   4.272  0.00  0.00    +0.050 A 
ATOM     31  C   UNL     1       3.836  -4.867   5.154  0.00  0.00    +0.053 A 
ATOM     32  C   UNL     1       3.882  -4.532   6.498  0.00  0.00    +0.166 A 
ATOM     33  C   UNL     1       3.188  -3.416   6.959  0.00  0.00    +0.170 A 
ATOM     34  C   UNL     1       2.457  -2.642   6.072  0.00  0.00    +0.096 A 
ATOM     35  O   UNL     1       3.391  -3.301   8.304  0.00  0.00    -0.452 OA
ATOM     36  C   UNL     1       3.880  -4.586   8.730  0.00  0.00    +0.466 C 
ATOM     37  O   UNL     1       4.520  -5.116   7.554  0.00  0.00    -0.453 OA
ENDBRANCH  28  29
ENDBRANCH  26  28
ENDBRANCH   2  22
TORSDOF 5
