REMARK  Name = CHEMBL364572
REMARK  7 active torsions:
REMARK  status: ('A' for Active; 'I' for Inactive)
REMARK    1  A    between atoms: C_1  and  C_2
REMARK    2  A    between atoms: C_2  and  C_3
REMARK    3  A    between atoms: C_2  and  S_4
REMARK    4  A    between atoms: S_4  and  N_7
REMARK    5  A    between atoms: C_10  and  C_17
REMARK    6  A    between atoms: C_18  and  C_31
REMARK    7  A    between atoms: C_20  and  C_23
REMARK                            x       y       z     vdW  Elec       q    Type
REMARK                         _______ _______ _______ _____ _____    ______ ____
ROOT
ATOM      1  C   UNL     1      -1.291  -4.053  -4.554  0.00  0.00    +0.097 A 
ATOM      2  C   UNL     1      -0.561  -4.832  -5.435  0.00  0.00    +0.074 A 
ATOM      3  N   UNL     1      -0.850  -4.365  -6.698  0.00  0.00    -0.337 N 
ATOM      4  C   UNL     1      -1.731  -3.333  -6.554  0.00  0.00    +0.145 A 
ATOM      5  N   UNL     1      -1.989  -3.162  -5.277  0.00  0.00    -0.227 NA
ATOM      6  H   UNL     1      -0.493  -4.705  -7.534  0.00  0.00    +0.167 HD
ENDROOT
BRANCH   1  10
ATOM      7  N   UNL     1      -1.546  -2.276   0.144  0.00  0.00    -0.183 N 
ATOM      8  C   UNL     1      -1.441  -3.176  -0.904  0.00  0.00    +0.094 A 
ATOM      9  C   UNL     1      -1.428  -3.047  -2.282  0.00  0.00    +0.040 A 
ATOM     10  C   UNL     1      -1.305  -4.183  -3.078  0.00  0.00    +0.005 A 
ATOM     11  C   UNL     1      -1.196  -5.446  -2.488  0.00  0.00    +0.012 A 
ATOM     12  C   UNL     1      -1.208  -5.579  -1.130  0.00  0.00    +0.030 A 
ATOM     13  C   UNL     1      -1.330  -4.449  -0.316  0.00  0.00    +0.093 A 
ATOM     14  N   UNL     1      -1.372  -4.271   1.030  0.00  0.00    -0.213 NA
ATOM     15  C   UNL     1      -1.493  -2.996   1.303  0.00  0.00    +0.214 A 
ATOM     16  N   UNL     1      -1.560  -2.460   2.572  0.00  0.00    -0.328 N 
ATOM     17  H   UNL     1      -1.652  -1.502   2.690  0.00  0.00    +0.145 HD
ATOM     18  H   UNL     1      -1.515  -3.042   3.347  0.00  0.00    +0.145 HD
BRANCH   7  19
ATOM     19  S   UNL     1      -1.700  -0.632   0.015  0.00  0.00    +0.060 S 
ATOM     20  O   UNL     1      -2.359  -0.234   1.209  0.00  0.00    -0.153 OA
ATOM     21  O   UNL     1      -2.308  -0.423  -1.252  0.00  0.00    -0.153 OA
BRANCH  19  23
ATOM     22  C   UNL     1      -0.019   1.526   0.010  0.00  0.00    +0.033 C 
ATOM     23  C   UNL     1       0.002  -0.004   0.002  0.00  0.00    +0.148 C 
ATOM     24  C   UNL     1       0.742  -0.511   1.242  0.00  0.00    +0.033 C 
ENDBRANCH  19  23
ENDBRANCH   7  19
ENDBRANCH   1  10
BRANCH   4  25
ATOM     25  C   UNL     1      -2.308  -2.539  -7.658  0.00  0.00    +0.087 A 
ATOM     26  C   UNL     1      -1.965  -2.824  -8.983  0.00  0.00    +0.137 A 
ATOM     27  C   UNL     1      -2.510  -2.077 -10.010  0.00  0.00    +0.039 A 
ATOM     28  C   UNL     1      -3.391  -1.048  -9.730  0.00  0.00    +0.006 A 
ATOM     29  C   UNL     1      -3.735  -0.759  -8.422  0.00  0.00    +0.039 A 
ATOM     30  C   UNL     1      -3.205  -1.502  -7.384  0.00  0.00    +0.137 A 
ATOM     31  F   UNL     1      -3.547  -1.222  -6.107  0.00  0.00    -0.205 F 
ATOM     32  F   UNL     1      -1.104  -3.828  -9.258  0.00  0.00    -0.205 F 
ENDBRANCH   4  25
BRANCH   2  33
ATOM     33  C   UNL     1       0.347  -5.943  -5.089  0.00  0.00    +0.000 A 
ATOM     34  C   UNL     1       1.257  -5.805  -4.038  0.00  0.00    +0.010 A 
ATOM     35  C   UNL     1       2.102  -6.848  -3.721  0.00  0.00    +0.001 A 
ATOM     36  C   UNL     1       2.050  -8.029  -4.440  0.00  0.00    +0.000 A 
ATOM     37  C   UNL     1       1.151  -8.173  -5.482  0.00  0.00    +0.001 A 
ATOM     38  C   UNL     1       0.296  -7.141  -5.808  0.00  0.00    +0.010 A 
ENDBRANCH   2  33
TORSDOF 5
