REMARK  Name = CHEMBL493669
REMARK  9 active torsions:
REMARK  status: ('A' for Active; 'I' for Inactive)
REMARK    1  A    between atoms: C_1  and  C_2
REMARK    2  A    between atoms: C_2  and  C_3
REMARK    3  A    between atoms: C_2  and  N_11
REMARK    4  A    between atoms: C_3  and  C_4
REMARK    5  A    between atoms: C_4  and  C_5
REMARK    6  A    between atoms: C_14  and  C_18
REMARK    7  A    between atoms: C_19  and  C_26
REMARK    8  A    between atoms: C_21  and  S_24
REMARK    9  A    between atoms: S_24  and  C_25
REMARK                            x       y       z     vdW  Elec       q    Type
REMARK                         _______ _______ _______ _____ _____    ______ ____
ROOT
ATOM      1  N   UNL     1       0.711  -0.489   1.189  0.00  0.00    -0.326 N 
ATOM      2  C   UNL     1       0.030  -0.638   2.392  0.00  0.00    +0.119 A 
ATOM      3  C   UNL     1      -1.322  -0.330   2.459  0.00  0.00    +0.053 A 
ATOM      4  C   UNL     1      -1.990  -0.484   3.676  0.00  0.00    +0.007 A 
ATOM      5  C   UNL     1      -1.261  -0.947   4.780  0.00  0.00    +0.030 A 
ATOM      6  C   UNL     1       0.078  -1.230   4.628  0.00  0.00    +0.113 A 
ATOM      7  N   UNL     1       0.678  -1.077   3.461  0.00  0.00    -0.240 NA
ATOM      8  H   UNL     1       1.654  -0.707   1.135  0.00  0.00    +0.148 HD
ENDROOT
BRANCH   4   9
ATOM      9  C   UNL     1      -3.431  -0.168   3.796  0.00  0.00    +0.098 A 
ATOM     10  C   UNL     1      -4.347  -0.828   4.592  0.00  0.00    +0.075 A 
ATOM     11  N   UNL     1      -5.561  -0.200   4.392  0.00  0.00    -0.332 N 
ATOM     12  C   UNL     1      -5.351   0.805   3.496  0.00  0.00    +0.167 A 
ATOM     13  N   UNL     1      -4.085   0.820   3.152  0.00  0.00    -0.221 NA
ATOM     14  H   UNL     1      -6.405  -0.432   4.810  0.00  0.00    +0.168 HD
BRANCH  10  15
ATOM     15  C   UNL     1      -4.081  -1.976   5.481  0.00  0.00    +0.001 A 
ATOM     16  C   UNL     1      -3.299  -3.043   5.033  0.00  0.00    +0.013 A 
ATOM     17  C   UNL     1      -3.054  -4.113   5.867  0.00  0.00    +0.039 A 
ATOM     18  C   UNL     1      -3.582  -4.131   7.149  0.00  0.00    +0.123 A 
ATOM     19  C   UNL     1      -4.359  -3.075   7.599  0.00  0.00    +0.039 A 
ATOM     20  C   UNL     1      -4.606  -1.997   6.775  0.00  0.00    +0.013 A 
ATOM     21  F   UNL     1      -3.339  -5.182   7.962  0.00  0.00    -0.205 F 
ENDBRANCH  10  15
BRANCH  12  22
ATOM     22  S   UNL     1      -6.584   1.912   2.898  0.00  0.00    -0.091 S 
ATOM     23  C   UNL     1      -5.684   2.994   1.753  0.00  0.00    +0.093 C 
ENDBRANCH  12  22
ENDBRANCH   4   9
BRANCH   1  25
ATOM     24  C   UNL     1      -0.019   1.526   0.010  0.00  0.00    +0.028 C 
ATOM     25  C   UNL     1       0.002  -0.004   0.002  0.00  0.00    +0.069 C 
BRANCH  25  26
ATOM     26  C   UNL     1       0.718  -0.497  -1.257  0.00  0.00    +0.026 C 
BRANCH  26  27
ATOM     27  C   UNL     1       0.630  -2.023  -1.329  0.00  0.00    +0.037 C 
BRANCH  27  28
ATOM     28  C   UNL     1       1.336  -2.509  -2.568  0.00  0.00    -0.047 A 
ATOM     29  C   UNL     1       0.638  -2.639  -3.755  0.00  0.00    +0.003 A 
ATOM     30  C   UNL     1       1.285  -3.085  -4.892  0.00  0.00    +0.000 A 
ATOM     31  C   UNL     1       2.630  -3.400  -4.843  0.00  0.00    +0.000 A 
ATOM     32  C   UNL     1       3.328  -3.270  -3.657  0.00  0.00    +0.000 A 
ATOM     33  C   UNL     1       2.682  -2.820  -2.521  0.00  0.00    +0.003 A 
ENDBRANCH  27  28
ENDBRANCH  26  27
ENDBRANCH  25  26
ENDBRANCH   1  25
TORSDOF 7
