REMARK  Name = CHEMBL1089520
REMARK  5 active torsions:
REMARK  status: ('A' for Active; 'I' for Inactive)
REMARK    1  A    between atoms: C_6  and  C_7
REMARK    2  A    between atoms: C_8  and  C_23
REMARK    3  A    between atoms: C_9  and  C_13
REMARK    4  A    between atoms: N_16  and  S_19
REMARK    5  A    between atoms: S_19  and  N_22
REMARK                            x       y       z     vdW  Elec       q    Type
REMARK                         _______ _______ _______ _____ _____    ______ ____
ROOT
ATOM      1  C   UNL     1      -1.240  -0.809   0.053  0.00  0.00    +0.074 A 
ATOM      2  C   UNL     1      -1.614  -1.799  -0.847  0.00  0.00    +0.031 A 
ATOM      3  C   UNL     1      -2.929  -2.181  -0.524  0.00  0.00    +0.074 A 
ATOM      4  N   UNL     1      -3.327  -1.474   0.500  0.00  0.00    -0.177 NA
ATOM      5  H   UNL     1      -2.329   0.019   1.626  0.00  0.00    +0.189 HD
ATOM      6  N   UNL     1      -2.296  -0.612   0.889  0.00  0.00    -0.276 N 
ENDROOT
BRANCH   1  12
ATOM      7  C   UNL     1       0.625   0.397  -1.075  0.00  0.00    +0.011 A 
ATOM      8  C   UNL     1       1.839   1.050  -1.026  0.00  0.00    +0.020 A 
ATOM      9  C   UNL     1       2.496   1.206   0.183  0.00  0.00    +0.041 A 
ATOM     10  C   UNL     1       1.941   0.707   1.349  0.00  0.00    +0.020 A 
ATOM     11  C   UNL     1       0.728   0.052   1.313  0.00  0.00    +0.011 A 
ATOM     12  C   UNL     1       0.060  -0.108   0.098  0.00  0.00    +0.000 A 
ATOM     13 CL   UNL     1       4.024   2.030   0.236  0.00  0.00    -0.084 Cl
ENDBRANCH   1  12
BRANCH   3  14
ATOM     14  C   UNL     1      -3.741  -3.230  -1.239  0.00  0.00    +0.043 C 
ATOM     15  C   UNL     1      -5.011  -2.591  -1.808  0.00  0.00    +0.027 C 
ATOM     16  C   UNL     1      -5.817  -3.652  -2.563  0.00  0.00    +0.111 C 
ATOM     17  N   UNL     1      -6.064  -4.788  -1.664  0.00  0.00    -0.167 NA
ATOM     18  C   UNL     1      -4.919  -5.419  -0.993  0.00  0.00    +0.111 C 
ATOM     19  C   UNL     1      -4.123  -4.338  -0.255  0.00  0.00    +0.027 C 
BRANCH  17  20
ATOM     20  S   UNL     1      -7.602  -5.346  -1.411  0.00  0.00    +0.095 S 
ATOM     21  O   UNL     1      -7.593  -6.005  -0.153  0.00  0.00    -0.141 OA
ATOM     22  O   UNL     1      -8.478  -4.265  -1.699  0.00  0.00    -0.141 OA
BRANCH  20  23
ATOM     23  N   UNL     1      -7.895  -6.509  -2.553  0.00  0.00    -0.193 NA
ATOM     24  H   UNL     1      -7.210  -6.736  -3.201  0.00  0.00    +0.145 HD
ATOM     25  H   UNL     1      -8.752  -6.963  -2.574  0.00  0.00    +0.145 HD
ENDBRANCH  20  23
ENDBRANCH  17  20
ENDBRANCH   3  14
BRANCH   2  26
ATOM     26  C   UNL     1      -0.784  -2.349  -1.943  0.00  0.00    -0.011 A 
ATOM     27  C   UNL     1      -1.126  -2.133  -3.282  0.00  0.00    +0.028 A 
ATOM     28  C   UNL     1      -0.325  -2.663  -4.271  0.00  0.00    +0.111 A 
ATOM     29  N   UNL     1       0.751  -3.365  -3.969  0.00  0.00    -0.263 NA
ATOM     30  C   UNL     1       1.110  -3.591  -2.719  0.00  0.00    +0.111 A 
ATOM     31  C   UNL     1       0.368  -3.094  -1.668  0.00  0.00    +0.028 A 
ENDBRANCH   2  26
TORSDOF 5
