REMARK  Name = CHEMBL259465
REMARK  10 active torsions:
REMARK  status: ('A' for Active; 'I' for Inactive)
REMARK    1  A    between atoms: C_1  and  C_2
REMARK    2  A    between atoms: C_5  and  N_27
REMARK    3  A    between atoms: C_7  and  C_8
REMARK    4  A    between atoms: N_10  and  C_11
REMARK    5  A    between atoms: N_17  and  C_18
REMARK    6  A    between atoms: C_18  and  C_19
REMARK    7  A    between atoms: C_19  and  C_20
REMARK    8  A    between atoms: C_20  and  N_21
REMARK    9  A    between atoms: C_28  and  C_30
REMARK   10  A    between atoms: C_34  and  C_36
REMARK                            x       y       z     vdW  Elec       q    Type
REMARK                         _______ _______ _______ _____ _____    ______ ____
ROOT
ATOM      1  C   UNL     1       0.244   0.303   2.350  0.00  0.00    +0.249 C 
ATOM      2  O   UNL     1       0.085   1.508   2.304  0.00  0.00    -0.270 OA
ATOM      3  N   UNL     1       0.533  -0.294   3.523  0.00  0.00    -0.279 N 
ATOM      4  H   UNL     1       0.583  -1.261   3.576  0.00  0.00    +0.155 HD
ENDROOT
BRANCH   3   5
ATOM      5  C   UNL     1       0.760   0.483   4.667  0.00  0.00    +0.070 A 
ATOM      6  C   UNL     1       1.232   1.788   4.560  0.00  0.00    +0.139 A 
ATOM      7  N   UNL     1       1.435   2.491   5.662  0.00  0.00    -0.221 NA
ATOM      8  C   UNL     1       1.196   1.967   6.855  0.00  0.00    +0.215 A 
ATOM      9  N   UNL     1       0.747   0.729   6.995  0.00  0.00    -0.221 NA
ATOM     10  C   UNL     1       0.515  -0.031   5.938  0.00  0.00    +0.139 A 
ATOM     11  N   UNL     1       1.421   2.735   7.987  0.00  0.00    -0.314 N 
ATOM     12  H   UNL     1       1.750   3.643   7.899  0.00  0.00    +0.149 HD
BRANCH  11  13
ATOM     13  C   UNL     1       1.163   2.175   9.316  0.00  0.00    +0.102 C 
BRANCH  13  14
ATOM     14  C   UNL     1       1.491   3.221  10.383  0.00  0.00    +0.000 C 
BRANCH  14  15
ATOM     15  C   UNL     1       1.221   2.636  11.770  0.00  0.00    -0.077 C 
BRANCH  15  16
ATOM     16  N   UNL     1       1.536   3.641  12.795  0.00  0.00    +0.383 N 
ATOM     17  C   UNL     1       2.976   3.931  12.770  0.00  0.00    -0.050 C 
ATOM     18  C   UNL     1       3.302   4.978  13.838  0.00  0.00    +0.141 C 
ATOM     19  O   UNL     1       2.886   4.492  15.117  0.00  0.00    -0.383 OA
ATOM     20  C   UNL     1       1.494   4.172  15.185  0.00  0.00    +0.141 C 
ATOM     21  C   UNL     1       1.165   3.123  14.119  0.00  0.00    -0.050 C 
ATOM     22  H   UNL     1       1.019   4.487  12.607  0.00  0.00    -0.082 HD
ENDBRANCH  15  16
ENDBRANCH  14  15
ENDBRANCH  13  14
ENDBRANCH  11  13
ENDBRANCH   3   5
BRANCH   1  29
ATOM     23  C   UNL     1      -0.204   1.619  -0.185  0.00  0.00    +0.044 C 
ATOM     24  C   UNL     1      -0.096   0.118  -0.111  0.00  0.00    -0.038 A 
ATOM     25  C   UNL     1      -0.205  -0.640  -1.259  0.00  0.00    +0.006 A 
ATOM     26  C   UNL     1      -0.107  -2.017  -1.196  0.00  0.00    +0.023 A 
ATOM     27  C   UNL     1       0.103  -2.648   0.024  0.00  0.00    +0.034 A 
ATOM     28  C   UNL     1       0.214  -1.897   1.184  0.00  0.00    +0.036 A 
ATOM     29  C   UNL     1       0.120  -0.506   1.119  0.00  0.00    +0.042 A 
BRANCH  27  30
ATOM     30  N   UNL     1       0.201  -4.043   0.083  0.00  0.00    -0.281 N 
ATOM     31  C   UNL     1      -0.275  -4.708   1.154  0.00  0.00    +0.248 C 
ATOM     32  O   UNL     1      -0.878  -4.108   2.023  0.00  0.00    -0.270 OA
ATOM     33  H   UNL     1       0.613  -4.531  -0.647  0.00  0.00    +0.155 HD
BRANCH  31  34
ATOM     34  C   UNL     1      -0.066  -6.166   1.272  0.00  0.00    +0.038 A 
ATOM     35  C   UNL     1       0.631  -6.857   0.278  0.00  0.00    +0.013 A 
ATOM     36  C   UNL     1       0.823  -8.218   0.395  0.00  0.00    +0.001 A 
ATOM     37  C   UNL     1       0.327  -8.898   1.493  0.00  0.00    +0.012 A 
ATOM     38  C   UNL     1      -0.364  -8.220   2.481  0.00  0.00    +0.056 A 
ATOM     39  C   UNL     1      -0.558  -6.858   2.380  0.00  0.00    +0.025 A 
BRANCH  38  40
ATOM     40  C   UNL     1      -0.900  -8.969   3.673  0.00  0.00    +0.417 C 
ATOM     41  F   UNL     1      -0.576 -10.325   3.556  0.00  0.00    -0.166 F 
ATOM     42  F   UNL     1      -0.332  -8.454   4.842  0.00  0.00    -0.166 F 
ATOM     43  F   UNL     1      -2.291  -8.825   3.727  0.00  0.00    -0.166 F 
ENDBRANCH  38  40
ENDBRANCH  31  34
ENDBRANCH  27  30
ENDBRANCH   1  29
TORSDOF 9
