REMARK  Name = CHEMBL315059
REMARK  7 active torsions:
REMARK  status: ('A' for Active; 'I' for Inactive)
REMARK    1  A    between atoms: C_1  and  C_2
REMARK    2  A    between atoms: C_2  and  C_3
REMARK    3  A    between atoms: C_2  and  C_4
REMARK    4  A    between atoms: C_2  and  C_5
REMARK    5  A    between atoms: C_7  and  N_20
REMARK    6  A    between atoms: N_8  and  C_10
REMARK    7  A    between atoms: N_23  and  C_24
REMARK                            x       y       z     vdW  Elec       q    Type
REMARK                         _______ _______ _______ _____ _____    ______ ____
ROOT
ATOM      1  C   UNL     1       0.707  -0.488  -1.239  0.00  0.00    +0.071 A 
ATOM      2  C   UNL     1       2.088  -0.468  -1.454  0.00  0.00    +0.069 A 
ATOM      3  C   UNL     1       2.327  -0.998  -2.685  0.00  0.00    +0.130 A 
ATOM      4  N   UNL     1       1.125  -1.340  -3.223  0.00  0.00    -0.218 N 
ATOM      5  N   UNL     1       0.131  -1.013  -2.291  0.00  0.00    -0.169 NA
ENDROOT
BRANCH   4   6
ATOM      6  C   UNL     1       0.918  -1.920  -4.481  0.00  0.00    +0.068 A 
ATOM      7  C   UNL     1       1.748  -1.566  -5.551  0.00  0.00    +0.028 A 
ATOM      8  C   UNL     1       1.570  -2.113  -6.783  0.00  0.00    +0.010 A 
ATOM      9  C   UNL     1       0.541  -3.048  -6.993  0.00  0.00    -0.018 A 
ATOM     10  C   UNL     1       0.334  -3.629  -8.256  0.00  0.00    +0.008 A 
ATOM     11  C   UNL     1      -0.671  -4.531  -8.426  0.00  0.00    +0.001 A 
ATOM     12  C   UNL     1      -1.502  -4.889  -7.365  0.00  0.00    +0.001 A 
ATOM     13  C   UNL     1      -1.332  -4.346  -6.129  0.00  0.00    +0.008 A 
ATOM     14  C   UNL     1      -0.304  -3.412  -5.915  0.00  0.00    -0.016 A 
ATOM     15  C   UNL     1      -0.096  -2.836  -4.651  0.00  0.00    +0.036 A 
ENDBRANCH   4   6
BRANCH   3  16
ATOM     16  N   UNL     1       3.576  -1.160  -3.285  0.00  0.00    -0.254 N 
ATOM     17  C   UNL     1       4.691  -0.774  -2.635  0.00  0.00    +0.309 C 
ATOM     18  O   UNL     1       4.609  -0.285  -1.525  0.00  0.00    -0.252 OA
ATOM     19  N   UNL     1       5.898  -0.931  -3.215  0.00  0.00    -0.269 N 
ATOM     20  H   UNL     1       3.641  -1.550  -4.171  0.00  0.00    +0.158 HD
ATOM     21  H   UNL     1       5.969  -1.381  -4.071  0.00  0.00    +0.156 HD
BRANCH  19  22
ATOM     22  C   UNL     1       7.047  -0.443  -2.583  0.00  0.00    +0.035 A 
ATOM     23  C   UNL     1       7.148  -0.480  -1.198  0.00  0.00    +0.023 A 
ATOM     24  C   UNL     1       8.284   0.002  -0.577  0.00  0.00    +0.002 A 
ATOM     25  C   UNL     1       9.319   0.521  -1.332  0.00  0.00    +0.000 A 
ATOM     26  C   UNL     1       9.221   0.559  -2.711  0.00  0.00    +0.002 A 
ATOM     27  C   UNL     1       8.091   0.074  -3.338  0.00  0.00    +0.023 A 
ENDBRANCH  19  22
ENDBRANCH   3  16
BRANCH   1  29
ATOM     28  C   UNL     1      -0.023   1.534  -0.004  0.00  0.00    +0.017 C 
ATOM     29  C   UNL     1       0.001   0.004  -0.002  0.00  0.00    +0.006 C 
ATOM     30  C   UNL     1       0.743  -0.493   1.240  0.00  0.00    +0.017 C 
ATOM     31  C   UNL     1      -1.433  -0.528   0.013  0.00  0.00    +0.017 C 
ENDBRANCH   1  29
TORSDOF 4
