REMARK  Name = CHEMBL218961
REMARK  3 active torsions:
REMARK  status: ('A' for Active; 'I' for Inactive)
REMARK    1  A    between atoms: C_11  and  N_17
REMARK    2  A    between atoms: N_17  and  C_18
REMARK    3  A    between atoms: C_23  and  N_24
REMARK                            x       y       z     vdW  Elec       q    Type
REMARK                         _______ _______ _______ _____ _____    ______ ____
ROOT
ATOM      1  C   UNL     1       1.272   1.678   0.927  0.00  0.00    +0.000 A 
ATOM      2  C   UNL     1       2.383   2.363   0.468  0.00  0.00    +0.001 A 
ATOM      3  C   UNL     1       3.509   1.661   0.106  0.00  0.00    +0.012 A 
ATOM      4  C   UNL     1       3.539   0.258   0.197  0.00  0.00    +0.029 A 
ATOM      5  C   UNL     1       2.427  -0.428   0.656  0.00  0.00    +0.000 A 
ATOM      6  C   UNL     1       1.296   0.304   1.019  0.00  0.00    +0.007 A 
ATOM      7  C   UNL     1       2.297  -1.920   0.808  0.00  0.00    +0.265 C 
ATOM      8  O   UNL     1       3.502  -2.634   0.695  0.00  0.00    -0.487 OA
ATOM      9  C   UNL     1       4.131  -2.736  -0.492  0.00  0.00    +0.134 A 
ATOM     10  C   UNL     1       4.140  -3.932  -1.192  0.00  0.00    +0.069 A 
ATOM     11  C   UNL     1       4.772  -3.994  -2.429  0.00  0.00    +0.035 A 
ATOM     12  C   UNL     1       5.391  -2.866  -2.969  0.00  0.00    +0.024 A 
ATOM     13  C   UNL     1       5.396  -1.687  -2.278  0.00  0.00    +0.017 A 
ATOM     14  C   UNL     1       4.775  -1.623  -1.029  0.00  0.00    +0.064 A 
ATOM     15  C   UNL     1       4.794  -0.400  -0.215  0.00  0.00    +0.197 C 
ATOM     16  O   UNL     1       5.861   0.077   0.124  0.00  0.00    -0.287 OA
ENDROOT
BRANCH  11  17
ATOM     17  N   UNL     1       4.786  -5.191  -3.135  0.00  0.00    -0.313 N 
ATOM     18  H   UNL     1       4.947  -6.027  -2.670  0.00  0.00    +0.152 HD
BRANCH  17  19
ATOM     19  C   UNL     1       4.569  -5.191  -4.519  0.00  0.00    +0.052 A 
ATOM     20  C   UNL     1       4.180  -4.025  -5.162  0.00  0.00    +0.028 A 
ATOM     21  C   UNL     1       3.965  -4.026  -6.527  0.00  0.00    +0.040 A 
ATOM     22  C   UNL     1       4.137  -5.190  -7.258  0.00  0.00    +0.125 A 
ATOM     23  C   UNL     1       4.524  -6.358  -6.624  0.00  0.00    +0.063 A 
ATOM     24  C   UNL     1       4.748  -6.362  -5.255  0.00  0.00    +0.049 A 
ATOM     25  F   UNL     1       3.925  -5.185  -8.592  0.00  0.00    -0.205 F 
BRANCH  24  26
ATOM     26  N   UNL     1       5.146  -7.540  -4.613  0.00  0.00    -0.356 N 
ATOM     27  H   UNL     1       5.298  -7.543  -3.655  0.00  0.00    +0.142 HD
ATOM     28  H   UNL     1       5.270  -8.354  -5.126  0.00  0.00    +0.142 HD
ENDBRANCH  24  26
ENDBRANCH  17  19
ENDBRANCH  11  17
TORSDOF 3
