REMARK  Name = CHEMBL93857
REMARK  5 active torsions:
REMARK  status: ('A' for Active; 'I' for Inactive)
REMARK    1  A    between atoms: C_1  and  C_2
REMARK    2  A    between atoms: C_2  and  C_4
REMARK    3  A    between atoms: C_2  and  N_10
REMARK    4  A    between atoms: C_15  and  C_17
REMARK    5  A    between atoms: C_18  and  C_26
REMARK                            x       y       z     vdW  Elec       q    Type
REMARK                         _______ _______ _______ _____ _____    ______ ____
ROOT
ATOM      1  N   UNL     1       0.914  -0.004   1.332  0.00  0.00    -0.311 N 
ATOM      2  C   UNL     1       0.213  -0.186   2.511  0.00  0.00    +0.216 A 
ATOM      3  N   UNL     1      -1.048   0.217   2.582  0.00  0.00    -0.223 NA
ATOM      4  C   UNL     1      -1.753   0.061   3.690  0.00  0.00    +0.116 A 
ATOM      5  C   UNL     1      -1.160  -0.534   4.792  0.00  0.00    +0.050 A 
ATOM      6  C   UNL     1       0.172  -0.950   4.688  0.00  0.00    +0.095 A 
ATOM      7  N   UNL     1       0.817  -0.764   3.536  0.00  0.00    -0.213 NA
ATOM      8  H   UNL     1       1.835  -0.298   1.265  0.00  0.00    +0.149 HD
ENDROOT
BRANCH   6   9
ATOM      9  C   UNL     1       0.850  -1.590   5.834  0.00  0.00    +0.097 A 
ATOM     10  C   UNL     1       2.118  -2.137   5.822  0.00  0.00    +0.075 A 
ATOM     11  C   UNL     1       2.368  -2.653   7.173  0.00  0.00    +0.276 A 
ATOM     12  O   UNL     1       3.380  -3.208   7.559  0.00  0.00    -0.266 OA
ATOM     13  N   UNL     1       1.264  -2.396   7.908  0.00  0.00    -0.249 N 
ATOM     14  N   UNL     1       0.329  -1.740   7.101  0.00  0.00    -0.279 N 
ATOM     15  C   UNL     1      -0.885  -1.440   7.882  0.00  0.00    +0.144 C 
ATOM     16  C   UNL     1      -0.795  -2.349   9.126  0.00  0.00    +0.046 C 
ATOM     17  C   UNL     1       0.722  -2.571   9.267  0.00  0.00    +0.147 C 
BRANCH  10  18
ATOM     18  C   UNL     1       3.046  -2.191   4.670  0.00  0.00    -0.010 A 
ATOM     19  C   UNL     1       2.735  -2.973   3.557  0.00  0.00    +0.011 A 
ATOM     20  C   UNL     1       3.603  -3.021   2.486  0.00  0.00    +0.039 A 
ATOM     21  C   UNL     1       4.782  -2.293   2.514  0.00  0.00    +0.123 A 
ATOM     22  C   UNL     1       5.095  -1.515   3.617  0.00  0.00    +0.039 A 
ATOM     23  C   UNL     1       4.231  -1.456   4.691  0.00  0.00    +0.011 A 
ATOM     24  F   UNL     1       5.629  -2.344   1.463  0.00  0.00    -0.205 F 
ENDBRANCH  10  18
ENDBRANCH   6   9
BRANCH   1  26
ATOM     25  C   UNL     1       0.375   2.154   0.314  0.00  0.00    +0.028 C 
ATOM     26  C   UNL     1       0.263   0.634   0.184  0.00  0.00    +0.073 C 
BRANCH  26  27
ATOM     27  C   UNL     1       0.948   0.181  -1.107  0.00  0.00    +0.009 C 
ATOM     28  C   UNL     1       2.423   0.583  -1.070  0.00  0.00    +0.005 C 
ATOM     29  C   UNL     1       3.108   0.130  -2.361  0.00  0.00    +0.000 C 
ATOM     30  C   UNL     1       2.429   0.795  -3.559  0.00  0.00    +0.000 C 
ATOM     31  C   UNL     1       0.953   0.394  -3.596  0.00  0.00    +0.000 C 
ATOM     32  C   UNL     1       0.268   0.847  -2.305  0.00  0.00    +0.005 C 
ENDBRANCH  26  27
ENDBRANCH   1  26
TORSDOF 4
