REMARK  Name = CHEMBL331215
REMARK  4 active torsions:
REMARK  status: ('A' for Active; 'I' for Inactive)
REMARK    1  A    between atoms: C_4  and  C_7
REMARK    2  A    between atoms: C_7  and  C_8
REMARK    3  A    between atoms: C_18  and  C_29
REMARK    4  A    between atoms: C_19  and  C_22
REMARK                            x       y       z     vdW  Elec       q    Type
REMARK                         _______ _______ _______ _____ _____    ______ ____
ROOT
ATOM      1  C   UNL     1       4.164  -0.959   1.377  0.00  0.00    +0.113 A 
ATOM      2  N   UNL     1       4.482  -2.178   1.889  0.00  0.00    -0.342 N 
ATOM      3  H   UNL     1       4.458  -3.025   1.416  0.00  0.00    +0.167 HD
ATOM      4  C   UNL     1       4.847  -1.987   3.208  0.00  0.00    +0.067 A 
ATOM      5  C   UNL     1       5.264  -2.840   4.228  0.00  0.00    +0.030 A 
ATOM      6  C   UNL     1       5.563  -2.350   5.466  0.00  0.00    +0.028 A 
ATOM      7  C   UNL     1       5.456  -0.984   5.736  0.00  0.00    +0.050 A 
ATOM      8  C   UNL     1       5.039  -0.108   4.726  0.00  0.00    +0.035 A 
ATOM      9  C   UNL     1       4.729  -0.611   3.446  0.00  0.00    +0.099 A 
ATOM     10  N   UNL     1       4.315  -0.042   2.289  0.00  0.00    -0.231 NA
ATOM     11  C   UNL     1       5.029   1.235   5.318  0.00  0.00    +0.017 A 
ATOM     12  C   UNL     1       5.436   1.087   6.630  0.00  0.00    +0.055 A 
ATOM     13  N   UNL     1       5.689  -0.238   6.874  0.00  0.00    -0.354 N 
ATOM     14  H   UNL     1       5.989  -0.599   7.723  0.00  0.00    +0.166 HD
ENDROOT
BRANCH  12  15
ATOM     15  C   UNL     1       5.577   2.181   7.612  0.00  0.00    -0.001 A 
ATOM     16  C   UNL     1       6.199   3.376   7.245  0.00  0.00    +0.013 A 
ATOM     17  C   UNL     1       6.327   4.394   8.167  0.00  0.00    +0.039 A 
ATOM     18  C   UNL     1       5.840   4.233   9.454  0.00  0.00    +0.123 A 
ATOM     19  C   UNL     1       5.221   3.049   9.824  0.00  0.00    +0.039 A 
ATOM     20  C   UNL     1       5.082   2.026   8.909  0.00  0.00    +0.013 A 
ATOM     21  F   UNL     1       5.969   5.233  10.353  0.00  0.00    -0.205 F 
ENDBRANCH  12  15
BRANCH  11  22
ATOM     22  C   UNL     1       4.658   2.497   4.643  0.00  0.00    -0.012 A 
ATOM     23  C   UNL     1       5.418   2.994   3.577  0.00  0.00    +0.028 A 
ATOM     24  C   UNL     1       5.036   4.175   2.977  0.00  0.00    +0.111 A 
ATOM     25  N   UNL     1       3.971   4.833   3.394  0.00  0.00    -0.263 NA
ATOM     26  C   UNL     1       3.227   4.401   4.395  0.00  0.00    +0.111 A 
ATOM     27  C   UNL     1       3.533   3.226   5.048  0.00  0.00    +0.028 A 
ENDBRANCH  11  22
BRANCH   1  28
ATOM     28  C   UNL     1       3.711  -0.707  -0.038  0.00  0.00    +0.109 C 
BRANCH  28  32
ATOM     29  C   UNL     1      -0.017   1.378   0.010  0.00  0.00    +0.000 A 
ATOM     30  C   UNL     1       1.171   2.086   0.002  0.00  0.00    +0.000 A 
ATOM     31  C   UNL     1       2.377   1.411  -0.013  0.00  0.00    +0.004 A 
ATOM     32  C   UNL     1       2.396   0.029  -0.020  0.00  0.00    -0.040 A 
ATOM     33  C   UNL     1       1.208  -0.679  -0.012  0.00  0.00    +0.004 A 
ATOM     34  C   UNL     1       0.002  -0.004   0.002  0.00  0.00    +0.000 A 
ENDBRANCH  28  32
ENDBRANCH   1  28
TORSDOF 4
