REMARK  Name = CHEMBL476351
REMARK  7 active torsions:
REMARK  status: ('A' for Active; 'I' for Inactive)
REMARK    1  A    between atoms: C_1  and  C_2
REMARK    2  A    between atoms: C_5  and  N_21
REMARK    3  A    between atoms: C_7  and  C_8
REMARK    4  A    between atoms: C_11  and  C_14
REMARK    5  A    between atoms: N_16  and  C_17
REMARK    6  A    between atoms: C_17  and  C_18
REMARK    7  A    between atoms: C_22  and  C_24
REMARK                            x       y       z     vdW  Elec       q    Type
REMARK                         _______ _______ _______ _____ _____    ______ ____
ROOT
ATOM      1  C   UNL     1      -0.045   1.502   0.029  0.00  0.00    +0.044 C 
ATOM      2  C   UNL     1      -0.018  -0.005   0.016  0.00  0.00    -0.043 A 
ATOM      3  C   UNL     1      -0.005  -0.684  -1.186  0.00  0.00    +0.006 A 
ATOM      4  C   UNL     1       0.020  -2.066  -1.203  0.00  0.00    +0.023 A 
ATOM      5  C   UNL     1       0.033  -2.779  -0.010  0.00  0.00    +0.034 A 
ATOM      6  C   UNL     1       0.020  -2.105   1.201  0.00  0.00    +0.032 A 
ATOM      7  C   UNL     1       0.000  -0.712   1.217  0.00  0.00    -0.013 A 
ENDROOT
BRANCH   7   8
ATOM      8  C   UNL     1      -0.008   0.016   2.509  0.00  0.00    -0.018 A 
ATOM      9  C   UNL     1       0.896   1.056   2.729  0.00  0.00    +0.009 A 
ATOM     10  C   UNL     1       0.890   1.732   3.928  0.00  0.00    +0.013 A 
ATOM     11  C   UNL     1      -0.022   1.377   4.925  0.00  0.00    +0.037 A 
ATOM     12  C   UNL     1      -0.927   0.337   4.703  0.00  0.00    +0.013 A 
ATOM     13  C   UNL     1      -0.923  -0.335   3.502  0.00  0.00    +0.009 A 
BRANCH  11  14
ATOM     14  C   UNL     1      -0.029   2.102   6.212  0.00  0.00    +0.244 C 
ATOM     15  O   UNL     1       0.759   3.008   6.404  0.00  0.00    -0.270 OA
ATOM     16  N   UNL     1      -0.910   1.760   7.173  0.00  0.00    -0.311 N 
ATOM     17  H   UNL     1      -1.539   1.037   7.020  0.00  0.00    +0.149 HD
BRANCH  16  18
ATOM     18  C   UNL     1      -0.917   2.478   8.450  0.00  0.00    +0.108 C 
BRANCH  18  19
ATOM     19  C   UNL     1      -2.003   1.897   9.356  0.00  0.00    +0.006 C 
ATOM     20  C   UNL     1      -3.159   2.817   9.754  0.00  0.00    +0.005 C 
ATOM     21  C   UNL     1      -2.095   2.436  10.785  0.00  0.00    +0.005 C 
ENDBRANCH  18  19
ENDBRANCH  16  18
ENDBRANCH  11  14
ENDBRANCH   7   8
BRANCH   5  22
ATOM     22  N   UNL     1       0.058  -4.177  -0.032  0.00  0.00    -0.281 N 
ATOM     23  C   UNL     1       0.741  -4.854   0.912  0.00  0.00    +0.248 C 
ATOM     24  O   UNL     1       1.265  -4.254   1.830  0.00  0.00    -0.270 OA
ATOM     25  H   UNL     1      -0.416  -4.660  -0.727  0.00  0.00    +0.155 HD
BRANCH  23  26
ATOM     26  C   UNL     1       0.853  -6.329   0.832  0.00  0.00    +0.042 A 
ATOM     27  C   UNL     1       0.262  -7.038  -0.221  0.00  0.00    +0.033 A 
ATOM     28  C   UNL     1       0.389  -8.411  -0.262  0.00  0.00    +0.113 A 
ATOM     29  N   UNL     1       1.056  -9.060   0.673  0.00  0.00    -0.240 NA
ATOM     30  C   UNL     1       1.631  -8.432   1.686  0.00  0.00    +0.122 A 
ATOM     31  C   UNL     1       1.556  -7.048   1.799  0.00  0.00    +0.056 A 
ATOM     32  N   UNL     1       2.322  -9.164   2.645  0.00  0.00    -0.311 N 
ATOM     33  C   UNL     1       2.613 -10.592   2.444  0.00  0.00    +0.134 C 
ATOM     34  C   UNL     1       4.107 -10.822   2.702  0.00  0.00    +0.178 C 
ATOM     35  O   UNL     1       4.454 -10.277   3.977  0.00  0.00    -0.377 OA
ATOM     36  C   UNL     1       4.270  -8.863   4.079  0.00  0.00    +0.178 C 
ATOM     37  C   UNL     1       2.790  -8.531   3.889  0.00  0.00    +0.134 C 
ENDBRANCH  23  26
ENDBRANCH   5  22
TORSDOF 6
