REMARK  Name = CHEMBL319716
REMARK  5 active torsions:
REMARK  status: ('A' for Active; 'I' for Inactive)
REMARK    1  A    between atoms: C_1  and  N_2
REMARK    2  A    between atoms: C_7  and  C_9
REMARK    3  A    between atoms: C_10  and  C_21
REMARK    4  A    between atoms: N_13  and  C_14
REMARK    5  A    between atoms: C_17  and  O_20
REMARK                            x       y       z     vdW  Elec       q    Type
REMARK                         _______ _______ _______ _____ _____    ______ ____
ROOT
ATOM      1  C   UNL     1      -2.353  -4.244  -0.175  0.00  0.00    +0.093 A 
ATOM      2  C   UNL     1      -1.321  -5.035  -0.650  0.00  0.00    +0.073 A 
ATOM      3  N   UNL     1      -1.533  -6.284  -0.198  0.00  0.00    -0.345 N 
ATOM      4  C   UNL     1      -2.622  -6.310   0.520  0.00  0.00    +0.175 A 
ATOM      5  N   UNL     1      -3.161  -5.075   0.569  0.00  0.00    -0.327 N 
ATOM      6  H   UNL     1      -0.964  -7.048  -0.379  0.00  0.00    +0.167 HD
ENDROOT
BRANCH   1  13
ATOM      7  C   UNL     1      -0.724   1.528  -1.280  0.00  0.00    +0.128 C 
ATOM      8  N   UNL     1      -0.557   0.091  -1.050  0.00  0.00    -0.317 N 
ATOM      9  C   UNL     1      -1.666  -0.709  -0.834  0.00  0.00    +0.215 A 
ATOM     10  N   UNL     1      -2.871  -0.158  -0.845  0.00  0.00    -0.223 NA
ATOM     11  C   UNL     1      -3.958  -0.888  -0.643  0.00  0.00    +0.116 A 
ATOM     12  C   UNL     1      -3.830  -2.245  -0.417  0.00  0.00    +0.050 A 
ATOM     13  C   UNL     1      -2.544  -2.801  -0.411  0.00  0.00    +0.094 A 
ATOM     14  N   UNL     1      -1.495  -2.005  -0.627  0.00  0.00    -0.213 NA
ATOM     15  H   UNL     1       0.331  -0.300  -1.048  0.00  0.00    +0.149 HD
ENDBRANCH   1  13
BRANCH   2  16
ATOM     16  C   UNL     1      -0.193  -4.589  -1.500  0.00  0.00    +0.001 A 
ATOM     17  C   UNL     1      -0.427  -3.755  -2.593  0.00  0.00    +0.013 A 
ATOM     18  C   UNL     1       0.627  -3.342  -3.381  0.00  0.00    +0.039 A 
ATOM     19  C   UNL     1       1.917  -3.756  -3.089  0.00  0.00    +0.123 A 
ATOM     20  C   UNL     1       2.155  -4.585  -2.004  0.00  0.00    +0.039 A 
ATOM     21  C   UNL     1       1.108  -4.998  -1.206  0.00  0.00    +0.013 A 
ATOM     22  F   UNL     1       2.946  -3.349  -3.864  0.00  0.00    -0.205 F 
ENDBRANCH   2  16
BRANCH   5  23
ATOM     23  C   UNL     1      -4.383  -4.689   1.280  0.00  0.00    +0.089 C 
ATOM     24  C   UNL     1      -4.281  -5.125   2.743  0.00  0.00    +0.027 C 
ATOM     25  C   UNL     1      -5.556  -4.722   3.486  0.00  0.00    +0.033 C 
ATOM     26  C   UNL     1      -6.762  -5.402   2.834  0.00  0.00    +0.115 C 
ATOM     27  C   UNL     1      -6.864  -4.966   1.371  0.00  0.00    +0.033 C 
ATOM     28  C   UNL     1      -5.589  -5.369   0.628  0.00  0.00    +0.027 C 
BRANCH  26  29
ATOM     29  O   UNL     1      -7.954  -5.026   3.527  0.00  0.00    -0.392 OA
ATOM     30  H   UNL     1      -8.760  -5.420   3.167  0.00  0.00    +0.210 HD
ENDBRANCH  26  29
ENDBRANCH   5  23
TORSDOF 4
