REMARK  Name = CHEMBL142187
REMARK  5 active torsions:
REMARK  status: ('A' for Active; 'I' for Inactive)
REMARK    1  A    between atoms: C_1  and  N_2
REMARK    2  A    between atoms: C_8  and  N_10
REMARK    3  A    between atoms: N_10  and  C_11
REMARK    4  A    between atoms: C_13  and  C_30
REMARK    5  A    between atoms: N_17  and  C_22
REMARK                            x       y       z     vdW  Elec       q    Type
REMARK                         _______ _______ _______ _____ _____    ______ ____
ROOT
ATOM      1  C   UNL     1      -2.104  -3.521   2.559  0.00  0.00    +0.030 A 
ATOM      2  C   UNL     1      -2.430  -4.556   1.694  0.00  0.00    +0.032 A 
ATOM      3  C   UNL     1      -3.455  -5.441   2.027  0.00  0.00    -0.008 A 
ATOM      4  C   UNL     1      -4.140  -5.277   3.222  0.00  0.00    -0.001 A 
ATOM      5  C   UNL     1      -3.815  -4.240   4.089  0.00  0.00    +0.050 A 
ATOM      6  C   UNL     1      -2.790  -3.365   3.756  0.00  0.00    +0.047 A 
ATOM      7  N   UNL     1      -4.517  -4.091   5.287  0.00  0.00    -0.221 N 
ATOM      8  C   UNL     1      -5.510  -4.910   5.657  0.00  0.00    +0.311 C 
ATOM      9  O   UNL     1      -6.065  -4.704   6.719  0.00  0.00    -0.252 OA
ATOM     10  N   UNL     1      -5.921  -5.949   4.909  0.00  0.00    -0.295 N 
ATOM     11  C   UNL     1      -5.258  -6.213   3.620  0.00  0.00    +0.143 C 
ATOM     12  H   UNL     1      -6.645  -6.519   5.214  0.00  0.00    +0.151 HD
ENDROOT
BRANCH   7  13
ATOM     13  C   UNL     1      -4.166  -3.036   6.141  0.00  0.00    +0.079 A 
ATOM     14  C   UNL     1      -3.194  -3.224   7.115  0.00  0.00    +0.064 A 
ATOM     15  C   UNL     1      -2.850  -2.181   7.956  0.00  0.00    +0.022 A 
ATOM     16  C   UNL     1      -3.474  -0.953   7.827  0.00  0.00    +0.003 A 
ATOM     17  C   UNL     1      -4.442  -0.764   6.859  0.00  0.00    +0.022 A 
ATOM     18  C   UNL     1      -4.786  -1.800   6.011  0.00  0.00    +0.064 A 
ATOM     19 CL   UNL     1      -5.996  -1.558   4.790  0.00  0.00    -0.082 Cl
ATOM     20 CL   UNL     1      -2.412  -4.765   7.278  0.00  0.00    -0.082 Cl
ENDBRANCH   7  13
BRANCH   3  21
ATOM     21  C   UNL     1      -3.811  -6.551   1.109  0.00  0.00    +0.001 A 
ATOM     22  C   UNL     1      -2.897  -7.572   0.859  0.00  0.00    +0.010 A 
ATOM     23  C   UNL     1      -3.233  -8.602   0.004  0.00  0.00    +0.001 A 
ATOM     24  C   UNL     1      -4.475  -8.622  -0.606  0.00  0.00    +0.001 A 
ATOM     25  C   UNL     1      -5.387  -7.611  -0.362  0.00  0.00    +0.020 A 
ATOM     26  C   UNL     1      -5.064  -6.578   0.497  0.00  0.00    +0.049 A 
ATOM     27 CL   UNL     1      -6.212  -5.314   0.808  0.00  0.00    -0.083 Cl
ENDBRANCH   3  21
BRANCH   1  28
ATOM     28  N   UNL     1      -1.077  -2.634   2.226  0.00  0.00    -0.341 N 
ATOM     29  H   UNL     1      -0.766  -1.986   2.877  0.00  0.00    +0.146 HD
BRANCH  28  37
ATOM     30  C   UNL     1       2.424   0.482   1.297  0.00  0.00    -0.095 C 
ATOM     31  N   UNL     1       1.575  -0.622   0.831  0.00  0.00    +0.382 N 
ATOM     32  C   UNL     1       0.137  -0.264   0.950  0.00  0.00    -0.067 C 
ATOM     33  C   UNL     1      -0.170  -0.418   2.457  0.00  0.00    -0.017 C 
ATOM     34  C   UNL     1       0.871  -1.434   2.970  0.00  0.00    -0.017 C 
ATOM     35  C   UNL     1       1.713  -1.802   1.727  0.00  0.00    -0.067 C 
ATOM     36  C   UNL     1       1.026  -2.986   1.028  0.00  0.00    +0.007 C 
ATOM     37  C   UNL     1      -0.469  -2.685   0.894  0.00  0.00    +0.067 C 
ATOM     38  C   UNL     1      -0.664  -1.337   0.195  0.00  0.00    +0.007 C 
ATOM     39  H   UNL     1       1.805  -0.870  -0.120  0.00  0.00    -0.081 HD
ENDBRANCH  28  37
ENDBRANCH   1  28
TORSDOF 4
