REMARK  Name = CHEMBL255428
REMARK  4 active torsions:
REMARK  status: ('A' for Active; 'I' for Inactive)
REMARK    1  A    between atoms: C_1  and  C_2
REMARK    2  A    between atoms: C_7  and  N_8
REMARK    3  A    between atoms: C_9  and  C_11
REMARK    4  A    between atoms: N_16  and  C_17
REMARK                            x       y       z     vdW  Elec       q    Type
REMARK                         _______ _______ _______ _____ _____    ______ ____
ROOT
ATOM      1  N   UNL     1       0.025  -0.015   2.417  0.00  0.00    -0.280 N 
ATOM      2  C   UNL     1      -0.355  -0.641   3.548  0.00  0.00    +0.256 C 
ATOM      3  O   UNL     1      -0.613  -1.831   3.528  0.00  0.00    -0.269 OA
ATOM      4  H   UNL     1       0.299   0.915   2.446  0.00  0.00    +0.155 HD
ENDROOT
BRANCH   1  11
ATOM      5  C   UNL     1      -2.321   0.098   0.811  0.00  0.00    +0.046 C 
ATOM      6  C   UNL     1      -1.101  -0.677   0.386  0.00  0.00    -0.028 A 
ATOM      7  C   UNL     1      -1.098  -1.356  -0.818  0.00  0.00    +0.005 A 
ATOM      8  C   UNL     1       0.021  -2.067  -1.209  0.00  0.00    +0.002 A 
ATOM      9  C   UNL     1       1.141  -2.102  -0.398  0.00  0.00    +0.022 A 
ATOM     10  C   UNL     1       1.145  -1.426   0.806  0.00  0.00    +0.062 A 
ATOM     11  C   UNL     1       0.023  -0.705   1.200  0.00  0.00    +0.055 A 
ATOM     12 CL   UNL     1       2.550  -1.471   1.824  0.00  0.00    -0.082 Cl
ENDBRANCH   1  11
BRANCH   2  13
ATOM     13  C   UNL     1      -0.459   0.108   4.799  0.00  0.00    +0.095 A 
ATOM     14  C   UNL     1      -0.820  -0.328   6.066  0.00  0.00    +0.133 A 
ATOM     15  N   UNL     1      -0.826   0.576   7.013  0.00  0.00    -0.233 NA
ATOM     16  C   UNL     1      -0.503   1.834   6.768  0.00  0.00    +0.159 A 
ATOM     17  S   UNL     1      -0.148   1.836   5.123  0.00  0.00    -0.048 S 
ATOM     18  N   UNL     1      -0.462   2.891   7.651  0.00  0.00    -0.321 N 
ATOM     19  H   UNL     1      -0.207   3.774   7.339  0.00  0.00    +0.148 HD
BRANCH  18  20
ATOM     20  C   UNL     1      -0.804   2.683   9.060  0.00  0.00    +0.072 C 
ATOM     21  C   UNL     1      -2.163   3.282   9.459  0.00  0.00    +0.022 C 
ATOM     22  C   UNL     1      -1.496   3.719  10.773  0.00  0.00    +0.004 C 
ATOM     23  C   UNL     1      -0.162   3.709  10.008  0.00  0.00    +0.022 C 
ENDBRANCH  18  20
ENDBRANCH   2  13
TORSDOF 3
