REMARK  Name = CHEMBL481913
REMARK  7 active torsions:
REMARK  status: ('A' for Active; 'I' for Inactive)
REMARK    1  A    between atoms: C_1  and  C_2
REMARK    2  A    between atoms: C_2  and  C_4
REMARK    3  A    between atoms: C_2  and  N_10
REMARK    4  A    between atoms: C_13  and  C_17
REMARK    5  A    between atoms: C_18  and  C_25
REMARK    6  A    between atoms: C_20  and  S_23
REMARK    7  A    between atoms: S_23  and  C_24
REMARK                            x       y       z     vdW  Elec       q    Type
REMARK                         _______ _______ _______ _____ _____    ______ ____
ROOT
ATOM      1  N   UNL     1       0.688  -0.476  -1.203  0.00  0.00    -0.328 N 
ATOM      2  C   UNL     1      -0.015  -0.612  -2.395  0.00  0.00    +0.097 A 
ATOM      3  C   UNL     1      -1.366  -0.293  -2.436  0.00  0.00    +0.051 A 
ATOM      4  C   UNL     1      -2.058  -0.435  -3.641  0.00  0.00    +0.007 A 
ATOM      5  C   UNL     1      -1.352  -0.896  -4.760  0.00  0.00    +0.027 A 
ATOM      6  C   UNL     1      -0.013  -1.191  -4.635  0.00  0.00    +0.085 A 
ATOM      7  N   UNL     1       0.612  -1.040  -3.481  0.00  0.00    -0.350 N 
ATOM      8  H   UNL     1       1.632  -0.695  -1.170  0.00  0.00    +0.148 HD
ATOM      9  H   UNL     1       1.557  -1.253  -3.426  0.00  0.00    +0.166 HD
ENDROOT
BRANCH   4  10
ATOM     10  C   UNL     1      -3.498  -0.107  -3.733  0.00  0.00    +0.098 A 
ATOM     11  C   UNL     1      -4.141   0.442  -4.825  0.00  0.00    +0.075 A 
ATOM     12  N   UNL     1      -5.468   0.576  -4.469  0.00  0.00    -0.332 N 
ATOM     13  C   UNL     1      -5.592   0.112  -3.193  0.00  0.00    +0.167 A 
ATOM     14  N   UNL     1      -4.420  -0.296  -2.767  0.00  0.00    -0.221 NA
ATOM     15  H   UNL     1      -6.180   0.933  -5.023  0.00  0.00    +0.168 HD
BRANCH  11  16
ATOM     16  C   UNL     1      -3.530   0.814  -6.116  0.00  0.00    +0.001 A 
ATOM     17  C   UNL     1      -2.317   1.505  -6.145  0.00  0.00    +0.013 A 
ATOM     18  C   UNL     1      -1.751   1.849  -7.355  0.00  0.00    +0.039 A 
ATOM     19  C   UNL     1      -2.384   1.510  -8.540  0.00  0.00    +0.123 A 
ATOM     20  C   UNL     1      -3.587   0.823  -8.518  0.00  0.00    +0.039 A 
ATOM     21  C   UNL     1      -4.160   0.469  -7.315  0.00  0.00    +0.013 A 
ATOM     22  F   UNL     1      -1.825   1.850  -9.723  0.00  0.00    -0.205 F 
ENDBRANCH  11  16
BRANCH  13  23
ATOM     23  S   UNL     1      -7.089   0.062  -2.266  0.00  0.00    -0.091 S 
ATOM     24  C   UNL     1      -6.595  -0.650  -0.672  0.00  0.00    +0.093 C 
ENDBRANCH  13  23
ENDBRANCH   4  10
BRANCH   1  26
ATOM     25  C   UNL     1      -0.019   1.526   0.010  0.00  0.00    +0.028 C 
ATOM     26  C   UNL     1       0.002  -0.004   0.002  0.00  0.00    +0.072 C 
BRANCH  26  27
ATOM     27  C   UNL     1       0.742  -0.511   1.242  0.00  0.00    +0.009 C 
ATOM     28  C   UNL     1       0.763  -2.041   1.233  0.00  0.00    +0.005 C 
ATOM     29  C   UNL     1       1.503  -2.548   2.473  0.00  0.00    +0.000 C 
ATOM     30  C   UNL     1       0.787  -2.054   3.732  0.00  0.00    +0.000 C 
ATOM     31  C   UNL     1       0.766  -0.524   3.740  0.00  0.00    +0.000 C 
ATOM     32  C   UNL     1       0.026  -0.018   2.500  0.00  0.00    +0.005 C 
ENDBRANCH  26  27
ENDBRANCH   1  26
TORSDOF 5
