REMARK  Name = CHEMBL371145
REMARK  11 active torsions:
REMARK  status: ('A' for Active; 'I' for Inactive)
REMARK    1  A    between atoms: C_1  and  C_2
REMARK    2  A    between atoms: C_2  and  C_3
REMARK    3  A    between atoms: C_2  and  C_4
REMARK    4  A    between atoms: C_4  and  N_5
REMARK    5  A    between atoms: C_8  and  C_11
REMARK    6  A    between atoms: C_14  and  C_33
REMARK    7  A    between atoms: C_15  and  C_17
REMARK    8  A    between atoms: N_23  and  S_27
REMARK    9  A    between atoms: S_27  and  C_30
REMARK   10  A    between atoms: C_30  and  C_31
REMARK   11  A    between atoms: C_30  and  C_32
REMARK                            x       y       z     vdW  Elec       q    Type
REMARK                         _______ _______ _______ _____ _____    ______ ____
ROOT
ATOM      1  C   UNL     1       6.115   1.110  -1.826  0.00  0.00    +0.111 A 
ATOM      2  N   UNL     1       6.796   2.104  -2.325  0.00  0.00    -0.232 NA
ATOM      3  H   UNL     1       6.684  -0.469  -0.590  0.00  0.00    +0.167 HD
ATOM      4  C   UNL     1       8.080   2.016  -1.928  0.00  0.00    +0.097 A 
ATOM      5  C   UNL     1       8.193   0.890  -1.133  0.00  0.00    +0.074 A 
ATOM      6  N   UNL     1       6.936   0.333  -1.075  0.00  0.00    -0.341 N 
ENDROOT
BRANCH   5   7
ATOM      7  C   UNL     1       9.415   0.390  -0.473  0.00  0.00    +0.003 A 
ATOM      8  C   UNL     1      10.622   0.341  -1.182  0.00  0.00    +0.012 A 
ATOM      9  C   UNL     1      11.757  -0.118  -0.583  0.00  0.00    +0.030 A 
ATOM     10  C   UNL     1      11.725  -0.547   0.748  0.00  0.00    +0.093 A 
ATOM     11  C   UNL     1      10.516  -0.501   1.466  0.00  0.00    +0.094 A 
ATOM     12  C   UNL     1       9.367  -0.029   0.856  0.00  0.00    +0.039 A 
ATOM     13  N   UNL     1      10.802  -0.983   2.733  0.00  0.00    -0.183 N 
ATOM     14  C   UNL     1      12.130  -1.299   2.756  0.00  0.00    +0.214 A 
ATOM     15  N   UNL     1      12.669  -1.042   1.590  0.00  0.00    -0.213 NA
ATOM     16  N   UNL     1      12.804  -1.812   3.844  0.00  0.00    -0.328 N 
ATOM     17  H   UNL     1      12.331  -1.973   4.675  0.00  0.00    +0.145 HD
ATOM     18  H   UNL     1      13.751  -2.010   3.778  0.00  0.00    +0.145 HD
BRANCH  13  19
ATOM     19  S   UNL     1       9.732  -1.145   3.987  0.00  0.00    +0.060 S 
ATOM     20  O   UNL     1      10.532  -1.065   5.159  0.00  0.00    -0.153 OA
ATOM     21  O   UNL     1       8.724  -0.176   3.731  0.00  0.00    -0.153 OA
BRANCH  19  22
ATOM     22  C   UNL     1       9.052  -2.817   3.807  0.00  0.00    +0.148 C 
ATOM     23  C   UNL     1      10.186  -3.840   3.895  0.00  0.00    +0.033 C 
ATOM     24  C   UNL     1       8.041  -3.079   4.925  0.00  0.00    +0.033 C 
ENDBRANCH  19  22
ENDBRANCH  13  19
ENDBRANCH   5   7
BRANCH   1  28
ATOM     25  N   UNL     1       2.171  -0.304  -1.095  0.00  0.00    +0.380 N 
ATOM     26  C   UNL     1       2.362   1.151  -1.074  0.00  0.00    -0.078 C 
ATOM     27  C   UNL     1       3.847   1.471  -0.886  0.00  0.00    -0.008 C 
ATOM     28  C   UNL     1       4.644   0.866  -2.045  0.00  0.00    +0.052 C 
ATOM     29  C   UNL     1       4.379  -0.641  -2.103  0.00  0.00    -0.008 C 
ATOM     30  C   UNL     1       2.875  -0.883  -2.246  0.00  0.00    -0.078 C 
ATOM     31  H   UNL     1       2.538  -0.702  -0.243  0.00  0.00    -0.082 HD
BRANCH  25  32
ATOM     32  C   UNL     1       0.737  -0.607  -1.197  0.00  0.00    -0.076 C 
BRANCH  32  34
ATOM     33  C   UNL     1      -1.485  -0.326  -0.089  0.00  0.00    +0.005 C 
ATOM     34  C   UNL     1       0.025  -0.137   0.073  0.00  0.00    -0.034 C 
ATOM     35  C   UNL     1       0.516  -0.960   1.266  0.00  0.00    +0.005 C 
ENDBRANCH  32  34
ENDBRANCH  25  32
ENDBRANCH   1  28
BRANCH   4  36
ATOM     36  C   UNL     1       9.172   2.953  -2.280  0.00  0.00    +0.002 A 
ATOM     37  C   UNL     1      10.179   3.232  -1.357  0.00  0.00    +0.010 A 
ATOM     38  C   UNL     1      11.194   4.106  -1.691  0.00  0.00    +0.001 A 
ATOM     39  C   UNL     1      11.213   4.704  -2.938  0.00  0.00    +0.000 A 
ATOM     40  C   UNL     1      10.217   4.430  -3.858  0.00  0.00    +0.001 A 
ATOM     41  C   UNL     1       9.200   3.554  -3.538  0.00  0.00    +0.010 A 
ENDBRANCH   4  36
TORSDOF 7
