REMARK  Name = CHEMBL193247
REMARK  5 active torsions:
REMARK  status: ('A' for Active; 'I' for Inactive)
REMARK    1  A    between atoms: C_4  and  C_7
REMARK    2  A    between atoms: C_8  and  C_21
REMARK    3  A    between atoms: C_11  and  C_13
REMARK    4  A    between atoms: N_27  and  S_31
REMARK    5  A    between atoms: S_31  and  C_34
REMARK                            x       y       z     vdW  Elec       q    Type
REMARK                         _______ _______ _______ _____ _____    ______ ____
ROOT
ATOM      1  C   UNL     1       3.697  -0.687  -0.038  0.00  0.00    +0.097 A 
ATOM      2  C   UNL     1       3.970  -1.891   0.589  0.00  0.00    +0.074 A 
ATOM      3  N   UNL     1       5.285  -2.186   0.309  0.00  0.00    -0.337 N 
ATOM      4  H   UNL     1       5.776  -2.967   0.607  0.00  0.00    +0.167 HD
ATOM      5  C   UNL     1       5.769  -1.171  -0.468  0.00  0.00    +0.145 A 
ATOM      6  N   UNL     1       4.815  -0.292  -0.671  0.00  0.00    -0.227 NA
ENDROOT
BRANCH   2   7
ATOM      7  C   UNL     1       3.037  -2.697   1.398  0.00  0.00    +0.003 A 
ATOM      8  C   UNL     1       2.217  -2.075   2.349  0.00  0.00    +0.012 A 
ATOM      9  C   UNL     1       1.351  -2.810   3.103  0.00  0.00    +0.030 A 
ATOM     10  C   UNL     1       1.273  -4.196   2.931  0.00  0.00    +0.093 A 
ATOM     11  C   UNL     1       2.092  -4.827   1.978  0.00  0.00    +0.094 A 
ATOM     12  C   UNL     1       2.967  -4.078   1.211  0.00  0.00    +0.039 A 
ATOM     13  N   UNL     1       1.789  -6.178   2.043  0.00  0.00    -0.183 N 
ATOM     14  C   UNL     1       0.827  -6.330   3.001  0.00  0.00    +0.214 A 
ATOM     15  N   UNL     1       0.526  -5.166   3.520  0.00  0.00    -0.213 NA
ATOM     16  N   UNL     1       0.257  -7.532   3.367  0.00  0.00    -0.328 N 
ATOM     17  H   UNL     1       0.536  -8.353   2.933  0.00  0.00    +0.145 HD
ATOM     18  H   UNL     1      -0.422  -7.555   4.058  0.00  0.00    +0.145 HD
BRANCH  13  19
ATOM     19  S   UNL     1       2.467  -7.383   1.131  0.00  0.00    +0.060 S 
ATOM     20  O   UNL     1       1.479  -8.404   1.087  0.00  0.00    -0.152 OA
ATOM     21  O   UNL     1       2.896  -6.738  -0.060  0.00  0.00    -0.152 OA
BRANCH  19  22
ATOM     22  C   UNL     1       3.902  -7.942   2.090  0.00  0.00    +0.154 C 
ATOM     23  C   UNL     1       4.859  -6.760   2.347  0.00  0.00    +0.028 C 
ATOM     24  C   UNL     1       6.272  -7.386   2.242  0.00  0.00    +0.002 C 
ATOM     25  C   UNL     1       6.111  -8.401   1.084  0.00  0.00    +0.002 C 
ATOM     26  C   UNL     1       4.698  -8.986   1.287  0.00  0.00    +0.028 C 
ENDBRANCH  19  22
ENDBRANCH  13  19
ENDBRANCH   2   7
BRANCH   5  27
ATOM     27  C   UNL     1       7.144  -1.081  -1.000  0.00  0.00    +0.087 A 
ATOM     28  C   UNL     1       8.072  -2.090  -0.724  0.00  0.00    +0.137 A 
ATOM     29  C   UNL     1       9.356  -1.999  -1.226  0.00  0.00    +0.039 A 
ATOM     30  C   UNL     1       9.725  -0.913  -2.000  0.00  0.00    +0.006 A 
ATOM     31  C   UNL     1       8.813   0.089  -2.277  0.00  0.00    +0.039 A 
ATOM     32  C   UNL     1       7.523   0.010  -1.787  0.00  0.00    +0.137 A 
ATOM     33  F   UNL     1       6.632   0.988  -2.063  0.00  0.00    -0.205 F 
ATOM     34  F   UNL     1       7.714  -3.151   0.032  0.00  0.00    -0.205 F 
ENDBRANCH   5  27
BRANCH   1  38
ATOM     35  C   UNL     1      -0.017   1.379   0.010  0.00  0.00    +0.000 A 
ATOM     36  C   UNL     1       1.169   2.093   0.002  0.00  0.00    +0.001 A 
ATOM     37  C   UNL     1       2.377   1.428  -0.013  0.00  0.00    +0.010 A 
ATOM     38  C   UNL     1       2.403   0.033  -0.021  0.00  0.00    +0.002 A 
ATOM     39  C   UNL     1       1.205  -0.680  -0.013  0.00  0.00    +0.010 A 
ATOM     40  C   UNL     1       0.002  -0.004   0.002  0.00  0.00    +0.001 A 
ENDBRANCH   1  38
TORSDOF 5
