REMARK  Name = CHEMBL399167
REMARK  9 active torsions:
REMARK  status: ('A' for Active; 'I' for Inactive)
REMARK    1  A    between atoms: C_1  and  N_2
REMARK    2  A    between atoms: N_2  and  C_3
REMARK    3  A    between atoms: N_2  and  C_4
REMARK    4  A    between atoms: C_4  and  C_5
REMARK    5  A    between atoms: C_5  and  N_6
REMARK    6  A    between atoms: C_7  and  C_9
REMARK    7  A    between atoms: C_12  and  C_15
REMARK    8  A    between atoms: C_19  and  N_25
REMARK    9  A    between atoms: N_25  and  C_26
REMARK                            x       y       z     vdW  Elec       q    Type
REMARK                         _______ _______ _______ _____ _____    ______ ____
ROOT
ATOM      1  C   UNL     1      -9.265  -5.408  -0.101  0.00  0.00    +0.100 A 
ATOM      2  C   UNL     1      -9.542  -6.599  -0.911  0.00  0.00    +0.027 A 
ATOM      3  C   UNL     1      -8.882  -7.221  -1.975  0.00  0.00    +0.014 A 
ATOM      4  C   UNL     1      -9.406  -8.348  -2.535  0.00  0.00    +0.024 A 
ATOM      5  C   UNL     1     -10.599  -8.890  -2.055  0.00  0.00    +0.033 A 
ATOM      6  C   UNL     1     -11.268  -8.290  -1.003  0.00  0.00    +0.051 A 
ATOM      7  C   UNL     1     -10.746  -7.139  -0.421  0.00  0.00    +0.068 A 
ATOM      8  N   UNL     1     -11.157  -6.329   0.607  0.00  0.00    -0.276 N 
ATOM      9  H   UNL     1     -11.960  -6.456   1.135  0.00  0.00    +0.189 HD
ATOM     10  N   UNL     1     -10.233  -5.293   0.777  0.00  0.00    -0.173 NA
ENDROOT
BRANCH   1  14
ATOM     11  C   UNL     1      -5.920  -2.812  -0.510  0.00  0.00    +0.037 A 
ATOM     12  C   UNL     1      -7.165  -2.296  -0.139  0.00  0.00    +0.014 A 
ATOM     13  C   UNL     1      -8.246  -3.136  -0.006  0.00  0.00    +0.011 A 
ATOM     14  C   UNL     1      -8.101  -4.505  -0.243  0.00  0.00    +0.003 A 
ATOM     15  C   UNL     1      -6.858  -5.021  -0.615  0.00  0.00    +0.011 A 
ATOM     16  C   UNL     1      -5.777  -4.181  -0.753  0.00  0.00    +0.014 A 
BRANCH  11  18
ATOM     17  N   UNL     1      -4.899  -0.591  -0.419  0.00  0.00    -0.313 N 
ATOM     18  C   UNL     1      -4.760  -1.911  -0.653  0.00  0.00    +0.244 C 
ATOM     19  O   UNL     1      -3.678  -2.360  -0.981  0.00  0.00    -0.270 OA
ATOM     20  H   UNL     1      -5.761  -0.233  -0.157  0.00  0.00    +0.149 HD
BRANCH  17  21
ATOM     21  C   UNL     1      -3.747   0.303  -0.561  0.00  0.00    +0.086 C 
BRANCH  21  22
ATOM     22  C   UNL     1      -4.172   1.737  -0.240  0.00  0.00    -0.061 C 
BRANCH  22  24
ATOM     23  C   UNL     1      -3.451   4.025  -0.192  0.00  0.00    -0.097 C 
ATOM     24  N   UNL     1      -3.017   2.634  -0.382  0.00  0.00    +0.377 N 
ATOM     25  C   UNL     1      -2.006   2.294   0.628  0.00  0.00    -0.097 C 
ATOM     26  H   UNL     1      -2.620   2.528  -1.304  0.00  0.00    -0.083 HD
ENDBRANCH  22  24
ENDBRANCH  21  22
ENDBRANCH  17  21
ENDBRANCH  11  18
ENDBRANCH   1  14
BRANCH   5  27
ATOM     27  N   UNL     1     -11.122 -10.046  -2.640  0.00  0.00    -0.313 N 
ATOM     28  H   UNL     1     -11.108 -10.150  -3.604  0.00  0.00    +0.152 HD
BRANCH  27  29
ATOM     29  C   UNL     1     -11.665 -11.052  -1.836  0.00  0.00    +0.050 A 
ATOM     30  C   UNL     1     -11.542 -10.982  -0.455  0.00  0.00    +0.025 A 
ATOM     31  C   UNL     1     -12.080 -11.978   0.337  0.00  0.00    +0.002 A 
ATOM     32  C   UNL     1     -12.740 -13.045  -0.245  0.00  0.00    +0.002 A 
ATOM     33  C   UNL     1     -12.865 -13.119  -1.620  0.00  0.00    +0.022 A 
ATOM     34  C   UNL     1     -12.334 -12.123  -2.418  0.00  0.00    +0.062 A 
ATOM     35 CL   UNL     1     -12.497 -12.213  -4.144  0.00  0.00    -0.082 Cl
ENDBRANCH  27  29
ENDBRANCH   5  27
TORSDOF 7
