REMARK  Name = CHEMBL476533
REMARK  9 active torsions:
REMARK  status: ('A' for Active; 'I' for Inactive)
REMARK    1  A    between atoms: C_1  and  C_2
REMARK    2  A    between atoms: C_2  and  C_3
REMARK    3  A    between atoms: C_3  and  C_4
REMARK    4  A    between atoms: N_6  and  C_7
REMARK    5  A    between atoms: C_10  and  C_26
REMARK    6  A    between atoms: C_11  and  C_13
REMARK    7  A    between atoms: C_16  and  C_19
REMARK    8  A    between atoms: N_21  and  C_22
REMARK    9  A    between atoms: C_22  and  C_23
REMARK                            x       y       z     vdW  Elec       q    Type
REMARK                         _______ _______ _______ _____ _____    ______ ____
ROOT
ATOM      1  C   UNL     1      -2.583  -4.141   0.043  0.00  0.00    +0.034 A 
ATOM      2  C   UNL     1      -1.411  -4.876  -0.095  0.00  0.00    +0.023 A 
ATOM      3  C   UNL     1      -1.468  -6.239  -0.319  0.00  0.00    +0.006 A 
ATOM      4  C   UNL     1      -2.689  -6.878  -0.408  0.00  0.00    -0.043 A 
ATOM      5  C   UNL     1      -3.869  -6.149  -0.271  0.00  0.00    -0.013 A 
ATOM      6  C   UNL     1      -3.812  -4.776  -0.039  0.00  0.00    +0.032 A 
ATOM      7  C   UNL     1      -2.745  -8.364  -0.654  0.00  0.00    +0.044 C 
ENDROOT
BRANCH   5   8
ATOM      8  C   UNL     1      -5.181  -6.833  -0.367  0.00  0.00    -0.018 A 
ATOM      9  C   UNL     1      -5.471  -7.906   0.476  0.00  0.00    +0.009 A 
ATOM     10  C   UNL     1      -6.689  -8.542   0.388  0.00  0.00    +0.013 A 
ATOM     11  C   UNL     1      -7.635  -8.112  -0.546  0.00  0.00    +0.037 A 
ATOM     12  C   UNL     1      -7.343  -7.038  -1.390  0.00  0.00    +0.013 A 
ATOM     13  C   UNL     1      -6.127  -6.400  -1.297  0.00  0.00    +0.009 A 
BRANCH  11  14
ATOM     14  C   UNL     1      -8.941  -8.794  -0.642  0.00  0.00    +0.244 C 
ATOM     15  O   UNL     1      -9.194  -9.730   0.092  0.00  0.00    -0.270 OA
ATOM     16  N   UNL     1      -9.853  -8.380  -1.543  0.00  0.00    -0.311 N 
ATOM     17  H   UNL     1      -9.652  -7.633  -2.129  0.00  0.00    +0.149 HD
BRANCH  16  18
ATOM     18  C   UNL     1     -11.149  -9.056  -1.638  0.00  0.00    +0.108 C 
BRANCH  18  19
ATOM     19  C   UNL     1     -11.991  -8.395  -2.732  0.00  0.00    +0.006 C 
ATOM     20  C   UNL     1     -13.290  -7.707  -2.305  0.00  0.00    +0.005 C 
ATOM     21  C   UNL     1     -13.340  -9.033  -3.068  0.00  0.00    +0.005 C 
ENDBRANCH  18  19
ENDBRANCH  16  18
ENDBRANCH  11  14
ENDBRANCH   5   8
BRANCH   1  24
ATOM     22  C   UNL     1      -1.554  -2.026  -0.313  0.00  0.00    +0.217 C 
ATOM     23  O   UNL     1      -0.692  -2.569  -0.971  0.00  0.00    -0.275 OA
ATOM     24  N   UNL     1      -2.521  -2.762   0.270  0.00  0.00    -0.285 N 
ATOM     25  H   UNL     1      -3.174  -2.336   0.847  0.00  0.00    +0.155 HD
BRANCH  22  26
ATOM     26  C   UNL     1      -1.545  -0.528  -0.148  0.00  0.00    +0.096 C 
BRANCH  26  28
ATOM     27  C   UNL     1      -0.343   1.582  -0.737  0.00  0.00    +0.004 C 
ATOM     28  C   UNL     1      -0.353   0.061  -0.905  0.00  0.00    +0.006 C 
ENDBRANCH  26  28
ENDBRANCH  22  26
ENDBRANCH   1  24
TORSDOF 7
