REMARK  Name = CHEMBL484550
REMARK  11 active torsions:
REMARK  status: ('A' for Active; 'I' for Inactive)
REMARK    1  A    between atoms: C_1  and  C_2
REMARK    2  A    between atoms: C_3  and  C_11
REMARK    3  A    between atoms: C_5  and  C_7
REMARK    4  A    between atoms: C_7  and  C_8
REMARK    5  A    between atoms: C_7  and  C_9
REMARK    6  A    between atoms: C_7  and  C_10
REMARK    7  A    between atoms: C_11  and  C_13
REMARK    8  A    between atoms: N_15  and  C_16
REMARK    9  A    between atoms: C_19  and  C_26
REMARK   10  A    between atoms: C_29  and  C_32
REMARK   11  A    between atoms: C_32  and  N_33
REMARK                            x       y       z     vdW  Elec       q    Type
REMARK                         _______ _______ _______ _____ _____    ______ ____
ROOT
ATOM      1  C   UNL     1      -5.847  -2.094  -0.073  0.00  0.00    +0.042 A 
ATOM      2  C   UNL     1      -5.468  -3.421  -0.070  0.00  0.00    +0.024 A 
ATOM      3  C   UNL     1      -6.414  -4.432  -0.161  0.00  0.00    +0.011 A 
ATOM      4  C   UNL     1      -7.763  -4.135  -0.258  0.00  0.00    -0.009 A 
ATOM      5  C   UNL     1      -8.182  -2.783  -0.264  0.00  0.00    -0.008 A 
ATOM      6  C   UNL     1      -7.215  -1.754  -0.165  0.00  0.00    +0.004 A 
ATOM      7  C   UNL     1      -7.632  -0.414  -0.166  0.00  0.00    +0.010 A 
ATOM      8  C   UNL     1      -8.959  -0.121  -0.257  0.00  0.00    +0.001 A 
ATOM      9  C   UNL     1      -9.911  -1.134  -0.349  0.00  0.00    +0.001 A 
ATOM     10  C   UNL     1      -9.540  -2.445  -0.361  0.00  0.00    +0.009 A 
ENDROOT
BRANCH   4  11
ATOM     11  C   UNL     1      -8.760  -5.224  -0.355  0.00  0.00    -0.001 A 
ATOM     12  C   UNL     1      -9.882  -5.239   0.481  0.00  0.00    +0.011 A 
ATOM     13  C   UNL     1     -10.785  -6.279   0.350  0.00  0.00    +0.023 A 
ATOM     14  C   UNL     1     -10.552  -7.263  -0.595  0.00  0.00    +0.030 A 
ATOM     15  N   UNL     1      -9.485  -7.223  -1.370  0.00  0.00    -0.363 N 
ATOM     16  C   UNL     1      -8.601  -6.251  -1.286  0.00  0.00    +0.091 A 
ATOM     17  H   UNL     1      -9.351  -7.928  -2.022  0.00  0.00    +0.165 HD
BRANCH  14  18
ATOM     18  C   UNL     1     -11.532  -8.398  -0.740  0.00  0.00    +0.137 C 
BRANCH  18  19
ATOM     19  N   UNL     1     -12.489  -8.084  -1.809  0.00  0.00    -0.292 NA
ATOM     20  C   UNL     1     -13.339  -6.943  -1.438  0.00  0.00    +0.113 C 
ATOM     21  C   UNL     1     -14.278  -6.613  -2.602  0.00  0.00    +0.175 C 
ATOM     22  O   UNL     1     -15.045  -7.774  -2.932  0.00  0.00    -0.377 OA
ATOM     23  C   UNL     1     -14.250  -8.905  -3.299  0.00  0.00    +0.175 C 
ATOM     24  C   UNL     1     -13.310  -9.258  -2.143  0.00  0.00    +0.113 C 
ENDBRANCH  18  19
ENDBRANCH  14  18
ENDBRANCH   4  11
BRANCH   1  27
ATOM     25  C   UNL     1      -3.695  -1.352   0.600  0.00  0.00    +0.289 C 
ATOM     26  O   UNL     1      -3.501  -2.427   1.130  0.00  0.00    -0.266 OA
ATOM     27  N   UNL     1      -4.884  -1.092   0.021  0.00  0.00    -0.278 N 
ATOM     28  H   UNL     1      -5.069  -0.208  -0.332  0.00  0.00    +0.155 HD
BRANCH  25  29
ATOM     29  C   UNL     1      -2.620  -0.320   0.591  0.00  0.00    +0.251 C 
ATOM     30  O   UNL     1      -2.815   0.755   0.061  0.00  0.00    -0.282 OA
BRANCH  29  33
ATOM     31  C   UNL     1      -0.145   1.633   0.745  0.00  0.00    +0.087 C 
ATOM     32  C   UNL     1      -0.231   0.236   1.302  0.00  0.00    +0.113 A 
ATOM     33  C   UNL     1      -1.325  -0.603   1.222  0.00  0.00    +0.068 A 
ATOM     34  C   UNL     1      -0.917  -1.841   1.906  0.00  0.00    +0.057 A 
ATOM     35  C   UNL     1       0.342  -1.638   2.319  0.00  0.00    +0.111 A 
ATOM     36  O   UNL     1       0.741  -0.410   1.953  0.00  0.00    -0.464 OA
BRANCH  35  37
ATOM     37  C   UNL     1       1.182  -2.637   3.073  0.00  0.00    +0.020 C 
ATOM     38  C   UNL     1       1.349  -3.902   2.230  0.00  0.00    +0.019 C 
ATOM     39  C   UNL     1       2.557  -2.031   3.362  0.00  0.00    +0.019 C 
ATOM     40  C   UNL     1       0.492  -2.990   4.392  0.00  0.00    +0.019 C 
ENDBRANCH  35  37
ENDBRANCH  29  33
ENDBRANCH  25  29
ENDBRANCH   1  27
TORSDOF 7
