REMARK  Name = CHEMBL523880
REMARK  8 active torsions:
REMARK  status: ('A' for Active; 'I' for Inactive)
REMARK    1  A    between atoms: C_1  and  C_2
REMARK    2  A    between atoms: C_2  and  C_3
REMARK    3  A    between atoms: C_2  and  C_26
REMARK    4  A    between atoms: C_3  and  N_4
REMARK    5  A    between atoms: C_7  and  C_11
REMARK    6  A    between atoms: C_12  and  C_19
REMARK    7  A    between atoms: C_14  and  S_17
REMARK    8  A    between atoms: S_17  and  C_18
REMARK                            x       y       z     vdW  Elec       q    Type
REMARK                         _______ _______ _______ _____ _____    ______ ____
ROOT
ATOM      1  N   UNL     1      -2.105  -0.148  -1.230  0.00  0.00    -0.330 N 
ATOM      2  C   UNL     1      -3.427  -0.519  -1.450  0.00  0.00    +0.097 A 
ATOM      3  C   UNL     1      -4.105  -1.250  -0.484  0.00  0.00    +0.051 A 
ATOM      4  C   UNL     1      -5.432  -1.615  -0.720  0.00  0.00    +0.007 A 
ATOM      5  C   UNL     1      -6.022  -1.224  -1.929  0.00  0.00    +0.027 A 
ATOM      6  C   UNL     1      -5.280  -0.500  -2.835  0.00  0.00    +0.085 A 
ATOM      7  N   UNL     1      -4.028  -0.167  -2.577  0.00  0.00    -0.350 N 
ATOM      8  H   UNL     1      -1.628   0.366  -1.901  0.00  0.00    +0.147 HD
ATOM      9  H   UNL     1      -3.533   0.347  -3.234  0.00  0.00    +0.166 HD
ENDROOT
BRANCH   4  10
ATOM     10  C   UNL     1      -6.195  -2.395   0.281  0.00  0.00    +0.098 A 
ATOM     11  C   UNL     1      -7.544  -2.275   0.551  0.00  0.00    +0.075 A 
ATOM     12  N   UNL     1      -7.824  -3.190   1.548  0.00  0.00    -0.332 N 
ATOM     13  C   UNL     1      -6.658  -3.828   1.848  0.00  0.00    +0.167 A 
ATOM     14  N   UNL     1      -5.699  -3.354   1.088  0.00  0.00    -0.221 NA
ATOM     15  H   UNL     1      -8.689  -3.348   1.957  0.00  0.00    +0.168 HD
BRANCH  11  16
ATOM     16  C   UNL     1      -8.497  -1.352  -0.095  0.00  0.00    +0.001 A 
ATOM     17  C   UNL     1      -8.147  -0.016  -0.304  0.00  0.00    +0.013 A 
ATOM     18  C   UNL     1      -9.042   0.842  -0.909  0.00  0.00    +0.039 A 
ATOM     19  C   UNL     1     -10.286   0.381  -1.309  0.00  0.00    +0.123 A 
ATOM     20  C   UNL     1     -10.639  -0.944  -1.103  0.00  0.00    +0.039 A 
ATOM     21  C   UNL     1      -9.751  -1.812  -0.505  0.00  0.00    +0.013 A 
ATOM     22  F   UNL     1     -11.159   1.226  -1.900  0.00  0.00    -0.205 F 
ENDBRANCH  11  16
BRANCH  13  23
ATOM     23  S   UNL     1      -6.470  -5.093   3.059  0.00  0.00    -0.091 S 
ATOM     24  C   UNL     1      -4.709  -5.521   2.977  0.00  0.00    +0.093 C 
ENDBRANCH  13  23
ENDBRANCH   4  10
BRANCH   1  25
ATOM     25  C   UNL     1      -1.433  -0.534   0.013  0.00  0.00    +0.110 C 
BRANCH  25  27
ATOM     26  C   UNL     1      -0.019   1.526   0.010  0.00  0.00    +0.014 C 
ATOM     27  C   UNL     1       0.002  -0.004   0.002  0.00  0.00    +0.033 C 
BRANCH  27  28
ATOM     28  C   UNL     1       0.731  -0.503   1.223  0.00  0.00    -0.043 A 
ATOM     29  C   UNL     1       0.263  -0.187   2.485  0.00  0.00    +0.004 A 
ATOM     30  C   UNL     1       0.931  -0.645   3.605  0.00  0.00    +0.000 A 
ATOM     31  C   UNL     1       2.068  -1.419   3.463  0.00  0.00    +0.000 A 
ATOM     32  C   UNL     1       2.535  -1.736   2.201  0.00  0.00    +0.000 A 
ATOM     33  C   UNL     1       1.864  -1.282   1.081  0.00  0.00    +0.004 A 
ENDBRANCH  27  28
ENDBRANCH  25  27
ENDBRANCH   1  25
TORSDOF 6
