REMARK  Name = CHEMBL161477
REMARK  12 active torsions:
REMARK  status: ('A' for Active; 'I' for Inactive)
REMARK    1  A    between atoms: C_1  and  C_2
REMARK    2  A    between atoms: C_2  and  C_4
REMARK    3  A    between atoms: C_2  and  N_10
REMARK    4  A    between atoms: C_15  and  C_17
REMARK    5  A    between atoms: C_22  and  C_23
REMARK    6  A    between atoms: C_27  and  C_29
REMARK    7  A    between atoms: N_33  and  C_34
REMARK    8  A    between atoms: N_33  and  C_35
REMARK    9  A    between atoms: C_35  and  C_36
REMARK   10  A    between atoms: C_36  and  N_37
REMARK   11  A    between atoms: N_37  and  C_38
REMARK   12  A    between atoms: N_37  and  C_39
REMARK                            x       y       z     vdW  Elec       q    Type
REMARK                         _______ _______ _______ _____ _____    ______ ____
ROOT
ATOM      1  C   UNL     1       0.815  -1.692   5.810  0.00  0.00    +0.031 A 
ATOM      2  C   UNL     1       0.202  -1.760   7.062  0.00  0.00    +0.055 A 
ATOM      3  C   UNL     1       0.954  -2.251   8.129  0.00  0.00    +0.115 A 
ATOM      4  N   UNL     1       2.208  -2.634   7.936  0.00  0.00    -0.264 N 
ATOM      5  N   UNL     1       2.778  -2.574   6.789  0.00  0.00    -0.172 NA
ATOM      6  C   UNL     1       2.151  -2.129   5.709  0.00  0.00    +0.100 A 
ATOM      7  N   UNL     1       0.387  -2.337   9.396  0.00  0.00    -0.320 N 
ATOM      8  C   UNL     1      -0.999  -1.914   9.609  0.00  0.00    +0.130 C 
ATOM      9  H   UNL     1       2.714  -2.971   8.692  0.00  0.00    +0.190 HD
ENDROOT
BRANCH   1  15
ATOM     10  N   UNL     1      -0.531  -2.144   1.249  0.00  0.00    -0.307 N 
ATOM     11  C   UNL     1      -0.561  -1.412   2.423  0.00  0.00    +0.216 A 
ATOM     12  N   UNL     1      -1.242  -0.275   2.458  0.00  0.00    -0.223 NA
ATOM     13  C   UNL     1      -1.294   0.454   3.561  0.00  0.00    +0.116 A 
ATOM     14  C   UNL     1      -0.627   0.019   4.692  0.00  0.00    +0.048 A 
ATOM     15  C   UNL     1       0.083  -1.183   4.625  0.00  0.00    +0.078 A 
ATOM     16  N   UNL     1       0.087  -1.867   3.483  0.00  0.00    -0.214 NA
ATOM     17  H   UNL     1      -0.040  -2.980   1.211  0.00  0.00    +0.149 HD
BRANCH  10  19
ATOM     18  C   UNL     1      -0.350  -0.676  -0.699  0.00  0.00    +0.033 C 
ATOM     19  C   UNL     1      -1.242  -1.658   0.064  0.00  0.00    +0.100 C 
BRANCH  19  20
ATOM     20  C   UNL     1      -1.586  -2.822  -0.829  0.00  0.00    -0.027 A 
ATOM     21  C   UNL     1      -0.677  -3.849  -1.007  0.00  0.00    +0.005 A 
ATOM     22  C   UNL     1      -0.992  -4.917  -1.826  0.00  0.00    +0.000 A 
ATOM     23  C   UNL     1      -2.216  -4.959  -2.467  0.00  0.00    +0.000 A 
ATOM     24  C   UNL     1      -3.126  -3.933  -2.288  0.00  0.00    +0.000 A 
ATOM     25  C   UNL     1      -2.812  -2.867  -1.465  0.00  0.00    +0.005 A 
ENDBRANCH  19  20
ENDBRANCH  10  19
ENDBRANCH   1  15
BRANCH   6  26
ATOM     26  C   UNL     1       2.852  -2.086   4.405  0.00  0.00    +0.003 A 
ATOM     27  C   UNL     1       2.741  -0.961   3.587  0.00  0.00    +0.010 A 
ATOM     28  C   UNL     1       3.397  -0.926   2.374  0.00  0.00    +0.001 A 
ATOM     29  C   UNL     1       4.162  -2.005   1.967  0.00  0.00    +0.012 A 
ATOM     30  C   UNL     1       4.276  -3.123   2.773  0.00  0.00    +0.055 A 
ATOM     31  C   UNL     1       3.630  -3.166   3.992  0.00  0.00    +0.022 A 
BRANCH  30  32
ATOM     32  C   UNL     1       5.113  -4.293   2.323  0.00  0.00    +0.417 C 
ATOM     33  F   UNL     1       5.668  -4.014   1.069  0.00  0.00    -0.166 F 
ATOM     34  F   UNL     1       6.138  -4.516   3.248  0.00  0.00    -0.166 F 
ATOM     35  F   UNL     1       4.308  -5.434   2.234  0.00  0.00    -0.166 F 
ENDBRANCH  30  32
ENDBRANCH   6  26
BRANCH   7  36
ATOM     36  C   UNL     1       1.177  -2.852  10.517  0.00  0.00    +0.087 C 
BRANCH  36  37
ATOM     37  C   UNL     1       1.906  -1.694  11.202  0.00  0.00    -0.060 C 
BRANCH  37  38
ATOM     38  N   UNL     1       2.697  -2.211  12.327  0.00  0.00    +0.377 N 
ATOM     39  C   UNL     1       3.758  -3.090  11.816  0.00  0.00    -0.097 C 
ATOM     40  C   UNL     1       3.301  -1.088  13.057  0.00  0.00    -0.097 C 
ATOM     41  H   UNL     1       2.098  -2.733  12.948  0.00  0.00    -0.083 HD
ENDBRANCH  37  38
ENDBRANCH  36  37
ENDBRANCH   7  36
TORSDOF 8
