REMARK  Name = CHEMBL96305
REMARK  4 active torsions:
REMARK  status: ('A' for Active; 'I' for Inactive)
REMARK    1  A    between atoms: C_4  and  N_8
REMARK    2  A    between atoms: C_11  and  N_28
REMARK    3  A    between atoms: C_12  and  S_19
REMARK    4  A    between atoms: S_19  and  C_20
REMARK                            x       y       z     vdW  Elec       q    Type
REMARK                         _______ _______ _______ _____ _____    ______ ____
ROOT
ATOM      1  N   UNL     1       3.393  -1.173  -0.042  0.00  0.00    -0.220 N 
ATOM      2  C   UNL     1       4.022  -1.362  -1.276  0.00  0.00    +0.067 A 
ATOM      3  C   UNL     1       3.428  -0.916  -2.454  0.00  0.00    +0.051 A 
ATOM      4  C   UNL     1       4.098  -1.130  -3.651  0.00  0.00    +0.064 A 
ATOM      5  C   UNL     1       5.335  -1.781  -3.632  0.00  0.00    +0.123 A 
ATOM      6  N   UNL     1       5.866  -2.189  -2.490  0.00  0.00    -0.240 NA
ATOM      7  C   UNL     1       5.253  -2.000  -1.340  0.00  0.00    +0.081 A 
ATOM      8  C   UNL     1       5.871  -2.472  -0.042  0.00  0.00    +0.163 C 
ATOM      9  N   UNL     1       5.111  -2.215   1.193  0.00  0.00    -0.293 N 
ATOM     10  C   UNL     1       3.928  -1.579   1.117  0.00  0.00    +0.311 C 
ATOM     11  O   UNL     1       3.314  -1.369   2.145  0.00  0.00    -0.252 OA
ATOM     12  H   UNL     1       5.462  -2.497   2.052  0.00  0.00    +0.151 HD
ENDROOT
BRANCH   4  13
ATOM     13  N   UNL     1       3.541  -0.701  -4.861  0.00  0.00    -0.328 N 
ATOM     14  C   UNL     1       2.637  -1.468  -5.744  0.00  0.00    +0.090 C 
ATOM     15  C   UNL     1       2.290  -0.495  -6.914  0.00  0.00    -0.053 C 
ATOM     16  C   UNL     1       2.316   0.869  -6.136  0.00  0.00    +0.006 C 
ATOM     17  C   UNL     1       3.735   0.626  -5.516  0.00  0.00    +0.055 C 
ATOM     18  C   UNL     1       4.534   0.296  -6.815  0.00  0.00    -0.060 C 
ATOM     19  N   UNL     1       3.561  -0.401  -7.699  0.00  0.00    +0.383 N 
ATOM     20  H   UNL     1       3.896  -1.325  -7.930  0.00  0.00    -0.085 HD
ATOM     21  H   UNL     1       3.412   0.136  -8.540  0.00  0.00    -0.085 HD
ENDBRANCH   4  13
BRANCH   1  25
ATOM     22  C   UNL     1      -0.304   0.755   0.034  0.00  0.00    +0.003 A 
ATOM     23  C   UNL     1       0.861   1.493   0.137  0.00  0.00    +0.022 A 
ATOM     24  C   UNL     1       2.089   0.857   0.112  0.00  0.00    +0.064 A 
ATOM     25  C   UNL     1       2.151  -0.525  -0.016  0.00  0.00    +0.079 A 
ATOM     26  C   UNL     1       0.978  -1.263  -0.119  0.00  0.00    +0.064 A 
ATOM     27  C   UNL     1      -0.246  -0.621  -0.094  0.00  0.00    +0.022 A 
ATOM     28 CL   UNL     1       1.050  -2.990  -0.280  0.00  0.00    -0.082 Cl
ATOM     29 CL   UNL     1       3.550   1.784   0.240  0.00  0.00    -0.082 Cl
ENDBRANCH   1  25
BRANCH   5  30
ATOM     30  S   UNL     1       6.196  -2.060  -5.144  0.00  0.00    -0.065 S 
BRANCH  30  31
ATOM     31  C   UNL     1       7.735  -2.750  -4.636  0.00  0.00    +0.050 A 
ATOM     32  C   UNL     1       7.970  -4.111  -4.783  0.00  0.00    +0.021 A 
ATOM     33  C   UNL     1       9.177  -4.650  -4.384  0.00  0.00    +0.039 A 
ATOM     34  C   UNL     1      10.155  -3.836  -3.837  0.00  0.00    +0.126 A 
ATOM     35  C   UNL     1       9.925  -2.478  -3.689  0.00  0.00    +0.077 A 
ATOM     36  C   UNL     1       8.720  -1.932  -4.092  0.00  0.00    +0.140 A 
ATOM     37  F   UNL     1       8.498  -0.607  -3.953  0.00  0.00    -0.204 F 
ATOM     38  F   UNL     1      11.335  -4.367  -3.448  0.00  0.00    -0.205 F 
ENDBRANCH  30  31
ENDBRANCH   5  30
TORSDOF 4
