REMARK  Name = CHEMBL1092001
REMARK  4 active torsions:
REMARK  status: ('A' for Active; 'I' for Inactive)
REMARK    1  A    between atoms: C_6  and  C_7
REMARK    2  A    between atoms: C_8  and  C_24
REMARK    3  A    between atoms: C_9  and  C_13
REMARK    4  A    between atoms: N_16  and  C_19
REMARK                            x       y       z     vdW  Elec       q    Type
REMARK                         _______ _______ _______ _____ _____    ______ ____
ROOT
ATOM      1  C   UNL     1      -1.212  -0.871   0.105  0.00  0.00    +0.075 A 
ATOM      2  C   UNL     1      -1.615  -1.800  -0.848  0.00  0.00    +0.049 A 
ATOM      3  C   UNL     1      -2.958  -2.119  -0.577  0.00  0.00    +0.075 A 
ATOM      4  N   UNL     1      -3.345  -1.434   0.466  0.00  0.00    -0.177 NA
ATOM      5  H   UNL     1      -2.298  -0.050   1.682  0.00  0.00    +0.189 HD
ATOM      6  N   UNL     1      -2.279  -0.649   0.920  0.00  0.00    -0.276 N 
ENDROOT
BRANCH   1  12
ATOM      7  C   UNL     1       0.241   1.131   0.394  0.00  0.00    +0.011 A 
ATOM      8  C   UNL     1       1.490   1.706   0.498  0.00  0.00    +0.020 A 
ATOM      9  C   UNL     1       2.627   0.918   0.426  0.00  0.00    +0.041 A 
ATOM     10  C   UNL     1       2.517  -0.451   0.250  0.00  0.00    +0.020 A 
ATOM     11  C   UNL     1       1.273  -1.038   0.144  0.00  0.00    +0.011 A 
ATOM     12  C   UNL     1       0.124  -0.249   0.217  0.00  0.00    +0.001 A 
ATOM     13 CL   UNL     1       4.196   1.649   0.558  0.00  0.00    -0.084 Cl
ENDBRANCH   1  12
BRANCH   3  14
ATOM     14  C   UNL     1      -3.808  -3.087  -1.359  0.00  0.00    +0.037 C 
ATOM     15  C   UNL     1      -5.030  -2.355  -1.923  0.00  0.00    -0.009 C 
ATOM     16  C   UNL     1      -5.928  -3.360  -2.648  0.00  0.00    -0.078 C 
ATOM     17  N   UNL     1      -6.369  -4.396  -1.707  0.00  0.00    +0.383 N 
ATOM     18  C   UNL     1      -5.208  -5.149  -1.216  0.00  0.00    -0.078 C 
ATOM     19  C   UNL     1      -4.282  -4.213  -0.436  0.00  0.00    -0.009 C 
ATOM     20  H   UNL     1      -6.841  -3.963  -0.928  0.00  0.00    -0.081 HD
BRANCH  17  21
ATOM     21  C   UNL     1      -7.293  -5.313  -2.388  0.00  0.00    -0.040 C 
ATOM     22  C   UNL     1      -8.575  -4.564  -2.825  0.00  0.00    +0.015 C 
ATOM     23  C   UNL     1      -9.682  -5.601  -2.503  0.00  0.00    +0.158 C 
ATOM     24  O   UNL     1      -9.221  -6.218  -1.282  0.00  0.00    -0.381 OA
ATOM     25  C   UNL     1      -7.800  -6.392  -1.411  0.00  0.00    +0.144 C 
ENDBRANCH  17  21
ENDBRANCH   3  14
BRANCH   2  26
ATOM     26  C   UNL     1      -0.785  -2.349  -1.943  0.00  0.00    +0.078 A 
ATOM     27  C   UNL     1      -0.023  -1.500  -2.754  0.00  0.00    +0.048 A 
ATOM     28  C   UNL     1       0.734  -2.064  -3.763  0.00  0.00    +0.114 A 
ATOM     29  N   UNL     1       0.715  -3.379  -3.928  0.00  0.00    -0.244 NA
ATOM     30  C   UNL     1      -0.013  -4.152  -3.148  0.00  0.00    +0.221 A 
ATOM     31  N   UNL     1      -0.747  -3.662  -2.171  0.00  0.00    -0.235 NA
ENDBRANCH   2  26
TORSDOF 4
