REMARK  Name = CHEMBL103667
REMARK  12 active torsions:
REMARK  status: ('A' for Active; 'I' for Inactive)
REMARK    1  A    between atoms: C_1  and  C_2
REMARK    2  A    between atoms: C_5  and  N_8
REMARK    3  A    between atoms: C_9  and  N_17
REMARK    4  A    between atoms: C_11  and  C_13
REMARK    5  A    between atoms: C_13  and  C_14
REMARK    6  A    between atoms: C_13  and  C_15
REMARK    7  A    between atoms: C_13  and  C_16
REMARK    8  A    between atoms: N_20  and  C_21
REMARK    9  A    between atoms: C_24  and  O_31
REMARK   10  A    between atoms: O_31  and  C_32
REMARK   11  A    between atoms: C_32  and  C_33
REMARK   12  A    between atoms: C_33  and  N_34
REMARK                            x       y       z     vdW  Elec       q    Type
REMARK                         _______ _______ _______ _____ _____    ______ ____
ROOT
ATOM      1  N   UNL     1       1.425  -4.436   2.112  0.00  0.00    -0.254 N 
ATOM      2  C   UNL     1       2.015  -5.357   2.901  0.00  0.00    +0.309 C 
ATOM      3  O   UNL     1       1.978  -6.533   2.595  0.00  0.00    -0.252 OA
ATOM      4  N   UNL     1       2.645  -4.973   4.029  0.00  0.00    -0.269 N 
ATOM      5  H   UNL     1       1.455  -3.498   2.356  0.00  0.00    +0.158 HD
ATOM      6  H   UNL     1       2.736  -4.030   4.237  0.00  0.00    +0.156 HD
ENDROOT
BRANCH   4   7
ATOM      7  C   UNL     1       3.168  -5.935   4.899  0.00  0.00    +0.043 A 
ATOM      8  C   UNL     1       3.690  -7.109   4.403  0.00  0.00    +0.027 A 
ATOM      9  C   UNL     1       4.214  -8.074   5.258  0.00  0.00    +0.048 A 
ATOM     10  C   UNL     1       4.225  -7.884   6.611  0.00  0.00    +0.128 A 
ATOM     11  C   UNL     1       3.700  -6.696   7.157  0.00  0.00    +0.026 A 
ATOM     12  C   UNL     1       3.171  -5.707   6.291  0.00  0.00    +0.007 A 
ATOM     13  C   UNL     1       2.652  -4.521   6.836  0.00  0.00    +0.010 A 
ATOM     14  C   UNL     1       2.671  -4.334   8.184  0.00  0.00    +0.001 A 
ATOM     15  C   UNL     1       3.197  -5.304   9.035  0.00  0.00    +0.001 A 
ATOM     16  C   UNL     1       3.697  -6.471   8.543  0.00  0.00    +0.012 A 
BRANCH  10  17
ATOM     17  O   UNL     1       4.741  -8.839   7.429  0.00  0.00    -0.490 OA
BRANCH  17  18
ATOM     18  C   UNL     1       5.255 -10.018   6.806  0.00  0.00    +0.244 C 
BRANCH  18  19
ATOM     19  C   UNL     1       5.788 -10.970   7.878  0.00  0.00    +0.125 C 
BRANCH  19  20
ATOM     20  N   UNL     1       4.683 -11.404   8.742  0.00  0.00    -0.295 NA
ATOM     21  C   UNL     1       5.186 -12.115   9.926  0.00  0.00    +0.112 C 
ATOM     22  C   UNL     1       4.008 -12.495  10.826  0.00  0.00    +0.175 C 
ATOM     23  O   UNL     1       3.077 -13.281  10.078  0.00  0.00    -0.377 OA
ATOM     24  C   UNL     1       2.565 -12.619   8.918  0.00  0.00    +0.175 C 
ATOM     25  C   UNL     1       3.729 -12.240   7.999  0.00  0.00    +0.112 C 
ENDBRANCH  19  20
ENDBRANCH  18  19
ENDBRANCH  17  18
ENDBRANCH  10  17
ENDBRANCH   4   7
BRANCH   1  27
ATOM     26  N   UNL     1       0.139  -4.018   0.059  0.00  0.00    -0.218 N 
ATOM     27  C   UNL     1       0.773  -4.834   0.945  0.00  0.00    +0.130 A 
ATOM     28  C   UNL     1       0.655  -6.108   0.482  0.00  0.00    +0.069 A 
ATOM     29  C   UNL     1      -0.069  -6.066  -0.713  0.00  0.00    +0.071 A 
ATOM     30  N   UNL     1      -0.382  -4.820  -0.964  0.00  0.00    -0.169 NA
BRANCH  26  35
ATOM     31  C   UNL     1      -0.332   1.624   0.454  0.00  0.00    +0.044 C 
ATOM     32  C   UNL     1      -0.207   0.126   0.349  0.00  0.00    -0.050 A 
ATOM     33  C   UNL     1      -0.076  -0.470  -0.892  0.00  0.00    +0.005 A 
ATOM     34  C   UNL     1       0.039  -1.843  -0.991  0.00  0.00    +0.028 A 
ATOM     35  C   UNL     1       0.023  -2.624   0.157  0.00  0.00    +0.067 A 
ATOM     36  C   UNL     1      -0.108  -2.022   1.401  0.00  0.00    +0.028 A 
ATOM     37  C   UNL     1      -0.217  -0.649   1.494  0.00  0.00    +0.005 A 
ENDBRANCH  26  35
BRANCH  29  38
ATOM     38  C   UNL     1      -0.432  -7.254  -1.565  0.00  0.00    +0.006 C 
ATOM     39  C   UNL     1      -1.569  -8.031  -0.899  0.00  0.00    +0.017 C 
ATOM     40  C   UNL     1      -0.884  -6.772  -2.946  0.00  0.00    +0.017 C 
ATOM     41  C   UNL     1       0.788  -8.165  -1.717  0.00  0.00    +0.017 C 
ENDBRANCH  29  38
ENDBRANCH   1  27
TORSDOF 8
