REMARK  Name = CHEMBL193247
REMARK  5 active torsions:
REMARK  status: ('A' for Active; 'I' for Inactive)
REMARK    1  A    between atoms: C_4  and  C_7
REMARK    2  A    between atoms: C_8  and  C_21
REMARK    3  A    between atoms: C_11  and  C_13
REMARK    4  A    between atoms: N_27  and  S_31
REMARK    5  A    between atoms: S_31  and  C_34
REMARK                            x       y       z     vdW  Elec       q    Type
REMARK                         _______ _______ _______ _____ _____    ______ ____
ROOT
ATOM      1  C   UNL     1       4.093  -2.058   0.505  0.00  0.00    +0.072 A 
ATOM      2  C   UNL     1       4.093  -1.829  -0.860  0.00  0.00    +0.072 A 
ATOM      3  N   UNL     1       4.965  -0.786  -1.079  0.00  0.00    -0.339 N 
ATOM      4  H   UNL     1       5.184  -0.389  -1.937  0.00  0.00    +0.167 HD
ATOM      5  C   UNL     1       5.462  -0.415   0.138  0.00  0.00    +0.122 A 
ATOM      6  N   UNL     1       4.932  -1.174   1.069  0.00  0.00    -0.339 N 
ATOM      7  H   UNL     1       5.120  -1.108   2.019  0.00  0.00    +0.167 HD
ENDROOT
BRANCH   2   8
ATOM      8  C   UNL     1       3.314  -2.558  -1.879  0.00  0.00    +0.002 A 
ATOM      9  C   UNL     1       1.949  -2.797  -1.677  0.00  0.00    +0.012 A 
ATOM     10  C   UNL     1       1.219  -3.470  -2.612  0.00  0.00    +0.030 A 
ATOM     11  C   UNL     1       1.831  -3.929  -3.783  0.00  0.00    +0.093 A 
ATOM     12  C   UNL     1       3.201  -3.693  -3.993  0.00  0.00    +0.094 A 
ATOM     13  C   UNL     1       3.938  -3.005  -3.045  0.00  0.00    +0.039 A 
ATOM     14  N   UNL     1       3.507  -4.258  -5.221  0.00  0.00    -0.183 N 
ATOM     15  C   UNL     1       2.356  -4.805  -5.711  0.00  0.00    +0.214 A 
ATOM     16  N   UNL     1       1.374  -4.611  -4.865  0.00  0.00    -0.213 NA
ATOM     17  N   UNL     1       2.243  -5.465  -6.916  0.00  0.00    -0.328 N 
ATOM     18  H   UNL     1       3.021  -5.568  -7.487  0.00  0.00    +0.145 HD
ATOM     19  H   UNL     1       1.387  -5.826  -7.194  0.00  0.00    +0.145 HD
BRANCH  14  20
ATOM     20  S   UNL     1       4.990  -4.269  -5.956  0.00  0.00    +0.060 S 
ATOM     21  O   UNL     1       4.706  -4.370  -7.344  0.00  0.00    -0.152 OA
ATOM     22  O   UNL     1       5.661  -3.129  -5.435  0.00  0.00    -0.152 OA
BRANCH  20  23
ATOM     23  C   UNL     1       5.791  -5.787  -5.369  0.00  0.00    +0.154 C 
ATOM     24  C   UNL     1       5.873  -5.780  -3.829  0.00  0.00    +0.028 C 
ATOM     25  C   UNL     1       7.240  -6.439  -3.519  0.00  0.00    +0.002 C 
ATOM     26  C   UNL     1       8.150  -5.885  -4.643  0.00  0.00    +0.002 C 
ATOM     27  C   UNL     1       7.238  -5.854  -5.887  0.00  0.00    +0.028 C 
ENDBRANCH  20  23
ENDBRANCH  14  20
ENDBRANCH   2   8
BRANCH   5  28
ATOM     28  C   UNL     1       6.436   0.671   0.370  0.00  0.00    +0.086 A 
ATOM     29  C   UNL     1       7.439   0.928  -0.570  0.00  0.00    +0.137 A 
ATOM     30  C   UNL     1       8.346   1.947  -0.346  0.00  0.00    +0.039 A 
ATOM     31  C   UNL     1       8.264   2.711   0.804  0.00  0.00    +0.006 A 
ATOM     32  C   UNL     1       7.275   2.463   1.739  0.00  0.00    +0.039 A 
ATOM     33  C   UNL     1       6.357   1.451   1.527  0.00  0.00    +0.137 A 
ATOM     34  F   UNL     1       5.388   1.214   2.438  0.00  0.00    -0.205 F 
ATOM     35  F   UNL     1       7.521   0.183  -1.694  0.00  0.00    -0.205 F 
ENDBRANCH   5  28
BRANCH   1  39
ATOM     36  C   UNL     1       1.826  -5.016   2.550  0.00  0.00    +0.000 A 
ATOM     37  C   UNL     1       2.541  -5.357   1.415  0.00  0.00    +0.001 A 
ATOM     38  C   UNL     1       3.279  -4.402   0.748  0.00  0.00    +0.010 A 
ATOM     39  C   UNL     1       3.302  -3.089   1.218  0.00  0.00    +0.000 A 
ATOM     40  C   UNL     1       2.579  -2.750   2.361  0.00  0.00    +0.010 A 
ATOM     41  C   UNL     1       1.845  -3.715   3.021  0.00  0.00    +0.001 A 
ENDBRANCH   1  39
TORSDOF 5
