REMARK  Name = CHEMBL1209288
REMARK  3 active torsions:
REMARK  status: ('A' for Active; 'I' for Inactive)
REMARK    1  A    between atoms: C_6  and  C_7
REMARK    2  A    between atoms: C_8  and  C_23
REMARK    3  A    between atoms: C_9  and  C_13
REMARK                            x       y       z     vdW  Elec       q    Type
REMARK                         _______ _______ _______ _____ _____    ______ ____
ROOT
ATOM      1  C   UNL     1      -1.265  -0.762   0.011  0.00  0.00    +0.055 A 
ATOM      2  C   UNL     1      -1.549  -1.861   0.804  0.00  0.00    +0.015 A 
ATOM      3  C   UNL     1      -2.920  -2.265   0.460  0.00  0.00    +0.003 A 
ATOM      4  C   UNL     1      -3.350  -1.397  -0.497  0.00  0.00    +0.091 A 
ATOM      5  N   UNL     1      -2.364  -0.498  -0.760  0.00  0.00    -0.360 N 
ATOM      6  H   UNL     1      -2.430   0.225  -1.403  0.00  0.00    +0.165 HD
ENDROOT
BRANCH   3   7
ATOM      7  C   UNL     1      -3.680  -3.392   1.038  0.00  0.00    -0.045 C 
ATOM      8  C   UNL     1      -3.382  -4.623   0.681  0.00  0.00    -0.038 C 
ATOM      9  C   UNL     1      -4.077  -5.835   1.202  0.00  0.00    -0.045 C 
ATOM     10  C   UNL     1      -5.021  -6.429   0.132  0.00  0.00    -0.013 C 
ATOM     11  C   UNL     1      -6.015  -7.259   0.978  0.00  0.00    -0.020 C 
ATOM     12  C   UNL     1      -5.932  -6.662   2.396  0.00  0.00    -0.078 C 
ATOM     13  N   UNL     1      -4.972  -5.534   2.336  0.00  0.00    +0.384 N 
ATOM     14  C   UNL     1      -5.733  -4.307   2.063  0.00  0.00    -0.073 C 
ATOM     15  C   UNL     1      -4.778  -3.111   2.029  0.00  0.00    +0.017 C 
ATOM     16  H   UNL     1      -4.449  -5.459   3.196  0.00  0.00    -0.081 HD
ENDBRANCH   3   7
BRANCH   1  22
ATOM     17  C   UNL     1      -0.017   1.392   0.010  0.00  0.00    +0.013 A 
ATOM     18  C   UNL     1       1.169   2.095   0.002  0.00  0.00    +0.039 A 
ATOM     19  C   UNL     1       2.379   1.419  -0.013  0.00  0.00    +0.123 A 
ATOM     20  C   UNL     1       2.404   0.033  -0.021  0.00  0.00    +0.039 A 
ATOM     21  C   UNL     1       1.224  -0.680  -0.014  0.00  0.00    +0.013 A 
ATOM     22  C   UNL     1       0.002  -0.004   0.002  0.00  0.00    -0.001 A 
ATOM     23  F   UNL     1       3.538   2.113  -0.020  0.00  0.00    -0.205 F 
ENDBRANCH   1  22
BRANCH   2  24
ATOM     24  C   UNL     1      -0.655  -2.498   1.796  0.00  0.00    -0.012 A 
ATOM     25  C   UNL     1      -0.189  -3.804   1.609  0.00  0.00    +0.028 A 
ATOM     26  C   UNL     1       0.643  -4.359   2.559  0.00  0.00    +0.111 A 
ATOM     27  N   UNL     1       0.998  -3.676   3.631  0.00  0.00    -0.263 NA
ATOM     28  C   UNL     1       0.580  -2.442   3.845  0.00  0.00    +0.111 A 
ATOM     29  C   UNL     1      -0.248  -1.808   2.944  0.00  0.00    +0.028 A 
ENDBRANCH   2  24
TORSDOF 3
