REMARK  Name = CHEMBL562451
REMARK  9 active torsions:
REMARK  status: ('A' for Active; 'I' for Inactive)
REMARK    1  A    between atoms: C_1  and  C_2
REMARK    2  A    between atoms: C_4  and  O_26
REMARK    3  A    between atoms: C_7  and  C_8
REMARK    4  A    between atoms: C_9  and  N_25
REMARK    5  A    between atoms: C_10  and  C_15
REMARK    6  A    between atoms: C_15  and  C_17
REMARK    7  A    between atoms: O_26  and  C_27
REMARK    8  A    between atoms: C_27  and  C_28
REMARK    9  A    between atoms: C_28  and  N_29
REMARK                            x       y       z     vdW  Elec       q    Type
REMARK                         _______ _______ _______ _____ _____    ______ ____
ROOT
ATOM      1  C   UNL     1      -0.141   0.161   2.531  0.00  0.00    +0.113 A 
ATOM      2  C   UNL     1      -1.363   0.403   3.172  0.00  0.00    +0.063 A 
ATOM      3  C   UNL     1      -1.371   1.199   4.331  0.00  0.00    +0.047 A 
ATOM      4  C   UNL     1      -0.149   1.713   4.789  0.00  0.00    +0.035 A 
ATOM      5  C   UNL     1       1.006   1.423   4.096  0.00  0.00    +0.135 A 
ATOM      6  N   UNL     1       0.985   0.668   3.013  0.00  0.00    -0.137 N 
ATOM      7  O   UNL     1       2.202   0.397   2.341  0.00  0.00    -0.164 OA
ENDROOT
BRANCH   1  14
ATOM      8  C   UNL     1      -0.427   1.407  -0.062  0.00  0.00    +0.044 C 
ATOM      9  C   UNL     1      -0.243  -0.084   0.053  0.00  0.00    -0.038 A 
ATOM     10  C   UNL     1      -0.205  -0.865  -1.084  0.00  0.00    +0.049 A 
ATOM     11  C   UNL     1      -0.035  -2.239  -0.979  0.00  0.00    +0.121 A 
ATOM     12  C   UNL     1       0.097  -2.831   0.270  0.00  0.00    +0.046 A 
ATOM     13  C   UNL     1       0.060  -2.057   1.410  0.00  0.00    +0.014 A 
ATOM     14  C   UNL     1      -0.105  -0.676   1.308  0.00  0.00    +0.007 A 
BRANCH  11  15
ATOM     15  O   UNL     1       0.001  -3.005  -2.100  0.00  0.00    -0.491 OA
BRANCH  15  16
ATOM     16  C   UNL     1       0.179  -4.411  -1.920  0.00  0.00    +0.244 C 
BRANCH  16  17
ATOM     17  C   UNL     1       0.194  -5.103  -3.284  0.00  0.00    +0.125 C 
BRANCH  17  18
ATOM     18  N   UNL     1       1.360  -4.645  -4.052  0.00  0.00    -0.295 NA
ATOM     19  C   UNL     1       1.178  -4.899  -5.489  0.00  0.00    +0.112 C 
ATOM     20  C   UNL     1       2.386  -4.354  -6.255  0.00  0.00    +0.175 C 
ATOM     21  O   UNL     1       3.579  -4.958  -5.746  0.00  0.00    -0.377 OA
ATOM     22  C   UNL     1       3.788  -4.731  -4.349  0.00  0.00    +0.175 C 
ATOM     23  C   UNL     1       2.594  -5.279  -3.564  0.00  0.00    +0.112 C 
ENDBRANCH  17  18
ENDBRANCH  16  17
ENDBRANCH  15  16
ENDBRANCH  11  15
ENDBRANCH   1  14
BRANCH   2  24
ATOM     24  N   UNL     1      -2.542  -0.130   2.673  0.00  0.00    -0.356 N 
ATOM     25  H   UNL     1      -2.537  -0.616   1.833  0.00  0.00    +0.142 HD
ATOM     26  H   UNL     1      -3.371  -0.018   3.163  0.00  0.00    +0.142 HD
ENDBRANCH   2  24
BRANCH   3  27
ATOM     27  C   UNL     1      -2.629   1.487   5.045  0.00  0.00    +0.198 C 
ATOM     28  O   UNL     1      -3.148   2.583   4.945  0.00  0.00    -0.286 OA
BRANCH  27  29
ATOM     29  C   UNL     1      -3.258   0.446   5.879  0.00  0.00    +0.058 A 
ATOM     30  C   UNL     1      -2.609  -0.774   6.088  0.00  0.00    +0.017 A 
ATOM     31  C   UNL     1      -3.201  -1.743   6.867  0.00  0.00    +0.039 A 
ATOM     32  C   UNL     1      -4.440  -1.511   7.447  0.00  0.00    +0.126 A 
ATOM     33  C   UNL     1      -5.091  -0.305   7.246  0.00  0.00    +0.077 A 
ATOM     34  C   UNL     1      -4.506   0.678   6.471  0.00  0.00    +0.137 A 
ATOM     35  F   UNL     1      -5.138   1.856   6.279  0.00  0.00    -0.205 F 
ATOM     36  F   UNL     1      -5.015  -2.466   8.211  0.00  0.00    -0.205 F 
ENDBRANCH  27  29
ENDBRANCH   3  27
TORSDOF 8
