REMARK  Name = CHEMBL196369
REMARK  6 active torsions:
REMARK  status: ('A' for Active; 'I' for Inactive)
REMARK    1  A    between atoms: C_4  and  O_7
REMARK    2  A    between atoms: O_7  and  C_8
REMARK    3  A    between atoms: C_12  and  C_14
REMARK    4  A    between atoms: C_15  and  C_23
REMARK    5  A    between atoms: N_19  and  C_20
REMARK    6  A    between atoms: C_20  and  C_21
REMARK                            x       y       z     vdW  Elec       q    Type
REMARK                         _______ _______ _______ _____ _____    ______ ____
ROOT
ATOM      1  C   UNL     1       6.171  -4.405   0.239  0.00  0.00    +0.116 A 
ATOM      2  C   UNL     1       7.396  -3.757   0.271  0.00  0.00    +0.097 A 
ATOM      3  C   UNL     1       8.405  -4.739   0.137  0.00  0.00    +0.367 A 
ATOM      4  O   UNL     1       9.607  -4.536   0.122  0.00  0.00    -0.243 OA
ATOM      5  O   UNL     1       7.805  -5.935   0.028  0.00  0.00    -0.334 OA
ATOM      6  N   UNL     1       6.406  -5.736   0.097  0.00  0.00    -0.195 N 
ENDROOT
BRANCH   2   7
ATOM      7  C   UNL     1       7.610  -2.299   0.419  0.00  0.00    -0.009 A 
ATOM      8  C   UNL     1       7.168  -1.423  -0.573  0.00  0.00    +0.011 A 
ATOM      9  C   UNL     1       7.370  -0.066  -0.431  0.00  0.00    +0.039 A 
ATOM     10  C   UNL     1       8.010   0.428   0.695  0.00  0.00    +0.123 A 
ATOM     11  C   UNL     1       8.450  -0.438   1.683  0.00  0.00    +0.039 A 
ATOM     12  C   UNL     1       8.248  -1.797   1.553  0.00  0.00    +0.011 A 
ATOM     13  F   UNL     1       8.205   1.758   0.830  0.00  0.00    -0.205 F 
ENDBRANCH   2   7
BRANCH   1  18
ATOM     14  C   UNL     1       3.267  -2.284  -0.458  0.00  0.00    +0.324 A 
ATOM     15  N   UNL     1       2.427  -2.575   0.524  0.00  0.00    -0.203 NA
ATOM     16  C   UNL     1       2.746  -3.460   1.454  0.00  0.00    +0.118 A 
ATOM     17  C   UNL     1       3.978  -4.089   1.396  0.00  0.00    +0.050 A 
ATOM     18  C   UNL     1       4.843  -3.761   0.347  0.00  0.00    +0.098 A 
ATOM     19  N   UNL     1       4.450  -2.864  -0.555  0.00  0.00    -0.193 NA
BRANCH  14  20
ATOM     20  O   UNL     1       2.900  -1.372  -1.390  0.00  0.00    -0.424 OA
BRANCH  20  24
ATOM     21  C   UNL     1      -0.757   0.487  -0.950  0.00  0.00    +0.000 A 
ATOM     22  C   UNL     1       0.312   0.871  -0.162  0.00  0.00    +0.004 A 
ATOM     23  C   UNL     1       1.538   0.251  -0.307  0.00  0.00    +0.046 A 
ATOM     24  C   UNL     1       1.695  -0.760  -1.245  0.00  0.00    +0.132 A 
ATOM     25  C   UNL     1       0.621  -1.144  -2.034  0.00  0.00    +0.046 A 
ATOM     26  C   UNL     1      -0.602  -0.520  -1.885  0.00  0.00    +0.004 A 
ENDBRANCH  20  24
ENDBRANCH  14  20
ENDBRANCH   1  18
BRANCH   6  27
ATOM     27  C   UNL     1       5.385  -6.785   0.025  0.00  0.00    +0.232 C 
BRANCH  27  28
ATOM     28  C   UNL     1       4.745  -6.770  -1.339  0.00  0.00    +0.248 C 
ATOM     29  O   UNL     1       4.725  -7.776  -2.007  0.00  0.00    -0.299 OA
ENDBRANCH  27  28
ENDBRANCH   6  27
TORSDOF 6
