REMARK  Name = CHEMBL327987
REMARK  4 active torsions:
REMARK  status: ('A' for Active; 'I' for Inactive)
REMARK    1  A    between atoms: C_5  and  C_7
REMARK    2  A    between atoms: C_9  and  N_26
REMARK    3  A    between atoms: N_17  and  C_18
REMARK    4  A    between atoms: N_26  and  C_27
REMARK                            x       y       z     vdW  Elec       q    Type
REMARK                         _______ _______ _______ _____ _____    ______ ____
ROOT
ATOM      1  C   UNL     1       1.246  -2.166  -0.022  0.00  0.00    -0.008 A 
ATOM      2  C   UNL     1       0.743  -2.870  -1.116  0.00  0.00    +0.032 A 
ATOM      3  C   UNL     1       0.771  -4.257  -1.115  0.00  0.00    +0.030 A 
ATOM      4  C   UNL     1       1.298  -4.947  -0.031  0.00  0.00    +0.047 A 
ATOM      5  C   UNL     1       1.799  -4.250   1.060  0.00  0.00    +0.050 A 
ATOM      6  C   UNL     1       1.775  -2.861   1.055  0.00  0.00    -0.001 A 
ATOM      7  C   UNL     1       2.335  -2.136   2.257  0.00  0.00    +0.143 C 
ATOM      8  N   UNL     1       2.873  -2.968   3.346  0.00  0.00    -0.295 N 
ATOM      9  C   UNL     1       2.842  -4.308   3.224  0.00  0.00    +0.311 C 
ATOM     10  O   UNL     1       3.290  -4.983   4.131  0.00  0.00    -0.252 OA
ATOM     11  N   UNL     1       2.330  -4.932   2.156  0.00  0.00    -0.221 N 
ATOM     12  H   UNL     1       3.246  -2.556   4.142  0.00  0.00    +0.151 HD
ENDROOT
BRANCH  11  13
ATOM     13  C   UNL     1       2.346  -6.333   2.129  0.00  0.00    +0.079 A 
ATOM     14  C   UNL     1       1.264  -7.051   2.624  0.00  0.00    +0.064 A 
ATOM     15  C   UNL     1       1.283  -8.433   2.596  0.00  0.00    +0.022 A 
ATOM     16  C   UNL     1       2.377  -9.101   2.077  0.00  0.00    +0.003 A 
ATOM     17  C   UNL     1       3.455  -8.390   1.584  0.00  0.00    +0.022 A 
ATOM     18  C   UNL     1       3.441  -7.008   1.603  0.00  0.00    +0.064 A 
ATOM     19 CL   UNL     1       4.792  -6.115   0.977  0.00  0.00    -0.082 Cl
ATOM     20 CL   UNL     1      -0.109  -6.214   3.277  0.00  0.00    -0.082 Cl
ENDBRANCH  11  13
BRANCH   1  25
ATOM     21  C   UNL     1      -0.017   1.376   0.010  0.00  0.00    +0.001 A 
ATOM     22  C   UNL     1       1.170   2.087   0.002  0.00  0.00    +0.001 A 
ATOM     23  C   UNL     1       2.382   1.420  -0.013  0.00  0.00    +0.020 A 
ATOM     24  C   UNL     1       2.413   0.039  -0.021  0.00  0.00    +0.049 A 
ATOM     25  C   UNL     1       1.219  -0.682  -0.013  0.00  0.00    +0.001 A 
ATOM     26  C   UNL     1       0.002  -0.004   0.002  0.00  0.00    +0.010 A 
ATOM     27 CL   UNL     1       3.934  -0.797  -0.042  0.00  0.00    -0.083 Cl
ENDBRANCH   1  25
BRANCH   3  28
ATOM     28  N   UNL     1       0.268  -4.963  -2.211  0.00  0.00    -0.341 N 
ATOM     29  H   UNL     1       0.287  -5.933  -2.213  0.00  0.00    +0.146 HD
BRANCH  28  30
ATOM     30  C   UNL     1      -0.288  -4.239  -3.356  0.00  0.00    +0.067 C 
ATOM     31  C   UNL     1      -1.760  -3.911  -3.089  0.00  0.00    +0.003 C 
ATOM     32  C   UNL     1      -2.356  -3.226  -4.321  0.00  0.00    -0.081 C 
ATOM     33  N   UNL     1      -2.255  -4.120  -5.480  0.00  0.00    +0.379 N 
ATOM     34  C   UNL     1      -0.843  -4.381  -5.786  0.00  0.00    -0.081 C 
ATOM     35  C   UNL     1      -0.189  -5.111  -4.611  0.00  0.00    +0.003 C 
ATOM     36  H   UNL     1      -2.720  -4.992  -5.273  0.00  0.00    -0.086 HD
ATOM     37  H   UNL     1      -2.696  -3.687  -6.277  0.00  0.00    -0.086 HD
ENDBRANCH  28  30
ENDBRANCH   3  28
TORSDOF 4
