REMARK  Name = CHEMBL262608
REMARK  8 active torsions:
REMARK  status: ('A' for Active; 'I' for Inactive)
REMARK    1  A    between atoms: C_1  and  C_2
REMARK    2  A    between atoms: C_2  and  N_3
REMARK    3  A    between atoms: C_4  and  C_6
REMARK    4  A    between atoms: C_10  and  C_11
REMARK    5  A    between atoms: N_16  and  C_17
REMARK    6  A    between atoms: C_19  and  N_24
REMARK    7  A    between atoms: C_22  and  C_23
REMARK    8  A    between atoms: C_25  and  C_27
REMARK                            x       y       z     vdW  Elec       q    Type
REMARK                         _______ _______ _______ _____ _____    ______ ____
ROOT
ATOM      1  C   UNL     1      -6.085  -6.150   0.736  0.00  0.00    +0.037 A 
ATOM      2  C   UNL     1      -7.359  -5.597   0.720  0.00  0.00    +0.046 A 
ATOM      3  C   UNL     1      -8.470  -6.425   0.652  0.00  0.00    +0.035 A 
ATOM      4  C   UNL     1      -8.305  -7.804   0.600  0.00  0.00    +0.024 A 
ATOM      5  C   UNL     1      -7.036  -8.351   0.616  0.00  0.00    +0.007 A 
ATOM      6  C   UNL     1      -5.927  -7.529   0.677  0.00  0.00    -0.029 A 
ATOM      7  C   UNL     1      -4.545  -8.129   0.688  0.00  0.00    +0.045 C 
ENDROOT
BRANCH   1  18
ATOM      8  C   UNL     1      -2.038  -2.045   1.081  0.00  0.00    +0.060 A 
ATOM      9  C   UNL     1      -2.988  -1.197   1.626  0.00  0.00    +0.126 A 
ATOM     10  N   UNL     1      -4.150  -1.859   1.728  0.00  0.00    -0.234 N 
ATOM     11  C   UNL     1      -3.978  -3.146   1.253  0.00  0.00    +0.109 A 
ATOM     12  C   UNL     1      -2.672  -3.282   0.840  0.00  0.00    -0.008 A 
ATOM     13  C   UNL     1      -2.041  -4.515   0.247  0.00  0.00    +0.047 C 
ATOM     14  C   UNL     1      -5.089  -4.026   1.270  0.00  0.00    +0.151 A 
ATOM     15  N   UNL     1      -6.248  -3.592   1.735  0.00  0.00    -0.217 NA
ATOM     16  C   UNL     1      -6.397  -2.349   2.189  0.00  0.00    +0.245 A 
ATOM     17  N   UNL     1      -5.417  -1.489   2.203  0.00  0.00    -0.155 NA
ATOM     18  N   UNL     1      -4.963  -5.319   0.805  0.00  0.00    -0.297 N 
ATOM     19  H   UNL     1      -4.096  -5.652   0.526  0.00  0.00    +0.154 HD
BRANCH   8  21
ATOM     20  N   UNL     1      -0.156  -0.485   1.081  0.00  0.00    -0.312 N 
ATOM     21  C   UNL     1      -0.629  -1.715   0.798  0.00  0.00    +0.246 C 
ATOM     22  O   UNL     1       0.105  -2.552   0.310  0.00  0.00    -0.270 OA
ATOM     23  H   UNL     1      -0.742   0.182   1.470  0.00  0.00    +0.149 HD
BRANCH  20  25
ATOM     24  C   UNL     1       1.521   1.290   1.212  0.00  0.00    +0.024 C 
ATOM     25  C   UNL     1       1.244  -0.157   0.801  0.00  0.00    +0.101 C 
ENDBRANCH  20  25
ENDBRANCH   8  21
ENDBRANCH   1  18
BRANCH   3  26
ATOM     26  N   UNL     1      -9.754  -5.873   0.637  0.00  0.00    -0.281 N 
ATOM     27  C   UNL     1     -10.782  -6.540   1.199  0.00  0.00    +0.248 C 
ATOM     28  O   UNL     1     -10.576  -7.571   1.808  0.00  0.00    -0.270 OA
ATOM     29  H   UNL     1      -9.906  -5.010   0.221  0.00  0.00    +0.155 HD
BRANCH  27  30
ATOM     30  C   UNL     1     -12.162  -6.017   1.073  0.00  0.00    +0.042 A 
ATOM     31  C   UNL     1     -12.421  -4.834   0.370  0.00  0.00    +0.033 A 
ATOM     32  C   UNL     1     -13.720  -4.379   0.275  0.00  0.00    +0.113 A 
ATOM     33  N   UNL     1     -14.714  -5.040   0.836  0.00  0.00    -0.240 NA
ATOM     34  C   UNL     1     -14.517  -6.162   1.510  0.00  0.00    +0.122 A 
ATOM     35  C   UNL     1     -13.239  -6.693   1.648  0.00  0.00    +0.056 A 
ATOM     36  N   UNL     1     -15.600  -6.819   2.082  0.00  0.00    -0.311 N 
ATOM     37  C   UNL     1     -16.981  -6.415   1.773  0.00  0.00    +0.134 C 
ATOM     38  C   UNL     1     -17.772  -7.665   1.370  0.00  0.00    +0.178 C 
ATOM     39  O   UNL     1     -17.614  -8.667   2.377  0.00  0.00    -0.377 OA
ATOM     40  C   UNL     1     -16.267  -9.116   2.551  0.00  0.00    +0.178 C 
ATOM     41  C   UNL     1     -15.400  -7.944   3.010  0.00  0.00    +0.134 C 
ENDBRANCH  27  30
ENDBRANCH   3  26
TORSDOF 5
