REMARK  Name = CHEMBL365614
REMARK  8 active torsions:
REMARK  status: ('A' for Active; 'I' for Inactive)
REMARK    1  A    between atoms: C_1  and  C_2
REMARK    2  A    between atoms: C_5  and  N_24
REMARK    3  A    between atoms: C_7  and  N_8
REMARK    4  A    between atoms: C_13  and  O_15
REMARK    5  A    between atoms: O_15  and  C_16
REMARK    6  A    between atoms: C_16  and  C_17
REMARK    7  A    between atoms: N_21  and  C_23
REMARK    8  A    between atoms: C_25  and  C_27
REMARK                            x       y       z     vdW  Elec       q    Type
REMARK                         _______ _______ _______ _____ _____    ______ ____
ROOT
ATOM      1  C   UNL     1      -0.179   1.497   0.058  0.00  0.00    +0.045 C 
ATOM      2  C   UNL     1       0.233   0.049  -0.006  0.00  0.00    -0.029 A 
ATOM      3  C   UNL     1       0.487  -0.543  -1.228  0.00  0.00    +0.007 A 
ATOM      4  C   UNL     1       0.866  -1.870  -1.291  0.00  0.00    +0.024 A 
ATOM      5  C   UNL     1       0.992  -2.614  -0.124  0.00  0.00    +0.035 A 
ATOM      6  C   UNL     1       0.738  -2.023   1.105  0.00  0.00    +0.046 A 
ATOM      7  C   UNL     1       0.363  -0.688   1.165  0.00  0.00    +0.037 A 
ENDROOT
BRANCH   7   8
ATOM      8  N   UNL     1       0.111  -0.087   2.402  0.00  0.00    -0.299 N 
ATOM      9  C   UNL     1      -0.378  -0.845   3.454  0.00  0.00    +0.130 A 
ATOM     10  C   UNL     1      -0.512  -0.287   4.728  0.00  0.00    +0.064 A 
ATOM     11  C   UNL     1      -1.004  -1.080   5.745  0.00  0.00    +0.119 A 
ATOM     12  N   UNL     1      -1.332  -2.338   5.485  0.00  0.00    -0.203 NA
ATOM     13  C   UNL     1      -1.194  -2.840   4.269  0.00  0.00    +0.320 A 
ATOM     14  N   UNL     1      -0.732  -2.113   3.265  0.00  0.00    -0.180 NA
ATOM     15  H   UNL     1       0.279   0.861   2.523  0.00  0.00    +0.154 HD
BRANCH  13  16
ATOM     16  O   UNL     1      -1.540  -4.130   4.045  0.00  0.00    -0.462 OA
BRANCH  16  17
ATOM     17  C   UNL     1      -2.039  -4.871   5.160  0.00  0.00    +0.234 C 
BRANCH  17  18
ATOM     18  C   UNL     1      -2.374  -6.297   4.716  0.00  0.00    +0.010 C 
ATOM     19  C   UNL     1      -1.089  -7.018   4.298  0.00  0.00    +0.003 C 
ATOM     20  C   UNL     1      -1.425  -8.466   3.931  0.00  0.00    -0.018 C 
ATOM     21  C   UNL     1      -2.110  -9.143   5.120  0.00  0.00    -0.079 C 
ATOM     22  N   UNL     1      -3.344  -8.423   5.453  0.00  0.00    +0.378 N 
ATOM     23  C   UNL     1      -3.024  -7.054   5.876  0.00  0.00    -0.072 C 
ATOM     24  C   UNL     1      -4.038  -9.121   6.544  0.00  0.00    -0.096 C 
ATOM     25  H   UNL     1      -3.944  -8.392   4.642  0.00  0.00    -0.082 HD
ENDBRANCH  17  18
ENDBRANCH  16  17
ENDBRANCH  13  16
ENDBRANCH   7   8
BRANCH   5  26
ATOM     26  N   UNL     1       1.375  -3.958  -0.189  0.00  0.00    -0.281 N 
ATOM     27  C   UNL     1       1.010  -4.712  -1.244  0.00  0.00    +0.248 C 
ATOM     28  O   UNL     1       0.271  -4.253  -2.093  0.00  0.00    -0.270 OA
ATOM     29  H   UNL     1       1.903  -4.346   0.526  0.00  0.00    +0.155 HD
BRANCH  27  30
ATOM     30  C   UNL     1       1.510  -6.101  -1.370  0.00  0.00    +0.042 A 
ATOM     31  C   UNL     1       2.357  -6.651  -0.400  0.00  0.00    +0.033 A 
ATOM     32  C   UNL     1       2.802  -7.947  -0.552  0.00  0.00    +0.113 A 
ATOM     33  N   UNL     1       2.440  -8.672  -1.593  0.00  0.00    -0.240 NA
ATOM     34  C   UNL     1       1.641  -8.195  -2.534  0.00  0.00    +0.122 A 
ATOM     35  C   UNL     1       1.144  -6.899  -2.454  0.00  0.00    +0.056 A 
ATOM     36  N   UNL     1       1.291  -9.001  -3.612  0.00  0.00    -0.311 N 
ATOM     37  C   UNL     1       1.613 -10.437  -3.620  0.00  0.00    +0.134 C 
ATOM     38  C   UNL     1       0.338 -11.215  -3.968  0.00  0.00    +0.178 C 
ATOM     39  O   UNL     1      -0.225 -10.684  -5.169  0.00  0.00    -0.377 OA
ATOM     40  C   UNL     1      -0.636  -9.318  -5.069  0.00  0.00    +0.178 C 
ATOM     41  C   UNL     1       0.583  -8.444  -4.776  0.00  0.00    +0.134 C 
ENDBRANCH  27  30
ENDBRANCH   5  26
TORSDOF 6
