REMARK  Name = CHEMBL563097
REMARK  8 active torsions:
REMARK  status: ('A' for Active; 'I' for Inactive)
REMARK    1  A    between atoms: C_1  and  C_2
REMARK    2  A    between atoms: C_5  and  C_28
REMARK    3  A    between atoms: C_7  and  N_8
REMARK    4  A    between atoms: N_8  and  C_9
REMARK    5  A    between atoms: N_13  and  C_27
REMARK    6  A    between atoms: N_18  and  C_19
REMARK    7  A    between atoms: N_30  and  O_31
REMARK    8  A    between atoms: O_31  and  C_32
REMARK                            x       y       z     vdW  Elec       q    Type
REMARK                         _______ _______ _______ _____ _____    ______ ____
ROOT
ATOM      1  C   UNL     1      -1.389  -0.503   3.560  0.00  0.00    +0.049 A 
ATOM      2  C   UNL     1      -2.240  -1.593   3.622  0.00  0.00    +0.094 A 
ATOM      3  C   UNL     1      -2.530  -2.176   4.858  0.00  0.00    +0.254 A 
ATOM      4  O   UNL     1      -3.282  -3.137   4.901  0.00  0.00    -0.268 OA
ATOM      5  N   UNL     1      -2.002  -1.707   6.001  0.00  0.00    -0.296 N 
ATOM      6  C   UNL     1      -1.153  -0.631   6.009  0.00  0.00    +0.149 A 
ATOM      7  C   UNL     1      -0.815  -0.003   4.811  0.00  0.00    +0.059 A 
ATOM      8  C   UNL     1       0.068   1.052   5.125  0.00  0.00    +0.146 A 
ATOM      9  N   UNL     1       0.255   1.058   6.416  0.00  0.00    -0.172 NA
ATOM     10  N   UNL     1      -0.496   0.029   6.998  0.00  0.00    -0.213 N 
ATOM     11  C   UNL     1      -2.342  -2.360   7.267  0.00  0.00    +0.154 C 
ENDROOT
BRANCH  10  12
ATOM     12  C   UNL     1      -0.549  -0.276   8.366  0.00  0.00    +0.103 A 
ATOM     13  C   UNL     1       0.344  -1.190   8.909  0.00  0.00    +0.033 A 
ATOM     14  C   UNL     1       0.290  -1.490  10.256  0.00  0.00    +0.040 A 
ATOM     15  C   UNL     1      -0.653  -0.880  11.066  0.00  0.00    +0.126 A 
ATOM     16  C   UNL     1      -1.544   0.032  10.528  0.00  0.00    +0.078 A 
ATOM     17  C   UNL     1      -1.491   0.340   9.181  0.00  0.00    +0.151 A 
ATOM     18  F   UNL     1      -2.358   1.234   8.656  0.00  0.00    -0.203 F 
ATOM     19  F   UNL     1      -0.702  -1.175  12.384  0.00  0.00    -0.205 F 
ENDBRANCH  10  12
BRANCH   1  20
ATOM     20  N   UNL     1      -1.085   0.092   2.352  0.00  0.00    -0.314 N 
ATOM     21  H   UNL     1      -0.670  -0.428   1.646  0.00  0.00    +0.152 HD
BRANCH  20  28
ATOM     22  C   UNL     1      -0.176   1.305  -0.052  0.00  0.00    +0.045 C 
ATOM     23  C   UNL     1      -0.951   2.077   0.985  0.00  0.00    -0.029 A 
ATOM     24  C   UNL     1      -1.241   3.413   0.774  0.00  0.00    +0.006 A 
ATOM     25  C   UNL     1      -1.949   4.127   1.718  0.00  0.00    +0.013 A 
ATOM     26  C   UNL     1      -2.376   3.502   2.891  0.00  0.00    +0.040 A 
ATOM     27  C   UNL     1      -2.084   2.155   3.104  0.00  0.00    +0.036 A 
ATOM     28  C   UNL     1      -1.376   1.444   2.146  0.00  0.00    +0.035 A 
BRANCH  26  29
ATOM     29  C   UNL     1      -3.135   4.265   3.905  0.00  0.00    +0.267 C 
ATOM     30  O   UNL     1      -3.506   3.719   4.926  0.00  0.00    -0.268 OA
ATOM     31  N   UNL     1      -3.416   5.567   3.697  0.00  0.00    -0.191 N 
ATOM     32  H   UNL     1      -3.120   6.003   2.883  0.00  0.00    +0.183 HD
BRANCH  31  33
ATOM     33  O   UNL     1      -4.143   6.298   4.668  0.00  0.00    -0.283 OA
ATOM     34  C   UNL     1      -4.368   7.665   4.318  0.00  0.00    +0.226 C 
ENDBRANCH  31  33
ENDBRANCH  26  29
ENDBRANCH  20  28
ENDBRANCH   1  20
TORSDOF 5
