REMARK  Name = CHEMBL187378
REMARK  14 active torsions:
REMARK  status: ('A' for Active; 'I' for Inactive)
REMARK    1  A    between atoms: C_1  and  C_2
REMARK    2  A    between atoms: C_2  and  O_3
REMARK    3  A    between atoms: O_3  and  C_4
REMARK    4  A    between atoms: C_7  and  C_13
REMARK    5  A    between atoms: C_9  and  O_10
REMARK    6  A    between atoms: O_10  and  C_11
REMARK    7  A    between atoms: C_11  and  C_12
REMARK    8  A    between atoms: N_15  and  C_16
REMARK    9  A    between atoms: C_18  and  N_23
REMARK   10  A    between atoms: C_21  and  C_22
REMARK   11  A    between atoms: C_24  and  C_26
REMARK   12  A    between atoms: C_30  and  N_32
REMARK   13  A    between atoms: N_32  and  C_33
REMARK   14  A    between atoms: N_32  and  C_34
REMARK                            x       y       z     vdW  Elec       q    Type
REMARK                         _______ _______ _______ _____ _____    ______ ____
ROOT
ATOM      1  C   UNL     1       0.794  -8.229   0.988  0.00  0.00    +0.038 A 
ATOM      2  C   UNL     1       1.439  -8.714   2.118  0.00  0.00    +0.047 A 
ATOM      3  C   UNL     1       1.671 -10.076   2.249  0.00  0.00    +0.035 A 
ATOM      4  C   UNL     1       1.257 -10.949   1.251  0.00  0.00    +0.024 A 
ATOM      5  C   UNL     1       0.615 -10.463   0.128  0.00  0.00    +0.007 A 
ATOM      6  C   UNL     1       0.378  -9.108  -0.004  0.00  0.00    -0.029 A 
ATOM      7  C   UNL     1      -0.328  -8.583  -1.227  0.00  0.00    +0.045 C 
ENDROOT
BRANCH   1  10
ATOM      8  C   UNL     1       0.479  -6.075   1.946  0.00  0.00    +0.248 C 
ATOM      9  O   UNL     1       0.507  -6.575   3.054  0.00  0.00    -0.270 OA
ATOM     10  N   UNL     1       0.559  -6.857   0.852  0.00  0.00    -0.281 N 
ATOM     11  H   UNL     1       0.454  -6.469  -0.031  0.00  0.00    +0.155 HD
BRANCH   8  15
ATOM     12  C   UNL     1       0.127  -1.861   1.519  0.00  0.00    +0.162 A 
ATOM     13  C   UNL     1       0.210  -2.669   0.393  0.00  0.00    +0.050 A 
ATOM     14  C   UNL     1       0.325  -4.035   0.528  0.00  0.00    +0.017 A 
ATOM     15  C   UNL     1       0.357  -4.611   1.800  0.00  0.00    +0.041 A 
ATOM     16  C   UNL     1       0.273  -3.799   2.934  0.00  0.00    +0.062 A 
ATOM     17  C   UNL     1       0.164  -2.429   2.792  0.00  0.00    +0.163 A 
BRANCH  12  18
ATOM     18  O   UNL     1       0.014  -0.515   1.381  0.00  0.00    -0.489 OA
BRANCH  18  20
ATOM     19  C   UNL     1      -0.147   1.524   0.093  0.00  0.00    +0.048 C 
ATOM     20  C   UNL     1      -0.018  -0.000   0.048  0.00  0.00    +0.226 C 
ENDBRANCH  18  20
ENDBRANCH  12  18
BRANCH  17  21
ATOM     21  O   UNL     1       0.087  -1.635   3.893  0.00  0.00    -0.489 OA
BRANCH  21  22
ATOM     22  C   UNL     1       0.131  -2.284   5.165  0.00  0.00    +0.226 C 
ATOM     23  C   UNL     1       0.033  -1.237   6.276  0.00  0.00    +0.048 C 
ENDBRANCH  21  22
ENDBRANCH  17  21
ENDBRANCH   8  15
ENDBRANCH   1  10
BRANCH   3  24
ATOM     24  N   UNL     1       2.321 -10.569   3.385  0.00  0.00    -0.281 N 
ATOM     25  C   UNL     1       2.105 -11.837   3.788  0.00  0.00    +0.248 C 
ATOM     26  O   UNL     1       1.270 -12.519   3.227  0.00  0.00    -0.270 OA
ATOM     27  H   UNL     1       2.926  -9.998   3.884  0.00  0.00    +0.155 HD
BRANCH  25  28
ATOM     28  C   UNL     1       2.885 -12.398   4.911  0.00  0.00    +0.039 A 
ATOM     29  C   UNL     1       3.841 -11.615   5.561  0.00  0.00    +0.013 A 
ATOM     30  C   UNL     1       4.567 -12.141   6.609  0.00  0.00    +0.003 A 
ATOM     31  C   UNL     1       4.353 -13.443   7.020  0.00  0.00    +0.023 A 
ATOM     32  C   UNL     1       3.403 -14.231   6.381  0.00  0.00    +0.030 A 
ATOM     33  C   UNL     1       2.664 -13.710   5.330  0.00  0.00    +0.036 A 
BRANCH  32  34
ATOM     34  N   UNL     1       3.190 -15.547   6.800  0.00  0.00    -0.336 N 
ATOM     35  C   UNL     1       3.884 -16.060   7.983  0.00  0.00    +0.129 C 
ATOM     36  C   UNL     1       2.273 -16.414   6.055  0.00  0.00    +0.129 C 
ENDBRANCH  32  34
ENDBRANCH  25  28
ENDBRANCH   3  24
TORSDOF 9
