REMARK  Name = CHEMBL399167
REMARK  9 active torsions:
REMARK  status: ('A' for Active; 'I' for Inactive)
REMARK    1  A    between atoms: C_1  and  N_2
REMARK    2  A    between atoms: N_2  and  C_3
REMARK    3  A    between atoms: N_2  and  C_4
REMARK    4  A    between atoms: C_4  and  C_5
REMARK    5  A    between atoms: C_5  and  N_6
REMARK    6  A    between atoms: C_7  and  C_9
REMARK    7  A    between atoms: C_12  and  C_15
REMARK    8  A    between atoms: C_19  and  N_25
REMARK    9  A    between atoms: N_25  and  C_26
REMARK                            x       y       z     vdW  Elec       q    Type
REMARK                         _______ _______ _______ _____ _____    ______ ____
ROOT
ATOM      1  C   UNL     1      -8.226  -5.763  -0.390  0.00  0.00    +0.073 A 
ATOM      2  C   UNL     1      -8.777  -6.786  -1.168  0.00  0.00    +0.027 A 
ATOM      3  C   UNL     1      -8.256  -7.730  -2.071  0.00  0.00    +0.014 A 
ATOM      4  C   UNL     1      -9.091  -8.612  -2.677  0.00  0.00    +0.024 A 
ATOM      5  C   UNL     1     -10.470  -8.609  -2.425  0.00  0.00    +0.033 A 
ATOM      6  C   UNL     1     -11.037  -7.719  -1.561  0.00  0.00    +0.053 A 
ATOM      7  C   UNL     1     -10.221  -6.777  -0.900  0.00  0.00    +0.095 A 
ATOM      8  N   UNL     1     -10.447  -5.808  -0.029  0.00  0.00    -0.173 NA
ATOM      9  H   UNL     1      -9.138  -4.447   0.916  0.00  0.00    +0.189 HD
ATOM     10  N   UNL     1      -9.236  -5.185   0.295  0.00  0.00    -0.276 N 
ENDROOT
BRANCH   1  14
ATOM     11  C   UNL     1      -4.132  -4.686  -0.200  0.00  0.00    +0.037 A 
ATOM     12  C   UNL     1      -5.111  -3.694  -0.314  0.00  0.00    +0.014 A 
ATOM     13  C   UNL     1      -6.431  -4.041  -0.375  0.00  0.00    +0.011 A 
ATOM     14  C   UNL     1      -6.803  -5.389  -0.325  0.00  0.00    +0.000 A 
ATOM     15  C   UNL     1      -5.822  -6.381  -0.211  0.00  0.00    +0.011 A 
ATOM     16  C   UNL     1      -4.503  -6.033  -0.156  0.00  0.00    +0.014 A 
BRANCH  11  18
ATOM     17  N   UNL     1      -2.349  -3.012  -0.177  0.00  0.00    -0.313 N 
ATOM     18  C   UNL     1      -2.707  -4.311  -0.134  0.00  0.00    +0.244 C 
ATOM     19  O   UNL     1      -1.855  -5.173  -0.040  0.00  0.00    -0.270 OA
ATOM     20  H   UNL     1      -3.028  -2.324  -0.252  0.00  0.00    +0.149 HD
BRANCH  17  21
ATOM     21  C   UNL     1      -0.933  -2.639  -0.111  0.00  0.00    +0.086 C 
BRANCH  21  22
ATOM     22  C   UNL     1      -0.803  -1.117  -0.178  0.00  0.00    -0.061 C 
BRANCH  22  24
ATOM     23  C   UNL     1       0.750   0.708  -0.297  0.00  0.00    -0.097 C 
ATOM     24  N   UNL     1       0.616  -0.743  -0.112  0.00  0.00    +0.377 N 
ATOM     25  C   UNL     1       1.161  -1.122   1.198  0.00  0.00    -0.097 C 
ATOM     26  H   UNL     1       1.125  -1.223  -0.840  0.00  0.00    -0.083 HD
ENDBRANCH  22  24
ENDBRANCH  21  22
ENDBRANCH  17  21
ENDBRANCH  11  18
ENDBRANCH   1  14
BRANCH   5  27
ATOM     27  N   UNL     1     -11.284  -9.539  -3.076  0.00  0.00    -0.313 N 
ATOM     28  H   UNL     1     -12.138  -9.263  -3.445  0.00  0.00    +0.152 HD
BRANCH  27  29
ATOM     29  C   UNL     1     -10.868 -10.868  -3.197  0.00  0.00    +0.050 A 
ATOM     30  C   UNL     1      -9.726 -11.303  -2.537  0.00  0.00    +0.025 A 
ATOM     31  C   UNL     1      -9.318 -12.617  -2.658  0.00  0.00    +0.002 A 
ATOM     32  C   UNL     1     -10.045 -13.500  -3.435  0.00  0.00    +0.002 A 
ATOM     33  C   UNL     1     -11.182 -13.071  -4.095  0.00  0.00    +0.022 A 
ATOM     34  C   UNL     1     -11.600 -11.759  -3.973  0.00  0.00    +0.062 A 
ATOM     35 CL   UNL     1     -13.032 -11.224  -4.795  0.00  0.00    -0.082 Cl
ENDBRANCH  27  29
ENDBRANCH   5  27
TORSDOF 7
