REMARK  Name = CHEMBL396522
REMARK  3 active torsions:
REMARK  status: ('A' for Active; 'I' for Inactive)
REMARK    1  A    between atoms: C_1  and  N_2
REMARK    2  A    between atoms: C_9  and  C_11
REMARK    3  A    between atoms: N_20  and  C_21
REMARK                            x       y       z     vdW  Elec       q    Type
REMARK                         _______ _______ _______ _____ _____    ______ ____
ROOT
ATOM      1  C   UNL     1      -0.044  -3.866   3.919  0.00  0.00    +0.248 C 
ATOM      2  O   UNL     1       0.002  -3.572   5.098  0.00  0.00    -0.270 OA
ATOM      3  N   UNL     1      -0.091  -5.160   3.548  0.00  0.00    -0.293 N 
ATOM      4  C   UNL     1      -0.188  -6.229   4.553  0.00  0.00    +0.114 C 
ATOM      5  C   UNL     1      -1.528  -6.957   4.387  0.00  0.00    +0.075 C 
ATOM      6  C   UNL     1      -1.753  -7.232   2.922  0.00  0.00    +0.051 A 
ATOM      7  C   UNL     1      -1.101  -6.601   1.912  0.00  0.00    +0.011 A 
ATOM      8  C   UNL     1      -1.574  -7.111   0.705  0.00  0.00    +0.140 A 
ATOM      9  N   UNL     1      -2.480  -8.021   0.975  0.00  0.00    -0.174 NA
ATOM     10  N   UNL     1      -2.607  -8.115   2.369  0.00  0.00    -0.235 N 
ATOM     11  C   UNL     1      -0.054  -5.540   2.124  0.00  0.00    +0.146 C 
ENDROOT
BRANCH   1  20
ATOM     12  C   UNL     1      -0.617   1.268  -0.376  0.00  0.00    +0.149 C 
ATOM     13  N   UNL     1       0.141   0.047  -0.091  0.00  0.00    -0.350 N 
ATOM     14  C   UNL     1       1.178  -0.429  -0.848  0.00  0.00    +0.086 A 
ATOM     15  C   UNL     1       1.653  -1.564  -0.313  0.00  0.00    +0.027 A 
ATOM     16  C   UNL     1       0.855  -1.838   0.885  0.00  0.00    +0.001 A 
ATOM     17  C   UNL     1      -0.080  -0.787   0.979  0.00  0.00    +0.050 A 
ATOM     18  C   UNL     1      -0.989  -0.765   2.034  0.00  0.00    +0.047 A 
ATOM     19  C   UNL     1      -0.974  -1.754   2.974  0.00  0.00    +0.055 A 
ATOM     20  C   UNL     1      -0.047  -2.804   2.893  0.00  0.00    +0.056 A 
ATOM     21  C   UNL     1       0.865  -2.848   1.843  0.00  0.00    +0.024 A 
ATOM     22 CL   UNL     1      -2.114  -1.712   4.283  0.00  0.00    -0.083 Cl
ENDBRANCH   1  20
BRANCH  10  23
ATOM     23  C   UNL     1      -3.470  -8.974   3.063  0.00  0.00    +0.084 A 
ATOM     24  C   UNL     1      -4.260  -8.483   4.094  0.00  0.00    +0.029 A 
ATOM     25  C   UNL     1      -5.109  -9.332   4.776  0.00  0.00    +0.002 A 
ATOM     26  C   UNL     1      -5.174 -10.671   4.434  0.00  0.00    +0.002 A 
ATOM     27  C   UNL     1      -4.390 -11.163   3.408  0.00  0.00    +0.022 A 
ATOM     28  C   UNL     1      -3.542 -10.318   2.717  0.00  0.00    +0.066 A 
ATOM     29 CL   UNL     1      -2.562 -10.935   1.424  0.00  0.00    -0.081 Cl
ENDBRANCH  10  23
TORSDOF 2
