REMARK  Name = CHEMBL1209639
REMARK  11 active torsions:
REMARK  status: ('A' for Active; 'I' for Inactive)
REMARK    1  A    between atoms: C_1  and  C_2
REMARK    2  A    between atoms: C_2  and  C_3
REMARK    3  A    between atoms: C_2  and  C_4
REMARK    4  A    between atoms: C_2  and  C_5
REMARK    5  A    between atoms: C_7  and  N_30
REMARK    6  A    between atoms: N_8  and  C_10
REMARK    7  A    between atoms: C_14  and  C_16
REMARK    8  A    between atoms: C_16  and  N_17
REMARK    9  A    between atoms: C_18  and  C_20
REMARK   10  A    between atoms: C_25  and  C_27
REMARK   11  A    between atoms: N_33  and  C_34
REMARK                            x       y       z     vdW  Elec       q    Type
REMARK                         _______ _______ _______ _____ _____    ______ ____
ROOT
ATOM      1  C   UNL     1       0.252  -0.197  -1.498  0.00  0.00    +0.071 A 
ATOM      2  C   UNL     1       1.642  -0.198  -1.644  0.00  0.00    +0.069 A 
ATOM      3  C   UNL     1       1.939  -0.834  -2.811  0.00  0.00    +0.130 A 
ATOM      4  N   UNL     1       0.763  -1.219  -3.376  0.00  0.00    -0.218 N 
ATOM      5  N   UNL     1      -0.274  -0.810  -2.528  0.00  0.00    -0.169 NA
ENDROOT
BRANCH   4   6
ATOM      6  C   UNL     1       0.616  -1.907  -4.588  0.00  0.00    +0.068 A 
ATOM      7  C   UNL     1       1.489  -1.659  -5.640  0.00  0.00    +0.028 A 
ATOM      8  C   UNL     1       1.341  -2.338  -6.833  0.00  0.00    +0.002 A 
ATOM      9  C   UNL     1       0.325  -3.265  -6.982  0.00  0.00    +0.005 A 
ATOM     10  C   UNL     1      -0.546  -3.513  -5.937  0.00  0.00    -0.028 A 
ATOM     11  C   UNL     1      -0.400  -2.841  -4.739  0.00  0.00    +0.033 A 
BRANCH  10  12
ATOM     12  C   UNL     1      -1.652  -4.524  -6.104  0.00  0.00    +0.139 C 
BRANCH  12  13
ATOM     13  N   UNL     1      -1.171  -5.846  -5.695  0.00  0.00    -0.311 N 
ATOM     14  C   UNL     1      -1.994  -6.911  -5.759  0.00  0.00    +0.217 C 
ATOM     15  O   UNL     1      -3.132  -6.776  -6.155  0.00  0.00    -0.275 OA
ATOM     16  H   UNL     1      -0.261  -5.954  -5.378  0.00  0.00    +0.149 HD
BRANCH  14  17
ATOM     17  C   UNL     1      -1.500  -8.271  -5.338  0.00  0.00    +0.093 C 
ATOM     18  C   UNL     1      -2.638  -9.050  -4.676  0.00  0.00    +0.040 C 
ATOM     19  C   UNL     1      -3.665  -9.436  -5.701  0.00  0.00    -0.030 C 
ATOM     20  C   UNL     1      -3.452  -9.433  -6.978  0.00  0.00    -0.030 C 
ATOM     21  C   UNL     1      -2.151  -9.035  -7.612  0.00  0.00    +0.042 C 
ATOM     22  C   UNL     1      -1.030  -9.053  -6.572  0.00  0.00    +0.118 C 
BRANCH  22  23
ATOM     23  C   UNL     1       0.203  -8.402  -7.145  0.00  0.00    +0.360 C 
ATOM     24  O   UNL     1       1.118  -9.092  -7.561  0.00  0.00    -0.246 OA
ATOM     25  O   UNL     1       0.285  -7.187  -7.191  0.00  0.00    -0.246 OA
ENDBRANCH  22  23
ENDBRANCH  14  17
ENDBRANCH  12  13
ENDBRANCH  10  12
ENDBRANCH   4   6
BRANCH   3  26
ATOM     26  N   UNL     1       3.215  -1.050  -3.330  0.00  0.00    -0.254 N 
ATOM     27  C   UNL     1       4.299  -0.612  -2.660  0.00  0.00    +0.309 C 
ATOM     28  O   UNL     1       4.165  -0.028  -1.603  0.00  0.00    -0.252 OA
ATOM     29  N   UNL     1       5.532  -0.822  -3.163  0.00  0.00    -0.269 N 
ATOM     30  H   UNL     1       3.322  -1.517  -4.174  0.00  0.00    +0.158 HD
ATOM     31  H   UNL     1       5.637  -1.213  -4.044  0.00  0.00    +0.156 HD
BRANCH  29  32
ATOM     32  C   UNL     1       6.662  -0.474  -2.413  0.00  0.00    +0.035 A 
ATOM     33  C   UNL     1       6.648  -0.609  -1.031  0.00  0.00    +0.023 A 
ATOM     34  C   UNL     1       7.764  -0.266  -0.294  0.00  0.00    +0.002 A 
ATOM     35  C   UNL     1       8.895   0.212  -0.931  0.00  0.00    +0.000 A 
ATOM     36  C   UNL     1       8.912   0.348  -2.307  0.00  0.00    +0.002 A 
ATOM     37  C   UNL     1       7.800   0.001  -3.051  0.00  0.00    +0.023 A 
ENDBRANCH  29  32
ENDBRANCH   3  26
BRANCH   1  39
ATOM     38  C   UNL     1      -0.526   1.927  -0.482  0.00  0.00    +0.017 C 
ATOM     39  C   UNL     1      -0.512   0.403  -0.346  0.00  0.00    +0.006 C 
ATOM     40  C   UNL     1       0.163   0.015   0.971  0.00  0.00    +0.017 C 
ATOM     41  C   UNL     1      -1.948  -0.123  -0.357  0.00  0.00    +0.017 C 
ENDBRANCH   1  39
TORSDOF 8
