REMARK  Name = CHEMBL425393
REMARK  8 active torsions:
REMARK  status: ('A' for Active; 'I' for Inactive)
REMARK    1  A    between atoms: C_1  and  O_2
REMARK    2  A    between atoms: O_2  and  C_3
REMARK    3  A    between atoms: C_6  and  C_28
REMARK    4  A    between atoms: C_8  and  C_9
REMARK    5  A    between atoms: C_13  and  N_19
REMARK    6  A    between atoms: N_19  and  C_20
REMARK    7  A    between atoms: C_28  and  N_29
REMARK    8  A    between atoms: N_29  and  C_30
REMARK                            x       y       z     vdW  Elec       q    Type
REMARK                         _______ _______ _______ _____ _____    ______ ____
ROOT
ATOM      1  C   UNL     1       0.004  -2.699   0.007  0.00  0.00    +0.105 A 
ATOM      2  C   UNL     1      -0.607  -4.028  -0.086  0.00  0.00    +0.046 A 
ATOM      3  C   UNL     1      -0.943  -4.873  -1.151  0.00  0.00    +0.017 A 
ATOM      4  C   UNL     1      -1.517  -6.081  -0.864  0.00  0.00    +0.044 A 
ATOM      5  C   UNL     1      -1.750  -6.434   0.467  0.00  0.00    +0.125 A 
ATOM      6  N   UNL     1      -1.428  -5.623   1.460  0.00  0.00    -0.213 NA
ATOM      7  C   UNL     1      -0.867  -4.440   1.234  0.00  0.00    +0.158 A 
ATOM      8  N   UNL     1      -0.442  -3.430   2.054  0.00  0.00    -0.260 N 
ATOM      9  N   UNL     1       0.086  -2.393   1.279  0.00  0.00    -0.171 NA
ATOM     10  H   UNL     1      -0.495  -3.435   3.022  0.00  0.00    +0.191 HD
ENDROOT
BRANCH   1  16
ATOM     11  C   UNL     1       0.115  -0.502  -1.175  0.00  0.00    +0.129 A 
ATOM     12  C   UNL     1       0.544   0.277  -2.237  0.00  0.00    +0.046 A 
ATOM     13  C   UNL     1       1.298  -0.286  -3.249  0.00  0.00    +0.005 A 
ATOM     14  C   UNL     1       1.630  -1.629  -3.208  0.00  0.00    -0.064 A 
ATOM     15  C   UNL     1       1.210  -2.417  -2.156  0.00  0.00    +0.015 A 
ATOM     16  C   UNL     1       0.453  -1.859  -1.128  0.00  0.00    +0.045 A 
BRANCH  11  18
ATOM     17  C   UNL     1      -0.828   1.464  -0.229  0.00  0.00    +0.277 C 
ATOM     18  O   UNL     1      -0.627   0.050  -0.180  0.00  0.00    -0.494 OA
ENDBRANCH  11  18
BRANCH  14  19
ATOM     19  C   UNL     1       2.453  -2.233  -4.317  0.00  0.00    -0.046 C 
BRANCH  19  20
ATOM     20  N   UNL     1       3.880  -2.122  -3.985  0.00  0.00    +0.384 N 
ATOM     21  H   UNL     1       4.125  -1.149  -3.876  0.00  0.00    -0.085 HD
ATOM     22  H   UNL     1       4.064  -2.614  -3.123  0.00  0.00    -0.085 HD
BRANCH  20  23
ATOM     23  C   UNL     1       4.681  -2.710  -5.066  0.00  0.00    -0.071 C 
ATOM     24  C   UNL     1       4.463  -4.237  -5.115  0.00  0.00    -0.016 C 
ATOM     25  C   UNL     1       5.856  -4.809  -5.476  0.00  0.00    -0.002 C 
ATOM     26  C   UNL     1       6.818  -3.890  -4.683  0.00  0.00    -0.002 C 
ATOM     27  C   UNL     1       6.179  -2.490  -4.791  0.00  0.00    -0.016 C 
ENDBRANCH  20  23
ENDBRANCH  19  20
ENDBRANCH  14  19
ENDBRANCH   1  16
BRANCH   5  28
ATOM     28  N   UNL     1      -2.334  -7.661   0.753  0.00  0.00    -0.297 N 
ATOM     29  H   UNL     1      -2.490  -8.301   0.042  0.00  0.00    +0.154 HD
BRANCH  28  30
ATOM     30  C   UNL     1      -2.696  -7.974   2.069  0.00  0.00    +0.068 A 
ATOM     31  C   UNL     1      -2.903  -6.960   2.994  0.00  0.00    +0.029 A 
ATOM     32  C   UNL     1      -3.261  -7.271   4.291  0.00  0.00    +0.040 A 
ATOM     33  C   UNL     1      -3.414  -8.594   4.671  0.00  0.00    +0.126 A 
ATOM     34  C   UNL     1      -3.209  -9.608   3.752  0.00  0.00    +0.078 A 
ATOM     35  C   UNL     1      -2.856  -9.302   2.451  0.00  0.00    +0.147 A 
ATOM     36  F   UNL     1      -2.661 -10.292   1.552  0.00  0.00    -0.203 F 
ATOM     37  F   UNL     1      -3.763  -8.894   5.941  0.00  0.00    -0.205 F 
ENDBRANCH  28  30
ENDBRANCH   5  28
TORSDOF 7
