REMARK  Name = CHEMBL496130
REMARK  6 active torsions:
REMARK  status: ('A' for Active; 'I' for Inactive)
REMARK    1  A    between atoms: C_1  and  C_2
REMARK    2  A    between atoms: C_5  and  C_20
REMARK    3  A    between atoms: C_7  and  C_8
REMARK    4  A    between atoms: C_11  and  C_14
REMARK    5  A    between atoms: C_16  and  C_19
REMARK    6  A    between atoms: N_22  and  C_23
REMARK                            x       y       z     vdW  Elec       q    Type
REMARK                         _______ _______ _______ _____ _____    ______ ____
ROOT
ATOM      1  C   UNL     1      -0.018   1.503   0.010  0.00  0.00    +0.044 C 
ATOM      2  C   UNL     1       0.002  -0.004   0.002  0.00  0.00    -0.043 A 
ATOM      3  C   UNL     1       0.006  -0.686  -1.199  0.00  0.00    +0.005 A 
ATOM      4  C   UNL     1       0.024  -2.067  -1.216  0.00  0.00    +0.013 A 
ATOM      5  C   UNL     1       0.039  -2.781  -0.016  0.00  0.00    +0.037 A 
ATOM      6  C   UNL     1       0.036  -2.097   1.199  0.00  0.00    +0.021 A 
ATOM      7  C   UNL     1       0.023  -0.706   1.207  0.00  0.00    -0.014 A 
ENDROOT
BRANCH   7   8
ATOM      8  C   UNL     1       0.025   0.029   2.495  0.00  0.00    -0.018 A 
ATOM      9  C   UNL     1       0.935   1.065   2.705  0.00  0.00    +0.009 A 
ATOM     10  C   UNL     1       0.937   1.748   3.901  0.00  0.00    +0.012 A 
ATOM     11  C   UNL     1       0.029   1.403   4.902  0.00  0.00    +0.022 A 
ATOM     12  C   UNL     1      -0.880   0.367   4.693  0.00  0.00    +0.012 A 
ATOM     13  C   UNL     1      -0.886  -0.312   3.494  0.00  0.00    +0.009 A 
BRANCH  11  14
ATOM     14  C   UNL     1       0.032   2.139   6.191  0.00  0.00    +0.202 A 
ATOM     15  N   UNL     1      -0.786   1.899   7.232  0.00  0.00    -0.192 NA
ATOM     16  C   UNL     1      -0.520   2.723   8.206  0.00  0.00    +0.225 A 
ATOM     17  O   UNL     1       0.482   3.525   7.823  0.00  0.00    -0.338 OA
ATOM     18  N   UNL     1       0.834   3.126   6.506  0.00  0.00    -0.056 NA
ATOM     19  C   UNL     1      -1.222   2.767   9.538  0.00  0.00    +0.112 C 
ENDBRANCH  11  14
ENDBRANCH   7   8
BRANCH   5  20
ATOM     20  C   UNL     1       0.057  -4.260  -0.034  0.00  0.00    +0.244 C 
ATOM     21  O   UNL     1       0.070  -4.880   1.012  0.00  0.00    -0.270 OA
ATOM     22  N   UNL     1       0.060  -4.919  -1.209  0.00  0.00    -0.308 N 
ATOM     23  H   UNL     1       0.050  -4.424  -2.043  0.00  0.00    +0.149 HD
BRANCH  22  24
ATOM     24  C   UNL     1       0.078  -6.384  -1.227  0.00  0.00    +0.073 C 
ATOM     25  C   UNL     1       1.018  -7.067  -2.223  0.00  0.00    +0.024 C 
ATOM     26  C   UNL     1      -0.493  -7.083  -2.463  0.00  0.00    +0.024 C 
ENDBRANCH  22  24
ENDBRANCH   5  20
TORSDOF 4
