REMARK  Name = CHEMBL331252
REMARK  5 active torsions:
REMARK  status: ('A' for Active; 'I' for Inactive)
REMARK    1  A    between atoms: C_1  and  C_2
REMARK    2  A    between atoms: C_2  and  C_4
REMARK    3  A    between atoms: C_2  and  N_10
REMARK    4  A    between atoms: C_15  and  C_17
REMARK    5  A    between atoms: C_18  and  C_27
REMARK                            x       y       z     vdW  Elec       q    Type
REMARK                         _______ _______ _______ _____ _____    ______ ____
ROOT
ATOM      1  C   UNL     1       4.669  -1.604  -3.578  0.00  0.00    +0.101 A 
ATOM      2  C   UNL     1       4.117  -2.394  -4.578  0.00  0.00    +0.101 A 
ATOM      3  N   UNL     1       5.056  -2.595  -5.510  0.00  0.00    -0.210 NA
ATOM      4  C   UNL     1       6.177  -1.976  -5.158  0.00  0.00    +0.238 A 
ATOM      5  N   UNL     1       5.970  -1.343  -3.962  0.00  0.00    -0.281 N 
ATOM      6  C   UNL     1       6.973  -0.623  -3.378  0.00  0.00    +0.098 A 
ATOM      7  C   UNL     1       8.172  -0.540  -3.998  0.00  0.00    +0.061 A 
ATOM      8  C   UNL     1       8.356  -1.198  -5.231  0.00  0.00    +0.121 A 
ATOM      9  N   UNL     1       7.368  -1.893  -5.766  0.00  0.00    -0.197 NA
ATOM     10  N   UNL     1       9.574  -1.123  -5.878  0.00  0.00    -0.343 N 
ATOM     11  H   UNL     1      10.302  -0.617  -5.484  0.00  0.00    +0.144 HD
ATOM     12  H   UNL     1       9.702  -1.576  -6.726  0.00  0.00    +0.144 HD
ENDROOT
BRANCH   1  18
ATOM     13  N   UNL     1       0.688  -0.476  -1.203  0.00  0.00    -0.307 N 
ATOM     14  C   UNL     1       2.067  -0.590  -1.215  0.00  0.00    +0.216 A 
ATOM     15  N   UNL     1       2.750  -0.272  -0.125  0.00  0.00    -0.223 NA
ATOM     16  C   UNL     1       4.072  -0.366  -0.093  0.00  0.00    +0.116 A 
ATOM     17  C   UNL     1       4.746  -0.803  -1.216  0.00  0.00    +0.050 A 
ATOM     18  C   UNL     1       3.999  -1.134  -2.357  0.00  0.00    +0.095 A 
ATOM     19  N   UNL     1       2.669  -1.018  -2.313  0.00  0.00    -0.213 NA
ATOM     20  H   UNL     1       0.175  -0.710  -1.993  0.00  0.00    +0.149 HD
BRANCH  13  22
ATOM     21  C   UNL     1      -0.019   1.526   0.010  0.00  0.00    +0.033 C 
ATOM     22  C   UNL     1       0.002  -0.004   0.002  0.00  0.00    +0.100 C 
BRANCH  22  23
ATOM     23  C   UNL     1      -1.412  -0.526   0.013  0.00  0.00    -0.027 A 
ATOM     24  C   UNL     1      -2.141  -0.569  -1.161  0.00  0.00    +0.005 A 
ATOM     25  C   UNL     1      -3.438  -1.047  -1.151  0.00  0.00    +0.000 A 
ATOM     26  C   UNL     1      -4.005  -1.483   0.032  0.00  0.00    +0.000 A 
ATOM     27  C   UNL     1      -3.275  -1.441   1.205  0.00  0.00    +0.000 A 
ATOM     28  C   UNL     1      -1.977  -0.966   1.195  0.00  0.00    +0.005 A 
ENDBRANCH  22  23
ENDBRANCH  13  22
ENDBRANCH   1  18
BRANCH   2  29
ATOM     29  C   UNL     1       2.733  -2.921  -4.607  0.00  0.00    +0.003 A 
ATOM     30  C   UNL     1       2.100  -3.295  -3.422  0.00  0.00    +0.010 A 
ATOM     31  C   UNL     1       0.811  -3.784  -3.456  0.00  0.00    +0.001 A 
ATOM     32  C   UNL     1       0.146  -3.906  -4.663  0.00  0.00    +0.000 A 
ATOM     33  C   UNL     1       0.768  -3.538  -5.842  0.00  0.00    +0.001 A 
ATOM     34  C   UNL     1       2.055  -3.041  -5.820  0.00  0.00    +0.010 A 
ENDBRANCH   2  29
TORSDOF 4
