REMARK  Name = CHEMBL559462
REMARK  9 active torsions:
REMARK  status: ('A' for Active; 'I' for Inactive)
REMARK    1  A    between atoms: C_1  and  C_2
REMARK    2  A    between atoms: C_4  and  C_26
REMARK    3  A    between atoms: C_7  and  C_8
REMARK    4  A    between atoms: C_9  and  N_25
REMARK    5  A    between atoms: C_10  and  C_15
REMARK    6  A    between atoms: C_15  and  C_17
REMARK    7  A    between atoms: N_28  and  C_29
REMARK    8  A    between atoms: C_29  and  C_30
REMARK    9  A    between atoms: C_30  and  N_31
REMARK                            x       y       z     vdW  Elec       q    Type
REMARK                         _______ _______ _______ _____ _____    ______ ____
ROOT
ATOM      1  C   UNL     1      -0.110   1.264  -0.033  0.00  0.00    +0.044 C 
ATOM      2  C   UNL     1      -0.038  -0.239   0.053  0.00  0.00    -0.040 A 
ATOM      3  C   UNL     1      -0.032  -0.995  -1.098  0.00  0.00    +0.017 A 
ATOM      4  C   UNL     1       0.035  -2.388  -1.018  0.00  0.00    +0.037 A 
ATOM      5  C   UNL     1       0.095  -3.013   0.230  0.00  0.00    +0.014 A 
ATOM      6  C   UNL     1       0.088  -2.257   1.379  0.00  0.00    +0.011 A 
ATOM      7  C   UNL     1       0.028  -0.864   1.299  0.00  0.00    +0.007 A 
ENDROOT
BRANCH   7   8
ATOM      8  C   UNL     1       0.027  -0.051   2.536  0.00  0.00    +0.113 A 
ATOM      9  C   UNL     1      -1.188   0.271   3.156  0.00  0.00    +0.063 A 
ATOM     10  C   UNL     1      -1.163   1.045   4.331  0.00  0.00    +0.047 A 
ATOM     11  C   UNL     1       0.083   1.458   4.823  0.00  0.00    +0.035 A 
ATOM     12  C   UNL     1       1.229   1.095   4.148  0.00  0.00    +0.135 A 
ATOM     13  N   UNL     1       1.177   0.364   3.051  0.00  0.00    -0.137 N 
ATOM     14  O   UNL     1       2.385   0.015   2.401  0.00  0.00    -0.164 OA
BRANCH   9  15
ATOM     15  N   UNL     1      -2.390  -0.165   2.623  0.00  0.00    -0.356 N 
ATOM     16  H   UNL     1      -2.403  -0.635   1.775  0.00  0.00    +0.142 HD
ATOM     17  H   UNL     1      -3.220   0.000   3.099  0.00  0.00    +0.142 HD
ENDBRANCH   9  15
BRANCH  10  18
ATOM     18  C   UNL     1      -2.412   1.413   5.024  0.00  0.00    +0.198 C 
ATOM     19  O   UNL     1      -2.850   2.543   4.930  0.00  0.00    -0.286 OA
BRANCH  18  20
ATOM     20  C   UNL     1      -3.131   0.408   5.831  0.00  0.00    +0.058 A 
ATOM     21  C   UNL     1      -2.575  -0.859   6.033  0.00  0.00    +0.017 A 
ATOM     22  C   UNL     1      -3.250  -1.792   6.788  0.00  0.00    +0.039 A 
ATOM     23  C   UNL     1      -4.480  -1.479   7.348  0.00  0.00    +0.126 A 
ATOM     24  C   UNL     1      -5.039  -0.226   7.153  0.00  0.00    +0.077 A 
ATOM     25  C   UNL     1      -4.369   0.722   6.403  0.00  0.00    +0.137 A 
ATOM     26  F   UNL     1      -4.912   1.945   6.217  0.00  0.00    -0.205 F 
ATOM     27  F   UNL     1      -5.136  -2.400   8.087  0.00  0.00    -0.205 F 
ENDBRANCH  18  20
ENDBRANCH  10  18
ENDBRANCH   7   8
BRANCH   4  28
ATOM     28  C   UNL     1       0.041  -3.199  -2.252  0.00  0.00    +0.244 C 
ATOM     29  O   UNL     1      -0.012  -2.655  -3.338  0.00  0.00    -0.270 OA
ATOM     30  N   UNL     1       0.105  -4.543  -2.175  0.00  0.00    -0.313 N 
ATOM     31  H   UNL     1       0.147  -4.978  -1.308  0.00  0.00    +0.149 HD
BRANCH  30  32
ATOM     32  C   UNL     1       0.111  -5.348  -3.399  0.00  0.00    +0.086 C 
BRANCH  32  33
ATOM     33  C   UNL     1       0.189  -6.832  -3.034  0.00  0.00    -0.060 C 
BRANCH  33  34
ATOM     34  N   UNL     1       0.195  -7.639  -4.261  0.00  0.00    +0.384 N 
ATOM     35  C   UNL     1      -1.087  -7.478  -4.959  0.00  0.00    -0.050 C 
ATOM     36  C   UNL     1      -1.079  -8.320  -6.238  0.00  0.00    +0.141 C 
ATOM     37  O   UNL     1      -0.832  -9.688  -5.900  0.00  0.00    -0.383 OA
ATOM     38  C   UNL     1       0.397  -9.892  -5.197  0.00  0.00    +0.141 C 
ATOM     39  C   UNL     1       0.390  -9.054  -3.916  0.00  0.00    -0.050 C 
ATOM     40  H   UNL     1       0.946  -7.332  -4.861  0.00  0.00    -0.082 HD
ENDBRANCH  33  34
ENDBRANCH  32  33
ENDBRANCH  30  32
ENDBRANCH   4  28
TORSDOF 8
