REMARK  Name = CHEMBL408876
REMARK  5 active torsions:
REMARK  status: ('A' for Active; 'I' for Inactive)
REMARK    1  A    between atoms: C_4  and  N_7
REMARK    2  A    between atoms: C_12  and  C_14
REMARK    3  A    between atoms: C_15  and  C_26
REMARK    4  A    between atoms: N_18  and  C_19
REMARK    5  A    between atoms: C_22  and  O_25
REMARK                            x       y       z     vdW  Elec       q    Type
REMARK                         _______ _______ _______ _____ _____    ______ ____
ROOT
ATOM      1  C   UNL     1       6.161  -4.684   0.318  0.00  0.00    +0.093 A 
ATOM      2  C   UNL     1       7.401  -4.177  -0.031  0.00  0.00    +0.073 A 
ATOM      3  N   UNL     1       8.315  -5.121   0.254  0.00  0.00    -0.345 N 
ATOM      4  C   UNL     1       7.719  -6.169   0.753  0.00  0.00    +0.175 A 
ATOM      5  N   UNL     1       6.390  -5.946   0.818  0.00  0.00    -0.327 N 
ATOM      6  H   UNL     1       9.270  -5.036   0.111  0.00  0.00    +0.167 HD
ENDROOT
BRANCH   1  12
ATOM      7  N   UNL     1       3.556  -0.685   0.199  0.00  0.00    -0.284 N 
ATOM      8  C   UNL     1       3.607  -2.068   0.130  0.00  0.00    +0.220 A 
ATOM      9  N   UNL     1       2.483  -2.747  -0.053  0.00  0.00    -0.223 NA
ATOM     10  C   UNL     1       2.488  -4.069  -0.125  0.00  0.00    +0.116 A 
ATOM     11  C   UNL     1       3.686  -4.749  -0.007  0.00  0.00    +0.050 A 
ATOM     12  C   UNL     1       4.858  -4.006   0.186  0.00  0.00    +0.094 A 
ATOM     13  N   UNL     1       4.777  -2.675   0.243  0.00  0.00    -0.213 NA
ATOM     14  H   UNL     1       4.377  -0.171   0.246  0.00  0.00    +0.155 HD
BRANCH   7  18
ATOM     15  C   UNL     1      -0.124   1.266   0.205  0.00  0.00    +0.000 A 
ATOM     16  C   UNL     1       0.002   0.029   0.809  0.00  0.00    +0.002 A 
ATOM     17  C   UNL     1       1.221  -0.621   0.809  0.00  0.00    +0.023 A 
ATOM     18  C   UNL     1       2.321  -0.030   0.201  0.00  0.00    +0.034 A 
ATOM     19  C   UNL     1       2.191   1.213  -0.405  0.00  0.00    +0.023 A 
ATOM     20  C   UNL     1       0.969   1.857  -0.402  0.00  0.00    +0.002 A 
ENDBRANCH   7  18
ENDBRANCH   1  12
BRANCH   2  21
ATOM     21  C   UNL     1       7.671  -2.841  -0.612  0.00  0.00    +0.001 A 
ATOM     22  C   UNL     1       6.873  -2.353  -1.646  0.00  0.00    +0.013 A 
ATOM     23  C   UNL     1       7.129  -1.109  -2.184  0.00  0.00    +0.039 A 
ATOM     24  C   UNL     1       8.177  -0.344  -1.698  0.00  0.00    +0.123 A 
ATOM     25  C   UNL     1       8.974  -0.824  -0.671  0.00  0.00    +0.039 A 
ATOM     26  C   UNL     1       8.722  -2.065  -0.122  0.00  0.00    +0.013 A 
ATOM     27  F   UNL     1       8.424   0.874  -2.228  0.00  0.00    -0.205 F 
ENDBRANCH   2  21
BRANCH   5  28
ATOM     28  C   UNL     1       5.378  -6.877   1.323  0.00  0.00    +0.089 C 
ATOM     29  C   UNL     1       5.762  -7.331   2.733  0.00  0.00    +0.027 C 
ATOM     30  C   UNL     1       4.705  -8.303   3.261  0.00  0.00    +0.033 C 
ATOM     31  C   UNL     1       4.624  -9.520   2.338  0.00  0.00    +0.115 C 
ATOM     32  C   UNL     1       4.240  -9.066   0.928  0.00  0.00    +0.033 C 
ATOM     33  C   UNL     1       5.298  -8.094   0.400  0.00  0.00    +0.027 C 
BRANCH  31  34
ATOM     34  O   UNL     1       3.637 -10.428   2.831  0.00  0.00    -0.392 OA
ATOM     35  H   UNL     1       3.531 -11.224   2.293  0.00  0.00    +0.210 HD
ENDBRANCH  31  34
ENDBRANCH   5  28
TORSDOF 5
