REMARK  Name = CHEMBL160618
REMARK  4 active torsions:
REMARK  status: ('A' for Active; 'I' for Inactive)
REMARK    1  A    between atoms: C_1  and  N_2
REMARK    2  A    between atoms: C_5  and  C_8
REMARK    3  A    between atoms: C_10  and  C_20
REMARK    4  A    between atoms: C_11  and  C_14
REMARK                            x       y       z     vdW  Elec       q    Type
REMARK                         _______ _______ _______ _____ _____    ______ ____
ROOT
ATOM      1  C   UNL     1      -0.520  -4.108   0.994  0.00  0.00    +0.020 A 
ATOM      2  C   UNL     1      -0.570  -4.981   2.020  0.00  0.00    +0.032 A 
ATOM      3  C   UNL     1      -0.457  -6.283   1.482  0.00  0.00    +0.008 A 
ATOM      4  C   UNL     1      -0.339  -6.141   0.109  0.00  0.00    +0.055 A 
ATOM      5  N   UNL     1      -0.385  -4.799  -0.172  0.00  0.00    -0.357 N 
ATOM      6  H   UNL     1      -0.328  -4.406  -1.057  0.00  0.00    +0.166 HD
ENDROOT
BRANCH   1  11
ATOM      7  C   UNL     1      -0.018   1.465   0.010  0.00  0.00    -0.096 C 
ATOM      8  N   UNL     1       0.002  -0.004   0.002  0.00  0.00    +0.378 N 
ATOM      9  C   UNL     1      -1.376  -0.511   0.004  0.00  0.00    -0.079 C 
ATOM     10  C   UNL     1      -1.361  -2.038  -0.087  0.00  0.00    -0.009 C 
ATOM     11  C   UNL     1      -0.605  -2.608   1.117  0.00  0.00    +0.032 C 
ATOM     12  C   UNL     1       0.807  -2.015   1.147  0.00  0.00    -0.009 C 
ATOM     13  C   UNL     1       0.712  -0.489   1.192  0.00  0.00    -0.079 C 
ATOM     14  H   UNL     1       0.477  -0.328  -0.827  0.00  0.00    -0.082 HD
ENDBRANCH   1  11
BRANCH   3  15
ATOM     15  C   UNL     1      -0.463  -7.556   2.240  0.00  0.00    -0.016 A 
ATOM     16  C   UNL     1      -1.301  -8.600   1.849  0.00  0.00    +0.011 A 
ATOM     17  C   UNL     1      -1.303  -9.783   2.558  0.00  0.00    +0.039 A 
ATOM     18  C   UNL     1      -0.475  -9.935   3.659  0.00  0.00    +0.123 A 
ATOM     19  C   UNL     1       0.359  -8.901   4.052  0.00  0.00    +0.039 A 
ATOM     20  C   UNL     1       0.373  -7.716   3.345  0.00  0.00    +0.011 A 
ATOM     21  F   UNL     1      -0.481 -11.095   4.351  0.00  0.00    -0.205 F 
ENDBRANCH   3  15
BRANCH   4  22
ATOM     22  C   UNL     1      -0.196  -7.233  -0.872  0.00  0.00    +0.002 A 
ATOM     23  C   UNL     1       0.686  -8.297  -0.642  0.00  0.00    +0.029 A 
ATOM     24  C   UNL     1       0.788  -9.297  -1.586  0.00  0.00    +0.111 A 
ATOM     25  N   UNL     1       0.070  -9.259  -2.693  0.00  0.00    -0.263 NA
ATOM     26  C   UNL     1      -0.772  -8.276  -2.950  0.00  0.00    +0.111 A 
ATOM     27  C   UNL     1      -0.942  -7.238  -2.059  0.00  0.00    +0.029 A 
ENDBRANCH   4  22
TORSDOF 3
