REMARK  Name = CHEMBL437030
REMARK  7 active torsions:
REMARK  status: ('A' for Active; 'I' for Inactive)
REMARK    1  A    between atoms: C_1  and  C_2
REMARK    2  A    between atoms: C_2  and  C_3
REMARK    3  A    between atoms: C_2  and  S_4
REMARK    4  A    between atoms: S_4  and  N_7
REMARK    5  A    between atoms: C_10  and  C_17
REMARK    6  A    between atoms: C_18  and  C_29
REMARK    7  A    between atoms: C_20  and  C_23
REMARK                            x       y       z     vdW  Elec       q    Type
REMARK                         _______ _______ _______ _____ _____    ______ ____
ROOT
ATOM      1  N   UNL     1      -1.546  -2.276   0.144  0.00  0.00    -0.183 N 
ATOM      2  C   UNL     1      -1.441  -3.176  -0.904  0.00  0.00    +0.094 A 
ATOM      3  C   UNL     1      -1.428  -3.047  -2.282  0.00  0.00    +0.040 A 
ATOM      4  C   UNL     1      -1.305  -4.183  -3.078  0.00  0.00    +0.005 A 
ATOM      5  C   UNL     1      -1.197  -5.446  -2.488  0.00  0.00    +0.012 A 
ATOM      6  C   UNL     1      -1.209  -5.579  -1.130  0.00  0.00    +0.030 A 
ATOM      7  C   UNL     1      -1.331  -4.449  -0.316  0.00  0.00    +0.093 A 
ATOM      8  N   UNL     1      -1.373  -4.271   1.030  0.00  0.00    -0.213 NA
ATOM      9  C   UNL     1      -1.493  -2.996   1.303  0.00  0.00    +0.214 A 
ATOM     10  N   UNL     1      -1.559  -2.460   2.572  0.00  0.00    -0.328 N 
ATOM     11  H   UNL     1      -1.651  -1.502   2.690  0.00  0.00    +0.145 HD
ATOM     12  H   UNL     1      -1.514  -3.042   3.347  0.00  0.00    +0.145 HD
ENDROOT
BRANCH   4  13
ATOM     13  C   UNL     1      -1.290  -4.053  -4.554  0.00  0.00    +0.097 A 
ATOM     14  C   UNL     1      -0.559  -4.833  -5.436  0.00  0.00    +0.074 A 
ATOM     15  N   UNL     1      -0.847  -4.366  -6.697  0.00  0.00    -0.337 N 
ATOM     16  C   UNL     1      -1.728  -3.334  -6.553  0.00  0.00    +0.139 A 
ATOM     17  N   UNL     1      -1.986  -3.162  -5.277  0.00  0.00    -0.227 NA
ATOM     18  H   UNL     1      -0.490  -4.707  -7.532  0.00  0.00    +0.167 HD
BRANCH  16  19
ATOM     19  C   UNL     1      -2.304  -2.539  -7.658  0.00  0.00    +0.020 A 
ATOM     20  C   UNL     1      -1.971  -2.811  -8.990  0.00  0.00    +0.031 A 
ATOM     21  C   UNL     1      -2.532  -2.045  -9.990  0.00  0.00    +0.111 A 
ATOM     22  N   UNL     1      -3.371  -1.067  -9.705  0.00  0.00    -0.263 NA
ATOM     23  C   UNL     1      -3.712  -0.777  -8.464  0.00  0.00    +0.111 A 
ATOM     24  C   UNL     1      -3.203  -1.497  -7.402  0.00  0.00    +0.031 A 
ENDBRANCH  16  19
BRANCH  14  25
ATOM     25  C   UNL     1       0.348  -5.945  -5.090  0.00  0.00    +0.000 A 
ATOM     26  C   UNL     1       1.258  -5.807  -4.039  0.00  0.00    +0.010 A 
ATOM     27  C   UNL     1       2.102  -6.850  -3.721  0.00  0.00    +0.001 A 
ATOM     28  C   UNL     1       2.050  -8.031  -4.441  0.00  0.00    +0.000 A 
ATOM     29  C   UNL     1       1.152  -8.174  -5.483  0.00  0.00    +0.001 A 
ATOM     30  C   UNL     1       0.297  -7.142  -5.809  0.00  0.00    +0.010 A 
ENDBRANCH  14  25
ENDBRANCH   4  13
BRANCH   1  31
ATOM     31  S   UNL     1      -1.700  -0.632   0.015  0.00  0.00    +0.060 S 
ATOM     32  O   UNL     1      -2.359  -0.234   1.209  0.00  0.00    -0.153 OA
ATOM     33  O   UNL     1      -2.308  -0.423  -1.252  0.00  0.00    -0.153 OA
BRANCH  31  35
ATOM     34  C   UNL     1      -0.019   1.526   0.010  0.00  0.00    +0.033 C 
ATOM     35  C   UNL     1       0.002  -0.004   0.002  0.00  0.00    +0.148 C 
ATOM     36  C   UNL     1       0.742  -0.511   1.242  0.00  0.00    +0.033 C 
ENDBRANCH  31  35
ENDBRANCH   1  31
TORSDOF 5
