REMARK  Name = CHEMBL96487
REMARK  3 active torsions:
REMARK  status: ('A' for Active; 'I' for Inactive)
REMARK    1  A    between atoms: C_5  and  C_7
REMARK    2  A    between atoms: C_9  and  N_26
REMARK    3  A    between atoms: N_17  and  C_18
REMARK                            x       y       z     vdW  Elec       q    Type
REMARK                         _______ _______ _______ _____ _____    ______ ____
ROOT
ATOM      1  C   UNL     1       1.259  -2.165  -0.028  0.00  0.00    -0.008 A 
ATOM      2  C   UNL     1       0.756  -2.870  -1.122  0.00  0.00    +0.032 A 
ATOM      3  C   UNL     1       0.771  -4.257  -1.115  0.00  0.00    +0.032 A 
ATOM      4  C   UNL     1       1.284  -4.947  -0.025  0.00  0.00    +0.047 A 
ATOM      5  C   UNL     1       1.786  -4.250   1.066  0.00  0.00    +0.050 A 
ATOM      6  C   UNL     1       1.775  -2.861   1.055  0.00  0.00    -0.001 A 
ATOM      7  C   UNL     1       2.335  -2.136   2.257  0.00  0.00    +0.143 C 
ATOM      8  N   UNL     1       2.858  -2.969   3.354  0.00  0.00    -0.295 N 
ATOM      9  C   UNL     1       2.815  -4.308   3.237  0.00  0.00    +0.311 C 
ATOM     10  O   UNL     1       3.250  -4.984   4.150  0.00  0.00    -0.252 OA
ATOM     11  N   UNL     1       2.304  -4.933   2.169  0.00  0.00    -0.221 N 
ATOM     12  H   UNL     1       3.229  -2.556   4.149  0.00  0.00    +0.151 HD
ENDROOT
BRANCH  11  13
ATOM     13  C   UNL     1       2.306  -6.334   2.148  0.00  0.00    +0.079 A 
ATOM     14  C   UNL     1       1.214  -7.039   2.639  0.00  0.00    +0.064 A 
ATOM     15  C   UNL     1       1.220  -8.421   2.617  0.00  0.00    +0.022 A 
ATOM     16  C   UNL     1       2.310  -9.102   2.108  0.00  0.00    +0.003 A 
ATOM     17  C   UNL     1       3.398  -8.403   1.619  0.00  0.00    +0.022 A 
ATOM     18  C   UNL     1       3.397  -7.021   1.631  0.00  0.00    +0.064 A 
ATOM     19 CL   UNL     1       4.761  -6.145   1.010  0.00  0.00    -0.082 Cl
ATOM     20 CL   UNL     1      -0.155  -6.186   3.280  0.00  0.00    -0.082 Cl
ENDBRANCH  11  13
BRANCH   3  21
ATOM     21  N   UNL     1       0.268  -4.963  -2.211  0.00  0.00    -0.333 N 
ATOM     22  C   UNL     1      -0.388  -4.262  -3.325  0.00  0.00    +0.086 C 
ATOM     23  C   UNL     1       0.242  -4.741  -4.638  0.00  0.00    -0.063 C 
ATOM     24  N   UNL     1       0.163  -6.205  -4.712  0.00  0.00    +0.381 N 
ATOM     25  C   UNL     1       0.973  -6.804  -3.644  0.00  0.00    -0.063 C 
ATOM     26  C   UNL     1       0.385  -6.428  -2.285  0.00  0.00    +0.086 C 
ATOM     27  H   UNL     1      -0.797  -6.495  -4.607  0.00  0.00    -0.086 HD
ATOM     28  H   UNL     1       0.509  -6.514  -5.608  0.00  0.00    -0.086 HD
ENDBRANCH   3  21
BRANCH   1  33
ATOM     29  C   UNL     1       0.031   1.388  -0.020  0.00  0.00    +0.001 A 
ATOM     30  C   UNL     1       1.224   2.088  -0.023  0.00  0.00    +0.001 A 
ATOM     31  C   UNL     1       2.429   1.409  -0.029  0.00  0.00    +0.020 A 
ATOM     32  C   UNL     1       2.447   0.028  -0.030  0.00  0.00    +0.049 A 
ATOM     33  C   UNL     1       1.247  -0.681  -0.026  0.00  0.00    +0.001 A 
ATOM     34  C   UNL     1       0.036   0.008  -0.021  0.00  0.00    +0.010 A 
ATOM     35 CL   UNL     1       3.961  -0.823  -0.037  0.00  0.00    -0.083 Cl
ENDBRANCH   1  33
TORSDOF 3
