REMARK  Name = CHEMBL493669
REMARK  9 active torsions:
REMARK  status: ('A' for Active; 'I' for Inactive)
REMARK    1  A    between atoms: C_1  and  C_2
REMARK    2  A    between atoms: C_2  and  C_3
REMARK    3  A    between atoms: C_2  and  N_11
REMARK    4  A    between atoms: C_3  and  C_4
REMARK    5  A    between atoms: C_4  and  C_5
REMARK    6  A    between atoms: C_14  and  C_18
REMARK    7  A    between atoms: C_19  and  C_26
REMARK    8  A    between atoms: C_21  and  S_24
REMARK    9  A    between atoms: S_24  and  C_25
REMARK                            x       y       z     vdW  Elec       q    Type
REMARK                         _______ _______ _______ _____ _____    ______ ____
ROOT
ATOM      1  N   UNL     1       0.688  -0.476  -1.203  0.00  0.00    -0.326 N 
ATOM      2  C   UNL     1      -0.015  -0.612  -2.395  0.00  0.00    +0.119 A 
ATOM      3  C   UNL     1      -1.366  -0.293  -2.436  0.00  0.00    +0.053 A 
ATOM      4  C   UNL     1      -2.058  -0.435  -3.641  0.00  0.00    +0.007 A 
ATOM      5  C   UNL     1      -1.352  -0.896  -4.760  0.00  0.00    +0.030 A 
ATOM      6  C   UNL     1      -0.013  -1.191  -4.635  0.00  0.00    +0.113 A 
ATOM      7  N   UNL     1       0.612  -1.040  -3.481  0.00  0.00    -0.240 NA
ATOM      8  H   UNL     1       1.632  -0.695  -1.170  0.00  0.00    +0.148 HD
ENDROOT
BRANCH   4   9
ATOM      9  C   UNL     1      -3.498  -0.107  -3.733  0.00  0.00    +0.098 A 
ATOM     10  C   UNL     1      -4.141   0.442  -4.825  0.00  0.00    +0.075 A 
ATOM     11  N   UNL     1      -5.468   0.576  -4.469  0.00  0.00    -0.332 N 
ATOM     12  C   UNL     1      -5.592   0.112  -3.193  0.00  0.00    +0.167 A 
ATOM     13  N   UNL     1      -4.420  -0.296  -2.767  0.00  0.00    -0.221 NA
ATOM     14  H   UNL     1      -6.180   0.933  -5.023  0.00  0.00    +0.168 HD
BRANCH  10  15
ATOM     15  C   UNL     1      -3.530   0.814  -6.116  0.00  0.00    +0.001 A 
ATOM     16  C   UNL     1      -2.317   1.505  -6.145  0.00  0.00    +0.013 A 
ATOM     17  C   UNL     1      -1.751   1.849  -7.355  0.00  0.00    +0.039 A 
ATOM     18  C   UNL     1      -2.384   1.510  -8.540  0.00  0.00    +0.123 A 
ATOM     19  C   UNL     1      -3.587   0.823  -8.518  0.00  0.00    +0.039 A 
ATOM     20  C   UNL     1      -4.160   0.469  -7.315  0.00  0.00    +0.013 A 
ATOM     21  F   UNL     1      -1.825   1.850  -9.723  0.00  0.00    -0.205 F 
ENDBRANCH  10  15
BRANCH  12  22
ATOM     22  S   UNL     1      -7.089   0.062  -2.266  0.00  0.00    -0.091 S 
ATOM     23  C   UNL     1      -6.595  -0.650  -0.672  0.00  0.00    +0.093 C 
ENDBRANCH  12  22
ENDBRANCH   4   9
BRANCH   1  25
ATOM     24  C   UNL     1      -0.019   1.526   0.010  0.00  0.00    +0.028 C 
ATOM     25  C   UNL     1       0.002  -0.004   0.002  0.00  0.00    +0.069 C 
BRANCH  25  26
ATOM     26  C   UNL     1       0.742  -0.511   1.242  0.00  0.00    +0.026 C 
BRANCH  26  27
ATOM     27  C   UNL     1       0.655  -2.037   1.299  0.00  0.00    +0.037 C 
BRANCH  27  28
ATOM     28  C   UNL     1       1.384  -2.537   2.519  0.00  0.00    -0.047 A 
ATOM     29  C   UNL     1       2.731  -2.841   2.444  0.00  0.00    +0.003 A 
ATOM     30  C   UNL     1       3.399  -3.299   3.564  0.00  0.00    +0.000 A 
ATOM     31  C   UNL     1       2.722  -3.452   4.759  0.00  0.00    +0.000 A 
ATOM     32  C   UNL     1       1.375  -3.146   4.835  0.00  0.00    +0.000 A 
ATOM     33  C   UNL     1       0.708  -2.684   3.716  0.00  0.00    +0.003 A 
ENDBRANCH  27  28
ENDBRANCH  26  27
ENDBRANCH  25  26
ENDBRANCH   1  25
TORSDOF 7
