REMARK  Name = CHEMBL497976
REMARK  8 active torsions:
REMARK  status: ('A' for Active; 'I' for Inactive)
REMARK    1  A    between atoms: C_1  and  C_2
REMARK    2  A    between atoms: C_2  and  C_3
REMARK    3  A    between atoms: C_3  and  C_4
REMARK    4  A    between atoms: C_4  and  N_5
REMARK    5  A    between atoms: C_11  and  C_18
REMARK    6  A    between atoms: C_20  and  C_25
REMARK    7  A    between atoms: C_23  and  C_24
REMARK    8  A    between atoms: N_27  and  C_28
REMARK                            x       y       z     vdW  Elec       q    Type
REMARK                         _______ _______ _______ _____ _____    ______ ____
ROOT
ATOM      1  N   UNL     1       1.425  -2.500  -2.470  0.00  0.00    -0.261 N 
ATOM      2  C   UNL     1       0.710  -2.719  -3.595  0.00  0.00    +0.264 A 
ATOM      3  O   UNL     1      -0.491  -2.529  -3.618  0.00  0.00    -0.267 OA
ATOM      4  C   UNL     1       1.423  -3.193  -4.795  0.00  0.00    +0.063 A 
ATOM      5  C   UNL     1       0.753  -3.441  -5.992  0.00  0.00    +0.016 A 
ATOM      6  C   UNL     1       1.452  -3.880  -7.082  0.00  0.00    +0.009 A 
ATOM      7  C   UNL     1       2.832  -4.082  -7.003  0.00  0.00    -0.016 A 
ATOM      8  C   UNL     1       3.513  -3.839  -5.813  0.00  0.00    +0.035 A 
ATOM      9  C   UNL     1       2.813  -3.394  -4.706  0.00  0.00    +0.056 A 
ATOM     10  N   UNL     1       3.449  -3.138  -3.499  0.00  0.00    -0.307 N 
ATOM     11  H   UNL     1       4.407  -3.272  -3.423  0.00  0.00    +0.170 HD
ATOM     12  C   UNL     1       2.751  -2.701  -2.436  0.00  0.00    +0.330 A 
ATOM     13  O   UNL     1       3.346  -2.484  -1.399  0.00  0.00    -0.246 OA
ENDROOT
BRANCH   7  14
ATOM     14  C   UNL     1       3.576  -4.560  -8.194  0.00  0.00    -0.014 A 
ATOM     15  C   UNL     1       4.731  -3.902  -8.605  0.00  0.00    +0.021 A 
ATOM     16  C   UNL     1       5.425  -4.357  -9.724  0.00  0.00    +0.037 A 
ATOM     17  C   UNL     1       4.957  -5.470 -10.427  0.00  0.00    +0.013 A 
ATOM     18  C   UNL     1       3.811  -6.118 -10.014  0.00  0.00    +0.005 A 
ATOM     19  C   UNL     1       3.122  -5.674  -8.901  0.00  0.00    -0.043 A 
ATOM     20  C   UNL     1       1.875  -6.391  -8.453  0.00  0.00    +0.044 C 
BRANCH  16  21
ATOM     21  C   UNL     1       6.653  -3.662 -10.168  0.00  0.00    +0.244 C 
ATOM     22  O   UNL     1       7.058  -2.694  -9.556  0.00  0.00    -0.270 OA
ATOM     23  N   UNL     1       7.322  -4.104 -11.251  0.00  0.00    -0.308 N 
ATOM     24  H   UNL     1       6.999  -4.877 -11.739  0.00  0.00    +0.149 HD
BRANCH  23  25
ATOM     25  C   UNL     1       8.539  -3.416 -11.691  0.00  0.00    +0.073 C 
ATOM     26  C   UNL     1       8.704  -3.162 -13.190  0.00  0.00    +0.024 C 
ATOM     27  C   UNL     1       9.557  -4.226 -12.496  0.00  0.00    +0.024 C 
ENDBRANCH  23  25
ENDBRANCH  16  21
ENDBRANCH   7  14
BRANCH   1  28
ATOM     28  C   UNL     1       0.739  -2.027  -1.265  0.00  0.00    +0.130 C 
BRANCH  28  29
ATOM     29  C   UNL     1       0.718  -0.497  -1.257  0.00  0.00    +0.022 C 
BRANCH  29  31
ATOM     30  C   UNL     1      -0.019   1.526   0.010  0.00  0.00    +0.004 C 
ATOM     31  C   UNL     1       0.002  -0.004   0.002  0.00  0.00    -0.002 C 
ENDBRANCH  29  31
ENDBRANCH  28  29
ENDBRANCH   1  28
TORSDOF 6
