REMARK  Name = CHEMBL410136
REMARK  4 active torsions:
REMARK  status: ('A' for Active; 'I' for Inactive)
REMARK    1  A    between atoms: C_1  and  C_2
REMARK    2  A    between atoms: C_5  and  C_24
REMARK    3  A    between atoms: C_7  and  N_8
REMARK    4  A    between atoms: N_13  and  C_18
REMARK                            x       y       z     vdW  Elec       q    Type
REMARK                         _______ _______ _______ _____ _____    ______ ____
ROOT
ATOM      1  C   UNL     1       0.281   1.286  -0.100  0.00  0.00    +0.045 C 
ATOM      2  C   UNL     1       0.364  -0.212   0.035  0.00  0.00    -0.029 A 
ATOM      3  C   UNL     1       0.576  -0.994  -1.086  0.00  0.00    +0.006 A 
ATOM      4  C   UNL     1       0.654  -2.367  -0.970  0.00  0.00    +0.013 A 
ATOM      5  C   UNL     1       0.518  -2.971   0.281  0.00  0.00    +0.039 A 
ATOM      6  C   UNL     1       0.304  -2.183   1.412  0.00  0.00    +0.036 A 
ATOM      7  C   UNL     1       0.234  -0.804   1.286  0.00  0.00    +0.036 A 
ENDROOT
BRANCH   7   8
ATOM      8  N   UNL     1       0.025  -0.008   2.416  0.00  0.00    -0.299 N 
ATOM      9  C   UNL     1      -0.649  -0.522   3.508  0.00  0.00    +0.137 A 
ATOM     10  C   UNL     1      -0.752   0.214   4.705  0.00  0.00    +0.079 A 
ATOM     11  C   UNL     1      -0.298   1.480   5.134  0.00  0.00    +0.148 A 
ATOM     12  N   UNL     1      -0.685   1.663   6.364  0.00  0.00    -0.172 NA
ATOM     13  N   UNL     1      -1.404   0.544   6.805  0.00  0.00    -0.214 N 
ATOM     14  C   UNL     1      -1.452  -0.362   5.783  0.00  0.00    +0.168 A 
ATOM     15  N   UNL     1      -1.986  -1.572   5.631  0.00  0.00    -0.216 NA
ATOM     16  C   UNL     1      -1.863  -2.221   4.494  0.00  0.00    +0.225 A 
ATOM     17  N   UNL     1      -1.221  -1.720   3.453  0.00  0.00    -0.220 NA
ATOM     18  H   UNL     1       0.353   0.904   2.435  0.00  0.00    +0.154 HD
BRANCH  13  19
ATOM     19  C   UNL     1      -1.974   0.382   8.074  0.00  0.00    +0.068 A 
ATOM     20  C   UNL     1      -3.172  -0.306   8.215  0.00  0.00    +0.028 A 
ATOM     21  C   UNL     1      -3.732  -0.464   9.468  0.00  0.00    +0.002 A 
ATOM     22  C   UNL     1      -3.100   0.060  10.581  0.00  0.00    +0.000 A 
ATOM     23  C   UNL     1      -1.907   0.746  10.443  0.00  0.00    +0.002 A 
ATOM     24  C   UNL     1      -1.339   0.903   9.194  0.00  0.00    +0.028 A 
ENDBRANCH  13  19
ENDBRANCH   7   8
BRANCH   5  25
ATOM     25  C   UNL     1       0.600  -4.442   0.408  0.00  0.00    +0.249 C 
ATOM     26  O   UNL     1       0.482  -4.966   1.498  0.00  0.00    -0.270 OA
ATOM     27  N   UNL     1       0.807  -5.202  -0.686  0.00  0.00    -0.265 N 
ATOM     28  C   UNL     1       0.884  -6.595  -0.567  0.00  0.00    +0.147 A 
ATOM     29  C   UNL     1       0.760  -7.329   0.624  0.00  0.00    +0.064 A 
ATOM     30  C   UNL     1       0.894  -8.640   0.320  0.00  0.00    +0.107 A 
ATOM     31  N   UNL     1       1.096  -8.737  -1.011  0.00  0.00    -0.283 N 
ATOM     32  H   UNL     1       1.225  -9.560  -1.509  0.00  0.00    +0.188 HD
ATOM     33  N   UNL     1       1.080  -7.444  -1.548  0.00  0.00    -0.159 NA
ATOM     34  H   UNL     1       0.901  -4.784  -1.556  0.00  0.00    +0.157 HD
ENDBRANCH   5  25
TORSDOF 3
