REMARK  Name = CHEMBL214198
REMARK  5 active torsions:
REMARK  status: ('A' for Active; 'I' for Inactive)
REMARK    1  A    between atoms: C_1  and  C_2
REMARK    2  A    between atoms: C_2  and  C_3
REMARK    3  A    between atoms: C_2  and  C_4
REMARK    4  A    between atoms: C_10  and  C_13
REMARK    5  A    between atoms: C_18  and  C_19
REMARK                            x       y       z     vdW  Elec       q    Type
REMARK                         _______ _______ _______ _____ _____    ______ ____
ROOT
ATOM      1  C   UNL     1      -1.865  -3.205  -4.140  0.00  0.00    +0.029 A 
ATOM      2  C   UNL     1      -0.992  -4.299  -4.269  0.00  0.00    +0.143 A 
ATOM      3  N   UNL     1      -0.784  -4.517  -5.541  0.00  0.00    -0.181 NA
ATOM      4  H   UNL     1      -1.530  -3.521  -7.257  0.00  0.00    +0.189 HD
ATOM      5  N   UNL     1      -1.507  -3.582  -6.289  0.00  0.00    -0.276 N 
ATOM      6  C   UNL     1      -2.180  -2.774  -5.421  0.00  0.00    +0.076 A 
ENDROOT
BRANCH   1  13
ATOM      7  C   UNL     1      -1.412  -0.526   0.013  0.00  0.00    +0.140 A 
ATOM      8  N   UNL     1      -2.313  -0.299   0.933  0.00  0.00    -0.133 NA
ATOM      9  N   UNL     1      -3.415  -0.893   0.635  0.00  0.00    -0.129 NA
ATOM     10  C   UNL     1      -3.271  -1.540  -0.510  0.00  0.00    +0.161 A 
ATOM     11  N   UNL     1      -1.986  -1.314  -0.937  0.00  0.00    -0.286 N 
ATOM     12  C   UNL     1      -1.538  -1.853  -2.106  0.00  0.00    +0.103 A 
ATOM     13  C   UNL     1      -2.362  -2.623  -2.869  0.00  0.00    +0.002 A 
ATOM     14  C   UNL     1      -3.692  -2.867  -2.452  0.00  0.00    +0.014 A 
ATOM     15  C   UNL     1      -4.138  -2.338  -1.284  0.00  0.00    +0.049 A 
BRANCH   7  17
ATOM     16  C   UNL     1      -0.019   1.526   0.010  0.00  0.00    +0.015 C 
ATOM     17  C   UNL     1       0.002  -0.004   0.002  0.00  0.00    +0.051 C 
ATOM     18  C   UNL     1       0.742  -0.511   1.242  0.00  0.00    +0.015 C 
ENDBRANCH   7  17
ENDBRANCH   1  13
BRANCH   6  19
ATOM     19  C   UNL     1      -3.073  -1.652  -5.776  0.00  0.00    +0.038 A 
ATOM     20  C   UNL     1      -4.268  -1.894  -6.454  0.00  0.00    +0.051 A 
ATOM     21  C   UNL     1      -5.098  -0.840  -6.783  0.00  0.00    +0.124 A 
ATOM     22  C   UNL     1      -4.746   0.456  -6.441  0.00  0.00    +0.041 A 
ATOM     23  C   UNL     1      -3.563   0.703  -5.769  0.00  0.00    +0.042 A 
ATOM     24  C   UNL     1      -2.726  -0.343  -5.429  0.00  0.00    +0.133 A 
ATOM     25  F   UNL     1      -1.573  -0.100  -4.768  0.00  0.00    -0.205 F 
ATOM     26  F   UNL     1      -6.256  -1.073  -7.439  0.00  0.00    -0.205 F 
ENDBRANCH   6  19
TORSDOF 3
