REMARK  Name = CHEMBL94178
REMARK  3 active torsions:
REMARK  status: ('A' for Active; 'I' for Inactive)
REMARK    1  A    between atoms: C_6  and  C_7
REMARK    2  A    between atoms: C_8  and  C_16
REMARK    3  A    between atoms: N_22  and  C_23
REMARK                            x       y       z     vdW  Elec       q    Type
REMARK                         _______ _______ _______ _____ _____    ______ ____
ROOT
ATOM      1  C   UNL     1      -1.182  -0.943   0.075  0.00  0.00    +0.075 A 
ATOM      2  C   UNL     1      -1.788  -1.511  -1.028  0.00  0.00    +0.097 A 
ATOM      3  N   UNL     1      -3.069  -1.877  -0.673  0.00  0.00    -0.279 N 
ATOM      4  N   UNL     1      -3.290  -1.541   0.666  0.00  0.00    -0.249 N 
ATOM      5  C   UNL     1      -2.167  -0.977   1.163  0.00  0.00    +0.276 A 
ATOM      6  O   UNL     1      -2.004  -0.570   2.298  0.00  0.00    -0.266 OA
ATOM      7  C   UNL     1      -4.656  -1.923   1.063  0.00  0.00    +0.147 C 
ATOM      8  C   UNL     1      -5.415  -2.131  -0.264  0.00  0.00    +0.046 C 
ATOM      9  C   UNL     1      -4.278  -2.502  -1.239  0.00  0.00    +0.144 C 
ENDROOT
BRANCH   2  10
ATOM     10  C   UNL     1      -1.170  -1.695  -2.358  0.00  0.00    +0.095 A 
ATOM     11  C   UNL     1      -1.848  -2.387  -3.366  0.00  0.00    +0.050 A 
ATOM     12  C   UNL     1      -1.228  -2.534  -4.596  0.00  0.00    +0.116 A 
ATOM     13  N   UNL     1      -0.024  -2.019  -4.779  0.00  0.00    -0.223 NA
ATOM     14  C   UNL     1       0.596  -1.367  -3.805  0.00  0.00    +0.216 A 
ATOM     15  N   UNL     1       0.039  -1.198  -2.617  0.00  0.00    -0.213 NA
ATOM     16  N   UNL     1       1.856  -0.844  -4.039  0.00  0.00    -0.311 N 
ATOM     17  H   UNL     1       2.320  -0.365  -3.336  0.00  0.00    +0.149 HD
BRANCH  16  18
ATOM     18  C   UNL     1       2.487  -1.014  -5.350  0.00  0.00    +0.073 C 
ATOM     19  C   UNL     1       3.967  -1.404  -5.376  0.00  0.00    +0.024 C 
ATOM     20  C   UNL     1       3.542   0.014  -5.765  0.00  0.00    +0.024 C 
ENDBRANCH  16  18
ENDBRANCH   2  10
BRANCH   1  26
ATOM     21  C   UNL     1       0.409   0.958   0.327  0.00  0.00    +0.011 A 
ATOM     22  C   UNL     1       1.696   1.451   0.395  0.00  0.00    +0.039 A 
ATOM     23  C   UNL     1       2.776   0.590   0.285  0.00  0.00    +0.123 A 
ATOM     24  C   UNL     1       2.571  -0.769   0.108  0.00  0.00    +0.039 A 
ATOM     25  C   UNL     1       1.288  -1.272   0.039  0.00  0.00    +0.011 A 
ATOM     26  C   UNL     1       0.197  -0.409   0.148  0.00  0.00    -0.010 A 
ATOM     27  F   UNL     1       4.035   1.077   0.352  0.00  0.00    -0.205 F 
ENDBRANCH   1  26
TORSDOF 3
