REMARK  Name = CHEMBL565366
REMARK  5 active torsions:
REMARK  status: ('A' for Active; 'I' for Inactive)
REMARK    1  A    between atoms: C_1  and  N_2
REMARK    2  A    between atoms: C_6  and  C_9
REMARK    3  A    between atoms: N_21  and  C_22
REMARK    4  A    between atoms: C_25  and  C_28
REMARK    5  A    between atoms: N_33  and  C_36
REMARK                            x       y       z     vdW  Elec       q    Type
REMARK                         _______ _______ _______ _____ _____    ______ ____
ROOT
ATOM      1  C   UNL     1      -0.004   1.374  -0.033  0.00  0.00    +0.154 C 
ATOM      2  N   UNL     1      -0.180   0.364  -1.079  0.00  0.00    -0.295 N 
ATOM      3  C   UNL     1      -1.414  -0.204  -1.274  0.00  0.00    +0.148 A 
ATOM      4  C   UNL     1      -1.601  -1.179  -2.277  0.00  0.00    +0.037 A 
ATOM      5  C   UNL     1      -0.516  -1.579  -3.091  0.00  0.00    +0.027 A 
ATOM      6  C   UNL     1       0.711  -1.007  -2.889  0.00  0.00    +0.050 A 
ATOM      7  C   UNL     1       0.870   0.005  -1.843  0.00  0.00    +0.260 A 
ATOM      8  O   UNL     1       1.957   0.523  -1.660  0.00  0.00    -0.267 OA
ATOM      9  C   UNL     1      -2.878  -1.734  -2.444  0.00  0.00    +0.126 A 
ATOM     10  N   UNL     1      -3.854  -1.323  -1.655  0.00  0.00    -0.222 NA
ATOM     11  C   UNL     1      -3.641  -0.403  -0.721  0.00  0.00    +0.221 A 
ATOM     12  N   UNL     1      -2.454   0.150  -0.526  0.00  0.00    -0.196 NA
ATOM     13  N   UNL     1      -4.698  -0.007   0.077  0.00  0.00    -0.284 N 
ATOM     14  H   UNL     1      -4.584   0.721   0.708  0.00  0.00    +0.155 HD
ENDROOT
BRANCH   6  15
ATOM     15  C   UNL     1       1.867  -1.405  -3.726  0.00  0.00    +0.024 A 
ATOM     16  C   UNL     1       2.686  -2.465  -3.332  0.00  0.00    +0.050 A 
ATOM     17  C   UNL     1       3.762  -2.831  -4.117  0.00  0.00    +0.021 A 
ATOM     18  C   UNL     1       4.029  -2.149  -5.290  0.00  0.00    +0.003 A 
ATOM     19  C   UNL     1       3.223  -1.098  -5.686  0.00  0.00    +0.021 A 
ATOM     20  C   UNL     1       2.140  -0.725  -4.913  0.00  0.00    +0.050 A 
ATOM     21 CL   UNL     1       1.125   0.590  -5.416  0.00  0.00    -0.083 Cl
ATOM     22 CL   UNL     1       2.351  -3.321  -1.859  0.00  0.00    -0.083 Cl
ENDBRANCH   6  15
BRANCH  13  23
ATOM     23  C   UNL     1      -5.927  -0.654  -0.025  0.00  0.00    +0.034 A 
ATOM     24  C   UNL     1      -5.973  -2.029  -0.239  0.00  0.00    +0.024 A 
ATOM     25  C   UNL     1      -7.186  -2.671  -0.340  0.00  0.00    +0.015 A 
ATOM     26  C   UNL     1      -8.373  -1.942  -0.227  0.00  0.00    +0.037 A 
ATOM     27  C   UNL     1      -8.323  -0.561  -0.012  0.00  0.00    +0.015 A 
ATOM     28  C   UNL     1      -7.107   0.074   0.093  0.00  0.00    +0.024 A 
BRANCH  26  29
ATOM     29  C   UNL     1      -9.675  -2.627  -0.335  0.00  0.00    +0.246 C 
ATOM     30  O   UNL     1      -9.860  -3.676   0.251  0.00  0.00    -0.270 OA
ATOM     31  N   UNL     1     -10.659  -2.090  -1.084  0.00  0.00    -0.301 N 
ATOM     32  C   UNL     1     -10.487  -0.781  -1.732  0.00  0.00    +0.089 C 
ATOM     33  C   UNL     1     -10.867  -0.917  -3.211  0.00  0.00    -0.060 C 
ATOM     34  N   UNL     1     -12.221  -1.474  -3.318  0.00  0.00    +0.380 N 
ATOM     35  C   UNL     1     -12.245  -2.839  -2.776  0.00  0.00    -0.060 C 
ATOM     36  C   UNL     1     -11.932  -2.800  -1.281  0.00  0.00    +0.089 C 
ATOM     37  C   UNL     1     -12.627  -1.502  -4.730  0.00  0.00    -0.096 C 
ATOM     38  H   UNL     1     -12.864  -0.896  -2.798  0.00  0.00    -0.082 HD
ENDBRANCH  26  29
ENDBRANCH  13  23
TORSDOF 3
