REMARK  Name = CHEMBL1208830
REMARK  15 active torsions:
REMARK  status: ('A' for Active; 'I' for Inactive)
REMARK    1  A    between atoms: C_1  and  C_2
REMARK    2  A    between atoms: C_2  and  C_3
REMARK    3  A    between atoms: C_2  and  C_4
REMARK    4  A    between atoms: C_2  and  C_5
REMARK    5  A    between atoms: C_7  and  C_37
REMARK    6  A    between atoms: C_8  and  O_35
REMARK    7  A    between atoms: C_9  and  N_11
REMARK    8  A    between atoms: C_12  and  C_14
REMARK    9  A    between atoms: C_14  and  C_16
REMARK   10  A    between atoms: C_19  and  O_26
REMARK   11  A    between atoms: O_26  and  C_27
REMARK   12  A    between atoms: C_27  and  C_28
REMARK   13  A    between atoms: C_28  and  N_29
REMARK   14  A    between atoms: O_35  and  C_36
REMARK   15  A    between atoms: N_39  and  C_40
REMARK                            x       y       z     vdW  Elec       q    Type
REMARK                         _______ _______ _______ _____ _____    ______ ____
ROOT
ATOM      1  N   UNL     1       2.417   0.938  -4.295  0.00  0.00    -0.276 N 
ATOM      2  C   UNL     1       2.183   2.251  -4.094  0.00  0.00    +0.289 C 
ATOM      3  O   UNL     1       1.701   2.628  -3.045  0.00  0.00    -0.266 OA
ATOM      4  H   UNL     1       2.865   0.644  -5.103  0.00  0.00    +0.155 HD
ENDROOT
BRANCH   1   9
ATOM      5  C   UNL     1       1.656  -0.597  -1.037  0.00  0.00    -0.039 A 
ATOM      6  C   UNL     1       1.217  -1.847  -1.418  0.00  0.00    +0.021 A 
ATOM      7  C   UNL     1       1.171  -2.190  -2.772  0.00  0.00    +0.080 A 
ATOM      8  C   UNL     1       1.572  -1.258  -3.737  0.00  0.00    +0.153 A 
ATOM      9  C   UNL     1       2.014   0.001  -3.337  0.00  0.00    +0.077 A 
ATOM     10  C   UNL     1       2.048   0.327  -1.990  0.00  0.00    +0.031 A 
BRANCH   5  12
ATOM     11  C   UNL     1       2.217   1.200   0.577  0.00  0.00    +0.015 C 
ATOM     12  C   UNL     1       1.704  -0.233   0.425  0.00  0.00    -0.013 C 
ATOM     13  C   UNL     1       2.644  -1.192   1.159  0.00  0.00    +0.015 C 
ATOM     14  C   UNL     1       0.299  -0.338   1.023  0.00  0.00    +0.015 C 
ENDBRANCH   5  12
BRANCH   7  15
ATOM     15  C   UNL     1       0.702  -3.527  -3.183  0.00  0.00    +0.248 C 
ATOM     16  O   UNL     1       0.663  -3.822  -4.361  0.00  0.00    -0.270 OA
ATOM     17  N   UNL     1       0.317  -4.421  -2.251  0.00  0.00    -0.308 N 
ATOM     18  H   UNL     1       0.348  -4.186  -1.310  0.00  0.00    +0.149 HD
BRANCH  17  19
ATOM     19  C   UNL     1      -0.149  -5.749  -2.658  0.00  0.00    +0.073 C 
ATOM     20  C   UNL     1      -1.395  -6.305  -1.965  0.00  0.00    +0.024 C 
ATOM     21  C   UNL     1      -0.017  -6.887  -1.644  0.00  0.00    +0.024 C 
ENDBRANCH  17  19
ENDBRANCH   7  15
BRANCH   8  22
ATOM     22  O   UNL     1       1.532  -1.581  -5.055  0.00  0.00    -0.492 OA
ATOM     23  C   UNL     1       0.320  -1.295  -5.756  0.00  0.00    +0.277 C 
ENDBRANCH   8  22
ENDBRANCH   1   9
BRANCH   2  24
ATOM     24  C   UNL     1       2.517   3.238  -5.158  0.00  0.00    +0.248 C 
ATOM     25  O   UNL     1       2.912   2.854  -6.242  0.00  0.00    -0.282 OA
BRANCH  24  26
ATOM     26  C   UNL     1       2.370   4.671  -4.899  0.00  0.00    +0.035 A 
ATOM     27  C   UNL     1       1.801   5.123  -3.706  0.00  0.00    +0.016 A 
ATOM     28  C   UNL     1       1.661   6.475  -3.460  0.00  0.00    +0.047 A 
ATOM     29  C   UNL     1       2.075   7.425  -4.375  0.00  0.00    +0.128 A 
ATOM     30  C   UNL     1       2.659   7.033  -5.601  0.00  0.00    +0.024 A 
ATOM     31  C   UNL     1       2.823   5.657  -5.884  0.00  0.00    -0.003 A 
ATOM     32  C   UNL     1       3.404   5.265  -7.093  0.00  0.00    +0.009 A 
ATOM     33  C   UNL     1       3.813   6.214  -7.985  0.00  0.00    +0.001 A 
ATOM     34  C   UNL     1       3.659   7.569  -7.706  0.00  0.00    +0.001 A 
ATOM     35  C   UNL     1       3.083   7.983  -6.542  0.00  0.00    +0.012 A 
BRANCH  29  36
ATOM     36  O   UNL     1       1.920   8.741  -4.095  0.00  0.00    -0.490 OA
BRANCH  36  37
ATOM     37  C   UNL     1       1.322   9.070  -2.840  0.00  0.00    +0.244 C 
BRANCH  37  38
ATOM     38  C   UNL     1       1.230  10.591  -2.702  0.00  0.00    +0.125 C 
BRANCH  38  39
ATOM     39  N   UNL     1       0.305  11.119  -3.714  0.00  0.00    -0.295 NA
ATOM     40  C   UNL     1       0.522  12.558  -3.927  0.00  0.00    +0.112 C 
ATOM     41  C   UNL     1      -0.419  13.053  -5.028  0.00  0.00    +0.175 C 
ATOM     42  O   UNL     1      -1.769  12.758  -4.663  0.00  0.00    -0.377 OA
ATOM     43  C   UNL     1      -2.016  11.365  -4.448  0.00  0.00    +0.175 C 
ATOM     44  C   UNL     1      -1.091  10.853  -3.341  0.00  0.00    +0.112 C 
ENDBRANCH  38  39
ENDBRANCH  37  38
ENDBRANCH  36  37
ENDBRANCH  29  36
ENDBRANCH  24  26
ENDBRANCH   2  24
TORSDOF 11
