REMARK  Name = CHEMBL523880
REMARK  8 active torsions:
REMARK  status: ('A' for Active; 'I' for Inactive)
REMARK    1  A    between atoms: C_1  and  C_2
REMARK    2  A    between atoms: C_2  and  C_3
REMARK    3  A    between atoms: C_2  and  C_26
REMARK    4  A    between atoms: C_3  and  N_4
REMARK    5  A    between atoms: C_7  and  C_11
REMARK    6  A    between atoms: C_12  and  C_19
REMARK    7  A    between atoms: C_14  and  S_17
REMARK    8  A    between atoms: S_17  and  C_18
REMARK                            x       y       z     vdW  Elec       q    Type
REMARK                         _______ _______ _______ _____ _____    ______ ____
ROOT
ATOM      1  N   UNL     1       2.148  -0.104   1.172  0.00  0.00    -0.330 N 
ATOM      2  C   UNL     1       3.024  -0.452   2.193  0.00  0.00    +0.097 A 
ATOM      3  C   UNL     1       2.560  -1.190   3.274  0.00  0.00    +0.051 A 
ATOM      4  C   UNL     1       3.453  -1.532   4.292  0.00  0.00    +0.007 A 
ATOM      5  C   UNL     1       4.785  -1.111   4.175  0.00  0.00    +0.027 A 
ATOM      6  C   UNL     1       5.164  -0.381   3.070  0.00  0.00    +0.085 A 
ATOM      7  N   UNL     1       4.294  -0.080   2.123  0.00  0.00    -0.350 N 
ATOM      8  H   UNL     1       2.467   0.409   0.412  0.00  0.00    +0.147 HD
ATOM      9  H   UNL     1       4.592   0.432   1.355  0.00  0.00    +0.166 HD
ENDROOT
BRANCH   4  10
ATOM     10  C   UNL     1       3.005  -2.318   5.463  0.00  0.00    +0.098 A 
ATOM     11  C   UNL     1       3.750  -3.259   6.147  0.00  0.00    +0.075 A 
ATOM     12  N   UNL     1       2.940  -3.735   7.160  0.00  0.00    -0.332 N 
ATOM     13  C   UNL     1       1.748  -3.082   7.063  0.00  0.00    +0.167 A 
ATOM     14  N   UNL     1       1.798  -2.240   6.059  0.00  0.00    -0.221 NA
ATOM     15  H   UNL     1       3.176  -4.409   7.816  0.00  0.00    +0.168 HD
BRANCH  11  16
ATOM     16  C   UNL     1       5.136  -3.673   5.854  0.00  0.00    +0.001 A 
ATOM     17  C   UNL     1       5.528  -3.927   4.538  0.00  0.00    +0.013 A 
ATOM     18  C   UNL     1       6.825  -4.313   4.270  0.00  0.00    +0.039 A 
ATOM     19  C   UNL     1       7.738  -4.450   5.304  0.00  0.00    +0.123 A 
ATOM     20  C   UNL     1       7.354  -4.199   6.612  0.00  0.00    +0.039 A 
ATOM     21  C   UNL     1       6.062  -3.806   6.892  0.00  0.00    +0.013 A 
ATOM     22  F   UNL     1       9.006  -4.829   5.036  0.00  0.00    -0.205 F 
ENDBRANCH  11  16
BRANCH  13  23
ATOM     23  S   UNL     1       0.363  -3.325   8.124  0.00  0.00    -0.091 S 
ATOM     24  C   UNL     1      -0.888  -2.178   7.483  0.00  0.00    +0.093 C 
ENDBRANCH  13  23
ENDBRANCH   4  10
BRANCH   1  25
ATOM     25  C   UNL     1       0.742  -0.511   1.242  0.00  0.00    +0.110 C 
BRANCH  25  27
ATOM     26  C   UNL     1      -0.019   1.526   0.010  0.00  0.00    +0.014 C 
ATOM     27  C   UNL     1       0.002  -0.004   0.002  0.00  0.00    +0.033 C 
BRANCH  27  28
ATOM     28  C   UNL     1      -1.412  -0.526   0.013  0.00  0.00    -0.043 A 
ATOM     29  C   UNL     1      -2.259  -0.204   1.056  0.00  0.00    +0.004 A 
ATOM     30  C   UNL     1      -3.556  -0.683   1.066  0.00  0.00    +0.000 A 
ATOM     31  C   UNL     1      -4.006  -1.482   0.032  0.00  0.00    +0.000 A 
ATOM     32  C   UNL     1      -3.159  -1.803  -1.012  0.00  0.00    +0.000 A 
ATOM     33  C   UNL     1      -1.863  -1.321  -1.024  0.00  0.00    +0.004 A 
ENDBRANCH  27  28
ENDBRANCH  25  27
ENDBRANCH   1  25
TORSDOF 6
