REMARK  Name = CHEMBL199247
REMARK  7 active torsions:
REMARK  status: ('A' for Active; 'I' for Inactive)
REMARK    1  A    between atoms: C_4  and  C_7
REMARK    2  A    between atoms: N_9  and  C_10
REMARK    3  A    between atoms: C_10  and  C_11
REMARK    4  A    between atoms: C_11  and  C_12
REMARK    5  A    between atoms: C_12  and  N_13
REMARK    6  A    between atoms: C_16  and  C_24
REMARK    7  A    between atoms: C_17  and  C_18
REMARK                            x       y       z     vdW  Elec       q    Type
REMARK                         _______ _______ _______ _____ _____    ______ ____
ROOT
ATOM      1  N   UNL     1       6.069  -6.514  -0.229  0.00  0.00    -0.330 N 
ATOM      2  C   UNL     1       5.830  -7.356   0.799  0.00  0.00    +0.200 A 
ATOM      3  N   UNL     1       5.271  -8.445   0.350  0.00  0.00    -0.235 NA
ATOM      4  C   UNL     1       5.123  -8.359  -0.985  0.00  0.00    +0.097 A 
ATOM      5  C   UNL     1       5.622  -7.129  -1.377  0.00  0.00    +0.077 A 
ENDROOT
BRANCH   4   6
ATOM      6  C   UNL     1       4.531  -9.388  -1.871  0.00  0.00    +0.003 A 
ATOM      7  C   UNL     1       3.787  -9.007  -2.987  0.00  0.00    +0.013 A 
ATOM      8  C   UNL     1       3.238  -9.969  -3.809  0.00  0.00    +0.039 A 
ATOM      9  C   UNL     1       3.424 -11.313  -3.527  0.00  0.00    +0.123 A 
ATOM     10  C   UNL     1       4.162 -11.697  -2.419  0.00  0.00    +0.039 A 
ATOM     11  C   UNL     1       4.720 -10.742  -1.594  0.00  0.00    +0.013 A 
ATOM     12  F   UNL     1       2.884 -12.251  -4.334  0.00  0.00    -0.205 F 
ENDBRANCH   4   6
BRANCH   5  13
ATOM     13  C   UNL     1       5.668  -6.588  -2.748  0.00  0.00    +0.003 A 
ATOM     14  C   UNL     1       5.110  -5.338  -3.049  0.00  0.00    +0.030 A 
ATOM     15  C   UNL     1       5.176  -4.871  -4.344  0.00  0.00    +0.111 A 
ATOM     16  N   UNL     1       5.754  -5.583  -5.293  0.00  0.00    -0.263 NA
ATOM     17  C   UNL     1       6.291  -6.765  -5.054  0.00  0.00    +0.111 A 
ATOM     18  C   UNL     1       6.276  -7.306  -3.787  0.00  0.00    +0.030 A 
ENDBRANCH   5  13
BRANCH   1  19
ATOM     19  C   UNL     1       6.685  -5.188  -0.139  0.00  0.00    +0.125 C 
BRANCH  19  20
ATOM     20  C   UNL     1       8.178  -5.296  -0.456  0.00  0.00    +0.040 C 
BRANCH  20  21
ATOM     21  C   UNL     1       8.827  -3.917  -0.331  0.00  0.00    +0.106 C 
BRANCH  21  24
ATOM     22  C   UNL     1      11.037  -2.923  -0.587  0.00  0.00    +0.244 C 
ATOM     23  O   UNL     1      10.555  -1.846  -0.293  0.00  0.00    -0.270 OA
ATOM     24  N   UNL     1      10.257  -4.021  -0.634  0.00  0.00    -0.311 N 
ATOM     25  H   UNL     1      10.642  -4.879  -0.869  0.00  0.00    +0.149 HD
BRANCH  22  29
ATOM     26  C   UNL     1      15.182  -3.224  -1.466  0.00  0.00    +0.000 A 
ATOM     27  C   UNL     1      14.636  -1.997  -1.132  0.00  0.00    +0.001 A 
ATOM     28  C   UNL     1      13.291  -1.892  -0.846  0.00  0.00    +0.013 A 
ATOM     29  C   UNL     1      12.480  -3.027  -0.893  0.00  0.00    +0.037 A 
ATOM     30  C   UNL     1      13.037  -4.262  -1.231  0.00  0.00    +0.013 A 
ATOM     31  C   UNL     1      14.384  -4.353  -1.514  0.00  0.00    +0.001 A 
ENDBRANCH  22  29
ENDBRANCH  21  24
ENDBRANCH  20  21
ENDBRANCH  19  20
ENDBRANCH   1  19
TORSDOF 7
