REMARK  Name = CHEMBL199291
REMARK  7 active torsions:
REMARK  status: ('A' for Active; 'I' for Inactive)
REMARK    1  A    between atoms: C_1  and  C_2
REMARK    2  A    between atoms: C_2  and  C_3
REMARK    3  A    between atoms: C_2  and  C_4
REMARK    4  A    between atoms: C_2  and  N_5
REMARK    5  A    between atoms: C_8  and  C_11
REMARK    6  A    between atoms: N_19  and  C_20
REMARK    7  A    between atoms: C_28  and  C_30
REMARK                            x       y       z     vdW  Elec       q    Type
REMARK                         _______ _______ _______ _____ _____    ______ ____
ROOT
ATOM      1  C   UNL     1       3.635  -2.188  -3.881  0.00  0.00    +0.047 A 
ATOM      2  C   UNL     1       3.195  -1.562  -5.029  0.00  0.00    +0.050 A 
ATOM      3  C   UNL     1       3.515  -2.116  -6.267  0.00  0.00    +0.061 A 
ATOM      4  C   UNL     1       4.279  -3.300  -6.293  0.00  0.00    +0.025 A 
ATOM      5  C   UNL     1       4.616  -3.882  -7.538  0.00  0.00    +0.017 A 
ATOM      6  C   UNL     1       4.194  -3.284  -8.681  0.00  0.00    +0.071 A 
ATOM      7  C   UNL     1       3.431  -2.099  -8.626  0.00  0.00    +0.256 A 
ATOM      8  O   UNL     1       3.060  -1.576  -9.663  0.00  0.00    -0.267 OA
ATOM      9  N   UNL     1       3.105  -1.538  -7.446  0.00  0.00    -0.274 N 
ATOM     10  C   UNL     1       4.687  -3.873  -5.073  0.00  0.00    +0.082 A 
ATOM     11  N   UNL     1       4.354  -3.295  -3.928  0.00  0.00    -0.251 NA
ENDROOT
BRANCH   9  12
ATOM     12  C   UNL     1       2.346  -0.361  -7.419  0.00  0.00    +0.087 A 
ATOM     13  C   UNL     1       0.959  -0.428  -7.368  0.00  0.00    +0.066 A 
ATOM     14  C   UNL     1       0.213   0.736  -7.341  0.00  0.00    +0.022 A 
ATOM     15  C   UNL     1       0.845   1.965  -7.365  0.00  0.00    +0.003 A 
ATOM     16  C   UNL     1       2.225   2.035  -7.416  0.00  0.00    +0.022 A 
ATOM     17  C   UNL     1       2.978   0.876  -7.437  0.00  0.00    +0.066 A 
ATOM     18 CL   UNL     1       4.711   0.966  -7.494  0.00  0.00    -0.081 Cl
ATOM     19 CL   UNL     1       0.164  -1.971  -7.339  0.00  0.00    -0.081 Cl
ENDBRANCH   9  12
BRANCH  10  20
ATOM     20  C   UNL     1       5.490  -5.117  -5.070  0.00  0.00    +0.019 A 
ATOM     21  C   UNL     1       6.676  -5.186  -5.802  0.00  0.00    +0.014 A 
ATOM     22  C   UNL     1       7.420  -6.346  -5.796  0.00  0.00    +0.039 A 
ATOM     23  C   UNL     1       6.993  -7.444  -5.065  0.00  0.00    +0.125 A 
ATOM     24  C   UNL     1       5.816  -7.382  -4.336  0.00  0.00    +0.059 A 
ATOM     25  C   UNL     1       5.066  -6.223  -4.331  0.00  0.00    +0.053 A 
ATOM     26 CL   UNL     1       3.595  -6.143  -3.412  0.00  0.00    -0.083 Cl
ATOM     27  F   UNL     1       7.726  -8.579  -5.063  0.00  0.00    -0.205 F 
ENDBRANCH  10  20
BRANCH   1  31
ATOM     28  N   UNL     1       1.504   0.048  -0.957  0.00  0.00    +0.383 N 
ATOM     29  C   UNL     1       1.531  -1.408  -0.780  0.00  0.00    -0.077 C 
ATOM     30  C   UNL     1       1.907  -2.080  -2.103  0.00  0.00    -0.009 C 
ATOM     31  C   UNL     1       3.291  -1.591  -2.541  0.00  0.00    +0.034 C 
ATOM     32  C   UNL     1       3.271  -0.064  -2.651  0.00  0.00    -0.009 C 
ATOM     33  C   UNL     1       2.844   0.533  -1.308  0.00  0.00    -0.077 C 
ATOM     34  H   UNL     1       0.858   0.283  -1.696  0.00  0.00    -0.081 HD
BRANCH  28  36
ATOM     35  C   UNL     1       1.028   2.202   0.107  0.00  0.00    -0.010 C 
ATOM     36  C   UNL     1       1.066   0.684   0.293  0.00  0.00    -0.074 C 
ATOM     37  C   UNL     1       2.046   0.332   1.414  0.00  0.00    -0.010 C 
ATOM     38  C   UNL     1      -0.331   0.180   0.660  0.00  0.00    -0.010 C 
ENDBRANCH  28  36
ENDBRANCH   1  31
TORSDOF 4
