REMARK  Name = CHEMBL493669
REMARK  9 active torsions:
REMARK  status: ('A' for Active; 'I' for Inactive)
REMARK    1  A    between atoms: C_1  and  C_2
REMARK    2  A    between atoms: C_2  and  C_3
REMARK    3  A    between atoms: C_2  and  N_11
REMARK    4  A    between atoms: C_3  and  C_4
REMARK    5  A    between atoms: C_4  and  C_5
REMARK    6  A    between atoms: C_14  and  C_18
REMARK    7  A    between atoms: C_19  and  C_26
REMARK    8  A    between atoms: C_21  and  S_24
REMARK    9  A    between atoms: S_24  and  C_25
REMARK                            x       y       z     vdW  Elec       q    Type
REMARK                         _______ _______ _______ _____ _____    ______ ____
ROOT
ATOM      1  N   UNL     1      -1.372  -0.511   0.012  0.00  0.00    -0.328 N 
ATOM      2  C   UNL     1      -2.072  -0.647  -1.181  0.00  0.00    +0.097 A 
ATOM      3  C   UNL     1      -1.460  -0.305  -2.378  0.00  0.00    +0.051 A 
ATOM      4  C   UNL     1      -2.178  -0.448  -3.571  0.00  0.00    +0.005 A 
ATOM      5  C   UNL     1      -3.494  -0.933  -3.498  0.00  0.00    +0.027 A 
ATOM      6  C   UNL     1      -4.025  -1.249  -2.269  0.00  0.00    +0.085 A 
ATOM      7  N   UNL     1      -3.316  -1.106  -1.163  0.00  0.00    -0.350 N 
ATOM      8  H   UNL     1      -1.794  -0.752   0.852  0.00  0.00    +0.148 HD
ATOM      9  H   UNL     1      -3.718  -1.341  -0.313  0.00  0.00    +0.166 HD
ENDROOT
BRANCH   4  10
ATOM     10  C   UNL     1      -1.571  -0.098  -4.867  0.00  0.00    +0.075 A 
ATOM     11  C   UNL     1      -1.624  -0.836  -6.034  0.00  0.00    +0.098 A 
ATOM     12  N   UNL     1      -0.943  -0.160  -6.978  0.00  0.00    -0.221 NA
ATOM     13  C   UNL     1      -0.470   0.954  -6.468  0.00  0.00    +0.167 A 
ATOM     14  N   UNL     1      -0.839   1.040  -5.160  0.00  0.00    -0.332 N 
ATOM     15  H   UNL     1      -0.626   1.762  -4.548  0.00  0.00    +0.168 HD
BRANCH  11  16
ATOM     16  C   UNL     1      -2.307  -2.139  -6.213  0.00  0.00    +0.003 A 
ATOM     17  C   UNL     1      -2.340  -3.061  -5.168  0.00  0.00    +0.013 A 
ATOM     18  C   UNL     1      -2.978  -4.272  -5.340  0.00  0.00    +0.039 A 
ATOM     19  C   UNL     1      -3.584  -4.573  -6.549  0.00  0.00    +0.123 A 
ATOM     20  C   UNL     1      -3.554  -3.660  -7.590  0.00  0.00    +0.039 A 
ATOM     21  C   UNL     1      -2.924  -2.443  -7.426  0.00  0.00    +0.013 A 
ATOM     22  F   UNL     1      -4.207  -5.761  -6.712  0.00  0.00    -0.205 F 
ENDBRANCH  11  16
BRANCH  13  23
ATOM     23  S   UNL     1       0.484   2.151  -7.340  0.00  0.00    -0.091 S 
ATOM     24  C   UNL     1       0.621   1.467  -9.015  0.00  0.00    +0.093 C 
ENDBRANCH  13  23
ENDBRANCH   4  10
BRANCH   1  26
ATOM     25  C   UNL     1      -0.019   1.526   0.010  0.00  0.00    +0.028 C 
ATOM     26  C   UNL     1       0.002  -0.004   0.002  0.00  0.00    +0.069 C 
BRANCH  26  27
ATOM     27  C   UNL     1       0.742  -0.511   1.242  0.00  0.00    +0.026 C 
BRANCH  27  28
ATOM     28  C   UNL     1       0.872  -2.034   1.171  0.00  0.00    +0.037 C 
BRANCH  28  29
ATOM     29  C   UNL     1       1.601  -2.533   2.392  0.00  0.00    -0.047 A 
ATOM     30  C   UNL     1       2.979  -2.641   2.378  0.00  0.00    +0.003 A 
ATOM     31  C   UNL     1       3.647  -3.099   3.498  0.00  0.00    +0.000 A 
ATOM     32  C   UNL     1       2.938  -3.448   4.632  0.00  0.00    +0.000 A 
ATOM     33  C   UNL     1       1.560  -3.340   4.646  0.00  0.00    +0.000 A 
ATOM     34  C   UNL     1       0.892  -2.878   3.527  0.00  0.00    +0.003 A 
ENDBRANCH  28  29
ENDBRANCH  27  28
ENDBRANCH  26  27
ENDBRANCH   1  26
TORSDOF 7
