REMARK  Name = CHEMBL170631
REMARK  7 active torsions:
REMARK  status: ('A' for Active; 'I' for Inactive)
REMARK    1  A    between atoms: C_1  and  C_2
REMARK    2  A    between atoms: C_2  and  N_3
REMARK    3  A    between atoms: C_7  and  C_15
REMARK    4  A    between atoms: N_10  and  C_13
REMARK    5  A    between atoms: C_13  and  C_14
REMARK    6  A    between atoms: C_16  and  C_21
REMARK    7  A    between atoms: C_25  and  C_27
REMARK                            x       y       z     vdW  Elec       q    Type
REMARK                         _______ _______ _______ _____ _____    ______ ____
ROOT
ATOM      1  N   UNL     1       0.688  -0.476  -1.203  0.00  0.00    -0.292 N 
ATOM      2  C   UNL     1       0.086  -0.744  -2.431  0.00  0.00    +0.070 A 
ATOM      3  C   UNL     1      -1.224  -0.665  -2.883  0.00  0.00    +0.028 A 
ATOM      4  C   UNL     1      -1.526  -1.004  -4.184  0.00  0.00    +0.012 A 
ATOM      5  C   UNL     1      -0.516  -1.429  -5.052  0.00  0.00    +0.002 A 
ATOM      6  C   UNL     1       0.802  -1.509  -4.600  0.00  0.00    +0.038 A 
ATOM      7  C   UNL     1       1.102  -1.167  -3.293  0.00  0.00    +0.070 A 
ATOM      8  N   UNL     1       2.287  -1.143  -2.561  0.00  0.00    -0.292 N 
ATOM      9  C   UNL     1       2.007  -0.720  -1.314  0.00  0.00    +0.330 A 
ATOM     10  O   UNL     1       2.823  -0.581  -0.422  0.00  0.00    -0.246 OA
ENDROOT
BRANCH   5  11
ATOM     11  C   UNL     1      -0.843  -1.792  -6.445  0.00  0.00    +0.072 A 
ATOM     12  C   UNL     1      -1.904  -2.569  -6.873  0.00  0.00    +0.072 A 
ATOM     13  N   UNL     1      -1.830  -2.650  -8.215  0.00  0.00    -0.345 N 
ATOM     14  C   UNL     1      -0.798  -1.976  -8.638  0.00  0.00    +0.171 A 
ATOM     15  N   UNL     1      -0.157  -1.421  -7.578  0.00  0.00    -0.345 N 
ATOM     16  H   UNL     1       0.638  -0.867  -7.613  0.00  0.00    +0.167 HD
ATOM     17  H   UNL     1      -2.451  -3.136  -8.781  0.00  0.00    +0.167 HD
BRANCH  12  18
ATOM     18  C   UNL     1      -2.932  -3.198  -6.012  0.00  0.00    +0.001 A 
ATOM     19  C   UNL     1      -2.558  -3.860  -4.843  0.00  0.00    +0.010 A 
ATOM     20  C   UNL     1      -3.520  -4.443  -4.045  0.00  0.00    +0.001 A 
ATOM     21  C   UNL     1      -4.855  -4.373  -4.403  0.00  0.00    +0.003 A 
ATOM     22  C   UNL     1      -5.233  -3.718  -5.562  0.00  0.00    -0.050 A 
ATOM     23  C   UNL     1      -4.280  -3.125  -6.364  0.00  0.00    +0.013 A 
ATOM     24  C   UNL     1      -6.689  -3.646  -5.944  0.00  0.00    +0.044 C 
ENDBRANCH  12  18
ENDBRANCH   5  11
BRANCH   1  26
ATOM     25  C   UNL     1      -0.019   1.526   0.010  0.00  0.00    +0.027 C 
ATOM     26  C   UNL     1       0.002  -0.004   0.002  0.00  0.00    +0.123 C 
ENDBRANCH   1  26
BRANCH   8  27
ATOM     27  C   UNL     1       3.613  -1.510  -3.065  0.00  0.00    +0.123 C 
ATOM     28  C   UNL     1       4.298  -0.272  -3.647  0.00  0.00    +0.027 C 
ENDBRANCH   8  27
TORSDOF 4
