REMARK  Name = CHEMBL590753
REMARK  4 active torsions:
REMARK  status: ('A' for Active; 'I' for Inactive)
REMARK    1  A    between atoms: C_6  and  C_7
REMARK    2  A    between atoms: C_8  and  C_16
REMARK    3  A    between atoms: N_9  and  C_12
REMARK    4  A    between atoms: C_12  and  C_13
REMARK                            x       y       z     vdW  Elec       q    Type
REMARK                         _______ _______ _______ _____ _____    ______ ____
ROOT
ATOM      1  C   UNL     1      -1.406  -1.135  -0.241  0.00  0.00    +0.073 A 
ATOM      2  C   UNL     1      -1.612  -2.115   0.714  0.00  0.00    +0.093 A 
ATOM      3  N   UNL     1      -2.918  -2.528   0.564  0.00  0.00    -0.330 N 
ATOM      4  C   UNL     1      -3.453  -1.811  -0.446  0.00  0.00    +0.174 A 
ATOM      5  N   UNL     1      -2.559  -0.984  -0.916  0.00  0.00    -0.345 N 
ATOM      6  H   UNL     1      -2.704  -0.359  -1.643  0.00  0.00    +0.167 HD
ENDROOT
BRANCH   2   7
ATOM      7  C   UNL     1      -0.632  -2.617   1.694  0.00  0.00    +0.094 A 
ATOM      8  C   UNL     1      -1.058  -3.163   2.913  0.00  0.00    +0.050 A 
ATOM      9  C   UNL     1      -0.102  -3.621   3.799  0.00  0.00    +0.116 A 
ATOM     10  N   UNL     1       1.179  -3.531   3.474  0.00  0.00    -0.223 NA
ATOM     11  C   UNL     1       1.556  -3.011   2.314  0.00  0.00    +0.213 A 
ATOM     12  N   UNL     1       0.675  -2.565   1.433  0.00  0.00    -0.213 NA
ATOM     13  N   UNL     1       2.905  -2.938   2.016  0.00  0.00    -0.327 N 
ATOM     14  H   UNL     1       3.561  -3.264   2.651  0.00  0.00    +0.145 HD
ATOM     15  H   UNL     1       3.195  -2.559   1.171  0.00  0.00    +0.145 HD
ENDBRANCH   2   7
BRANCH   1  21
ATOM     16  C   UNL     1      -0.183   0.998  -0.652  0.00  0.00    +0.013 A 
ATOM     17  C   UNL     1       0.990   1.691  -0.866  0.00  0.00    +0.039 A 
ATOM     18  C   UNL     1       2.200   1.016  -0.904  0.00  0.00    +0.123 A 
ATOM     19  C   UNL     1       2.238  -0.357  -0.727  0.00  0.00    +0.039 A 
ATOM     20  C   UNL     1       1.071  -1.060  -0.512  0.00  0.00    +0.013 A 
ATOM     21  C   UNL     1      -0.149  -0.385  -0.472  0.00  0.00    +0.001 A 
ATOM     22  F   UNL     1       3.346   1.700  -1.115  0.00  0.00    -0.205 F 
ENDBRANCH   1  21
BRANCH   3  23
ATOM     23  C   UNL     1      -3.600  -3.556   1.353  0.00  0.00    +0.126 C 
BRANCH  23  24
ATOM     24  C   UNL     1      -4.986  -3.819   0.761  0.00  0.00    +0.009 C 
ATOM     25  C   UNL     1      -6.200  -3.472   1.624  0.00  0.00    +0.005 C 
ATOM     26  C   UNL     1      -5.822  -4.936   1.389  0.00  0.00    +0.005 C 
ENDBRANCH  23  24
ENDBRANCH   3  23
TORSDOF 4
