REMARK  Name = CHEMBL450809
REMARK  14 active torsions:
REMARK  status: ('A' for Active; 'I' for Inactive)
REMARK    1  A    between atoms: C_1  and  C_2
REMARK    2  A    between atoms: C_6  and  N_8
REMARK    3  A    between atoms: C_9  and  C_17
REMARK    4  A    between atoms: C_11  and  C_13
REMARK    5  A    between atoms: C_13  and  C_14
REMARK    6  A    between atoms: C_13  and  C_15
REMARK    7  A    between atoms: C_13  and  C_16
REMARK    8  A    between atoms: C_17  and  C_20
REMARK    9  A    between atoms: N_18  and  O_19
REMARK   10  A    between atoms: N_22  and  C_23
REMARK   11  A    between atoms: C_26  and  O_33
REMARK   12  A    between atoms: O_33  and  C_34
REMARK   13  A    between atoms: C_34  and  C_35
REMARK   14  A    between atoms: C_35  and  N_36
REMARK                            x       y       z     vdW  Elec       q    Type
REMARK                         _______ _______ _______ _____ _____    ______ ____
ROOT
ATOM      1  C   UNL     1      -1.858  -3.907   0.262  0.00  0.00    +0.272 C 
ATOM      2  O   UNL     1      -1.563  -2.809  -0.168  0.00  0.00    -0.268 OA
ATOM      3  N   UNL     1      -2.529  -4.778  -0.518  0.00  0.00    -0.280 N 
ATOM      4  H   UNL     1      -2.833  -5.623  -0.151  0.00  0.00    +0.155 HD
ENDROOT
BRANCH   3   5
ATOM      5  C   UNL     1      -2.786  -4.464  -1.855  0.00  0.00    +0.042 A 
ATOM      6  C   UNL     1      -2.074  -3.464  -2.481  0.00  0.00    +0.027 A 
ATOM      7  C   UNL     1      -2.318  -3.140  -3.811  0.00  0.00    +0.048 A 
ATOM      8  C   UNL     1      -3.278  -3.810  -4.536  0.00  0.00    +0.128 A 
ATOM      9  C   UNL     1      -4.024  -4.838  -3.926  0.00  0.00    +0.026 A 
ATOM     10  C   UNL     1      -3.772  -5.173  -2.573  0.00  0.00    +0.007 A 
ATOM     11  C   UNL     1      -4.513  -6.201  -1.968  0.00  0.00    +0.010 A 
ATOM     12  C   UNL     1      -5.458  -6.864  -2.690  0.00  0.00    +0.001 A 
ATOM     13  C   UNL     1      -5.702  -6.540  -4.023  0.00  0.00    +0.001 A 
ATOM     14  C   UNL     1      -5.010  -5.541  -4.637  0.00  0.00    +0.012 A 
BRANCH   8  15
ATOM     15  O   UNL     1      -3.505  -3.480  -5.835  0.00  0.00    -0.493 OA
BRANCH  15  16
ATOM     16  C   UNL     1      -2.711  -2.428  -6.386  0.00  0.00    +0.210 C 
BRANCH  16  17
ATOM     17  C   UNL     1      -3.107  -2.201  -7.846  0.00  0.00    -0.037 C 
BRANCH  17  18
ATOM     18  N   UNL     1      -4.491  -1.712  -7.908  0.00  0.00    +0.385 N 
ATOM     19  C   UNL     1      -4.933  -1.668  -9.309  0.00  0.00    -0.050 C 
ATOM     20  C   UNL     1      -6.375  -1.159  -9.370  0.00  0.00    +0.141 C 
ATOM     21  O   UNL     1      -6.446   0.132  -8.757  0.00  0.00    -0.383 OA
ATOM     22  C   UNL     1      -6.002   0.145  -7.397  0.00  0.00    +0.141 C 
ATOM     23  C   UNL     1      -4.560  -0.362  -7.332  0.00  0.00    -0.050 C 
ATOM     24  H   UNL     1      -5.091  -2.332  -7.385  0.00  0.00    -0.081 HD
ENDBRANCH  17  18
ENDBRANCH  16  17
ENDBRANCH  15  16
ENDBRANCH   8  15
ENDBRANCH   3   5
BRANCH   1  25
ATOM     25  C   UNL     1      -1.481  -4.288   1.643  0.00  0.00    +0.189 C 
ATOM     26  N   UNL     1      -0.746  -3.487   2.363  0.00  0.00    -0.080 NA
BRANCH  25  28
ATOM     27  N   UNL     1      -3.232  -6.001   2.311  0.00  0.00    -0.230 N 
ATOM     28  C   UNL     1      -1.938  -5.575   2.205  0.00  0.00    +0.101 A 
ATOM     29  C   UNL     1      -1.139  -6.573   2.721  0.00  0.00    +0.055 A 
ATOM     30  C   UNL     1      -1.973  -7.609   3.140  0.00  0.00    +0.069 A 
ATOM     31  N   UNL     1      -3.216  -7.270   2.903  0.00  0.00    -0.170 NA
BRANCH  27  37
ATOM     32  C   UNL     1      -7.658  -5.974   0.166  0.00  0.00    +0.044 C 
ATOM     33  C   UNL     1      -6.531  -5.256   0.863  0.00  0.00    -0.048 A 
ATOM     34  C   UNL     1      -6.620  -3.897   1.101  0.00  0.00    +0.003 A 
ATOM     35  C   UNL     1      -5.588  -3.234   1.740  0.00  0.00    +0.002 A 
ATOM     36  C   UNL     1      -4.464  -3.929   2.142  0.00  0.00    +0.028 A 
ATOM     37  C   UNL     1      -4.371  -5.294   1.905  0.00  0.00    +0.066 A 
ATOM     38  C   UNL     1      -5.412  -5.957   1.268  0.00  0.00    +0.031 A 
ENDBRANCH  27  37
BRANCH  30  39
ATOM     39  C   UNL     1      -1.520  -8.901   3.768  0.00  0.00    +0.006 C 
ATOM     40  C   UNL     1      -1.100  -8.645   5.216  0.00  0.00    +0.017 C 
ATOM     41  C   UNL     1      -2.668  -9.912   3.741  0.00  0.00    +0.017 C 
ATOM     42  C   UNL     1      -0.331  -9.460   2.983  0.00  0.00    +0.017 C 
ENDBRANCH  30  39
ENDBRANCH  25  28
BRANCH  26  43
ATOM     43  O   UNL     1      -0.403  -2.206   1.868  0.00  0.00    -0.409 OA
ATOM     44  H   UNL     1       0.144  -1.685   2.472  0.00  0.00    +0.328 HD
ENDBRANCH  26  43
ENDBRANCH   1  25
TORSDOF 10
