REMARK  Name = CHEMBL408876
REMARK  5 active torsions:
REMARK  status: ('A' for Active; 'I' for Inactive)
REMARK    1  A    between atoms: C_4  and  N_7
REMARK    2  A    between atoms: C_12  and  C_14
REMARK    3  A    between atoms: C_15  and  C_26
REMARK    4  A    between atoms: N_18  and  C_19
REMARK    5  A    between atoms: C_22  and  O_25
REMARK                            x       y       z     vdW  Elec       q    Type
REMARK                         _______ _______ _______ _____ _____    ______ ____
ROOT
ATOM      1  C   UNL     1       6.161  -4.683   0.319  0.00  0.00    +0.095 A 
ATOM      2  C   UNL     1       7.401  -4.176  -0.030  0.00  0.00    +0.098 A 
ATOM      3  N   UNL     1       8.315  -5.122   0.253  0.00  0.00    -0.235 NA
ATOM      4  C   UNL     1       7.719  -6.170   0.751  0.00  0.00    +0.200 A 
ATOM      5  N   UNL     1       6.390  -5.946   0.818  0.00  0.00    -0.325 N 
ENDROOT
BRANCH   1  11
ATOM      6  N   UNL     1       3.556  -0.684   0.228  0.00  0.00    -0.284 N 
ATOM      7  C   UNL     1       3.607  -2.066   0.147  0.00  0.00    +0.220 A 
ATOM      8  N   UNL     1       2.484  -2.744  -0.045  0.00  0.00    -0.223 NA
ATOM      9  C   UNL     1       2.490  -4.065  -0.128  0.00  0.00    +0.116 A 
ATOM     10  C   UNL     1       3.687  -4.746  -0.013  0.00  0.00    +0.050 A 
ATOM     11  C   UNL     1       4.859  -4.005   0.190  0.00  0.00    +0.094 A 
ATOM     12  N   UNL     1       4.777  -2.675   0.258  0.00  0.00    -0.213 NA
ATOM     13  H   UNL     1       4.377  -0.170   0.282  0.00  0.00    +0.155 HD
BRANCH   6  17
ATOM     14  C   UNL     1      -0.124   1.266   0.240  0.00  0.00    +0.000 A 
ATOM     15  C   UNL     1       0.000   0.024   0.834  0.00  0.00    +0.002 A 
ATOM     16  C   UNL     1       1.219  -0.625   0.832  0.00  0.00    +0.023 A 
ATOM     17  C   UNL     1       2.320  -0.029   0.231  0.00  0.00    +0.034 A 
ATOM     18  C   UNL     1       2.192   1.219  -0.365  0.00  0.00    +0.023 A 
ATOM     19  C   UNL     1       0.970   1.863  -0.359  0.00  0.00    +0.002 A 
ENDBRANCH   6  17
ENDBRANCH   1  11
BRANCH   2  20
ATOM     20  C   UNL     1       7.672  -2.840  -0.610  0.00  0.00    +0.003 A 
ATOM     21  C   UNL     1       6.758  -2.261  -1.490  0.00  0.00    +0.013 A 
ATOM     22  C   UNL     1       7.014  -1.017  -2.027  0.00  0.00    +0.039 A 
ATOM     23  C   UNL     1       8.178  -0.342  -1.694  0.00  0.00    +0.123 A 
ATOM     24  C   UNL     1       9.089  -0.913  -0.820  0.00  0.00    +0.039 A 
ATOM     25  C   UNL     1       8.838  -2.154  -0.272  0.00  0.00    +0.013 A 
ATOM     26  F   UNL     1       8.425   0.876  -2.223  0.00  0.00    -0.205 F 
ENDBRANCH   2  20
BRANCH   5  27
ATOM     27  C   UNL     1       5.378  -6.877   1.323  0.00  0.00    +0.089 C 
ATOM     28  C   UNL     1       5.762  -7.331   2.733  0.00  0.00    +0.027 C 
ATOM     29  C   UNL     1       4.705  -8.303   3.261  0.00  0.00    +0.033 C 
ATOM     30  C   UNL     1       4.624  -9.520   2.338  0.00  0.00    +0.115 C 
ATOM     31  C   UNL     1       4.240  -9.066   0.928  0.00  0.00    +0.033 C 
ATOM     32  C   UNL     1       5.298  -8.094   0.400  0.00  0.00    +0.027 C 
BRANCH  30  33
ATOM     33  O   UNL     1       3.637 -10.428   2.831  0.00  0.00    -0.392 OA
ATOM     34  H   UNL     1       3.531 -11.224   2.293  0.00  0.00    +0.210 HD
ENDBRANCH  30  33
ENDBRANCH   5  27
TORSDOF 5
