REMARK  Name = CHEMBL104991
REMARK  12 active torsions:
REMARK  status: ('A' for Active; 'I' for Inactive)
REMARK    1  A    between atoms: C_1  and  C_2
REMARK    2  A    between atoms: C_5  and  N_8
REMARK    3  A    between atoms: C_9  and  N_17
REMARK    4  A    between atoms: C_11  and  C_13
REMARK    5  A    between atoms: C_13  and  C_14
REMARK    6  A    between atoms: C_13  and  C_15
REMARK    7  A    between atoms: C_13  and  C_16
REMARK    8  A    between atoms: N_20  and  C_21
REMARK    9  A    between atoms: C_24  and  O_31
REMARK   10  A    between atoms: O_31  and  C_32
REMARK   11  A    between atoms: C_32  and  C_33
REMARK   12  A    between atoms: C_33  and  N_34
REMARK                            x       y       z     vdW  Elec       q    Type
REMARK                         _______ _______ _______ _____ _____    ______ ____
ROOT
ATOM      1  N   UNL     1       1.423  -4.300   2.216  0.00  0.00    -0.254 N 
ATOM      2  C   UNL     1       2.011  -5.185   3.044  0.00  0.00    +0.309 C 
ATOM      3  O   UNL     1       1.976  -6.374   2.788  0.00  0.00    -0.252 OA
ATOM      4  N   UNL     1       2.640  -4.754   4.155  0.00  0.00    -0.269 N 
ATOM      5  H   UNL     1       1.451  -3.352   2.420  0.00  0.00    +0.158 HD
ATOM      6  H   UNL     1       2.730  -3.803   4.323  0.00  0.00    +0.156 HD
ENDROOT
BRANCH   4   7
ATOM      7  C   UNL     1       3.163  -5.678   5.066  0.00  0.00    +0.043 A 
ATOM      8  C   UNL     1       3.686  -6.872   4.621  0.00  0.00    +0.027 A 
ATOM      9  C   UNL     1       4.209  -7.800   5.517  0.00  0.00    +0.048 A 
ATOM     10  C   UNL     1       4.219  -7.553   6.860  0.00  0.00    +0.128 A 
ATOM     11  C   UNL     1       3.693  -6.343   7.354  0.00  0.00    +0.026 A 
ATOM     12  C   UNL     1       3.164  -5.391   6.447  0.00  0.00    +0.007 A 
ATOM     13  C   UNL     1       2.645  -4.183   6.941  0.00  0.00    +0.010 A 
ATOM     14  C   UNL     1       2.662  -3.939   8.280  0.00  0.00    +0.001 A 
ATOM     15  C   UNL     1       3.187  -4.873   9.172  0.00  0.00    +0.001 A 
ATOM     16  C   UNL     1       3.688  -6.059   8.730  0.00  0.00    +0.012 A 
BRANCH  10  17
ATOM     17  O   UNL     1       4.734  -8.472   7.718  0.00  0.00    -0.490 OA
BRANCH  17  18
ATOM     18  C   UNL     1       5.249  -9.676   7.146  0.00  0.00    +0.244 C 
BRANCH  18  19
ATOM     19  C   UNL     1       5.782 -10.582   8.258  0.00  0.00    +0.125 C 
BRANCH  19  20
ATOM     20  N   UNL     1       4.675 -10.979   9.139  0.00  0.00    -0.295 NA
ATOM     21  C   UNL     1       5.178 -11.639  10.352  0.00  0.00    +0.112 C 
ATOM     22  C   UNL     1       3.998 -11.982  11.267  0.00  0.00    +0.175 C 
ATOM     23  O   UNL     1       3.068 -12.799  10.551  0.00  0.00    -0.377 OA
ATOM     24  C   UNL     1       2.558 -12.187   9.364  0.00  0.00    +0.175 C 
ATOM     25  C   UNL     1       3.723 -11.846   8.430  0.00  0.00    +0.112 C 
ENDBRANCH  19  20
ENDBRANCH  18  19
ENDBRANCH  17  18
ENDBRANCH  10  17
ENDBRANCH   4   7
BRANCH   1  27
ATOM     26  N   UNL     1       0.139  -3.969   0.146  0.00  0.00    -0.217 N 
ATOM     27  C   UNL     1       0.772  -4.746   1.066  0.00  0.00    +0.130 A 
ATOM     28  C   UNL     1       0.655  -6.039   0.658  0.00  0.00    +0.069 A 
ATOM     29  C   UNL     1      -0.068  -6.048  -0.539  0.00  0.00    +0.071 A 
ATOM     30  N   UNL     1      -0.382  -4.814  -0.842  0.00  0.00    -0.169 NA
BRANCH  26  35
ATOM     31  C   UNL     1      -0.339   1.633   0.445  0.00  0.00    +0.065 C 
ATOM     32  C   UNL     1      -0.210   0.135   0.340  0.00  0.00    +0.038 A 
ATOM     33  C   UNL     1      -0.081  -0.453  -0.905  0.00  0.00    +0.025 A 
ATOM     34  C   UNL     1       0.037  -1.830  -0.994  0.00  0.00    +0.031 A 
ATOM     35  C   UNL     1       0.022  -2.572   0.184  0.00  0.00    +0.085 A 
ATOM     36  C   UNL     1      -0.111  -1.910   1.397  0.00  0.00    +0.138 A 
ATOM     37  N   UNL     1      -0.215  -0.596   1.437  0.00  0.00    -0.258 NA
ENDBRANCH  26  35
BRANCH  29  38
ATOM     38  C   UNL     1      -0.430  -7.271  -1.340  0.00  0.00    +0.006 C 
ATOM     39  C   UNL     1      -1.568  -8.020  -0.643  0.00  0.00    +0.017 C 
ATOM     40  C   UNL     1      -0.881  -6.849  -2.740  0.00  0.00    +0.017 C 
ATOM     41  C   UNL     1       0.790  -8.187  -1.452  0.00  0.00    +0.017 C 
ENDBRANCH  29  38
ENDBRANCH   1  27
TORSDOF 8
