REMARK  Name = CHEMBL96225
REMARK  3 active torsions:
REMARK  status: ('A' for Active; 'I' for Inactive)
REMARK    1  A    between atoms: C_4  and  N_8
REMARK    2  A    between atoms: C_11  and  C_27
REMARK    3  A    between atoms: C_13  and  C_19
REMARK                            x       y       z     vdW  Elec       q    Type
REMARK                         _______ _______ _______ _____ _____    ______ ____
ROOT
ATOM      1  N   UNL     1       3.428  -1.206  -0.079  0.00  0.00    -0.221 N 
ATOM      2  C   UNL     1       4.112  -1.232  -1.298  0.00  0.00    +0.049 A 
ATOM      3  C   UNL     1       3.467  -0.884  -2.475  0.00  0.00    +0.037 A 
ATOM      4  C   UNL     1       4.160  -0.913  -3.685  0.00  0.00    +0.039 A 
ATOM      5  C   UNL     1       5.501  -1.294  -3.715  0.00  0.00    +0.022 A 
ATOM      6  C   UNL     1       6.147  -1.643  -2.531  0.00  0.00    -0.009 A 
ATOM      7  C   UNL     1       5.449  -1.610  -1.332  0.00  0.00    -0.001 A 
ATOM      8  C   UNL     1       6.116  -1.983  -0.028  0.00  0.00    +0.143 C 
ATOM      9  N   UNL     1       5.288  -1.916   1.188  0.00  0.00    -0.295 N 
ATOM     10  C   UNL     1       4.004  -1.528   1.086  0.00  0.00    +0.311 C 
ATOM     11  O   UNL     1       3.333  -1.472   2.099  0.00  0.00    -0.252 OA
ATOM     12  H   UNL     1       5.665  -2.144   2.052  0.00  0.00    +0.151 HD
ENDROOT
BRANCH   4  13
ATOM     13  C   UNL     1       3.471  -0.541  -4.940  0.00  0.00    +0.247 C 
ATOM     14  O   UNL     1       2.689   0.389  -4.950  0.00  0.00    -0.270 OA
ATOM     15  N   UNL     1       3.711  -1.234  -6.071  0.00  0.00    -0.295 N 
ATOM     16  C   UNL     1       3.140  -0.801  -7.356  0.00  0.00    +0.123 C 
ATOM     17  C   UNL     1       2.433  -1.997  -8.002  0.00  0.00    +0.100 C 
ATOM     18  N   UNL     1       3.368  -3.127  -8.087  0.00  0.00    -0.313 NA
ATOM     19  C   UNL     1       3.787  -3.573  -6.751  0.00  0.00    +0.100 C 
ATOM     20  C   UNL     1       4.554  -2.438  -6.055  0.00  0.00    +0.123 C 
ATOM     21  H   UNL     1       2.968  -3.889  -8.614  0.00  0.00    +0.122 HD
ENDBRANCH   4  13
BRANCH   1  25
ATOM     22  C   UNL     1      -0.580  -0.059  -0.072  0.00  0.00    +0.003 A 
ATOM     23  C   UNL     1       0.410   0.894   0.081  0.00  0.00    +0.022 A 
ATOM     24  C   UNL     1       1.740   0.517   0.079  0.00  0.00    +0.064 A 
ATOM     25  C   UNL     1       2.081  -0.821  -0.076  0.00  0.00    +0.079 A 
ATOM     26  C   UNL     1       1.083  -1.775  -0.229  0.00  0.00    +0.064 A 
ATOM     27  C   UNL     1      -0.245  -1.391  -0.227  0.00  0.00    +0.022 A 
ATOM     28 CL   UNL     1       1.503  -3.448  -0.424  0.00  0.00    -0.082 Cl
ATOM     29 CL   UNL     1       2.983   1.714   0.270  0.00  0.00    -0.082 Cl
ENDBRANCH   1  25
BRANCH   6  30
ATOM     30  C   UNL     1       7.574  -2.049  -2.552  0.00  0.00    +0.001 A 
ATOM     31  C   UNL     1       8.556  -1.130  -2.916  0.00  0.00    +0.013 A 
ATOM     32  C   UNL     1       9.882  -1.512  -2.935  0.00  0.00    +0.039 A 
ATOM     33  C   UNL     1      10.238  -2.806  -2.592  0.00  0.00    +0.125 A 
ATOM     34  C   UNL     1       9.266  -3.724  -2.230  0.00  0.00    +0.059 A 
ATOM     35  C   UNL     1       7.937  -3.349  -2.202  0.00  0.00    +0.051 A 
ATOM     36 CL   UNL     1       6.719  -4.497  -1.741  0.00  0.00    -0.083 Cl
ATOM     37  F   UNL     1      11.538  -3.175  -2.612  0.00  0.00    -0.205 F 
ENDBRANCH   6  30
TORSDOF 3
