REMARK  Name = CHEMBL440406
REMARK  6 active torsions:
REMARK  status: ('A' for Active; 'I' for Inactive)
REMARK    1  A    between atoms: C_1  and  C_2
REMARK    2  A    between atoms: C_5  and  C_25
REMARK    3  A    between atoms: C_7  and  N_8
REMARK    4  A    between atoms: N_13  and  C_18
REMARK    5  A    between atoms: C_18  and  C_19
REMARK    6  A    between atoms: N_27  and  C_28
REMARK                            x       y       z     vdW  Elec       q    Type
REMARK                         _______ _______ _______ _____ _____    ______ ____
ROOT
ATOM      1  N   UNL     1       0.025  -0.008   2.416  0.00  0.00    -0.299 N 
ATOM      2  C   UNL     1      -0.059  -0.701   3.610  0.00  0.00    +0.137 A 
ATOM      3  C   UNL     1      -0.169  -0.016   4.835  0.00  0.00    +0.079 A 
ATOM      4  C   UNL     1      -0.223   1.343   5.211  0.00  0.00    +0.148 A 
ATOM      5  N   UNL     1      -0.329   1.409   6.508  0.00  0.00    -0.177 NA
ATOM      6  N   UNL     1      -0.349   0.116   7.046  0.00  0.00    -0.242 N 
ATOM      7  C   UNL     1      -0.251  -0.775   6.019  0.00  0.00    +0.164 A 
ATOM      8  N   UNL     1      -0.220  -2.104   5.933  0.00  0.00    -0.216 NA
ATOM      9  C   UNL     1      -0.114  -2.699   4.765  0.00  0.00    +0.225 A 
ATOM     10  N   UNL     1      -0.042  -2.029   3.628  0.00  0.00    -0.220 NA
ATOM     11  H   UNL     1      -0.086   0.955   2.406  0.00  0.00    +0.154 HD
ENDROOT
BRANCH   1  18
ATOM     12  C   UNL     1      -0.949   1.120  -0.003  0.00  0.00    +0.045 C 
ATOM     13  C   UNL     1      -0.189  -0.181   0.018  0.00  0.00    -0.029 A 
ATOM     14  C   UNL     1       0.055  -0.855  -1.165  0.00  0.00    +0.006 A 
ATOM     15  C   UNL     1       0.751  -2.047  -1.154  0.00  0.00    +0.013 A 
ATOM     16  C   UNL     1       1.210  -2.576   0.053  0.00  0.00    +0.038 A 
ATOM     17  C   UNL     1       0.964  -1.897   1.246  0.00  0.00    +0.036 A 
ATOM     18  C   UNL     1       0.270  -0.697   1.224  0.00  0.00    +0.036 A 
BRANCH  16  19
ATOM     19  C   UNL     1       1.954  -3.854   0.068  0.00  0.00    +0.244 C 
ATOM     20  O   UNL     1       2.353  -4.313   1.120  0.00  0.00    -0.270 OA
ATOM     21  N   UNL     1       2.191  -4.509  -1.086  0.00  0.00    -0.314 N 
ATOM     22  C   UNL     1       2.928  -5.774  -1.072  0.00  0.00    +0.128 C 
ATOM     23  H   UNL     1       1.872  -4.142  -1.926  0.00  0.00    +0.149 HD
ENDBRANCH  16  19
ENDBRANCH   1  18
BRANCH   6  24
ATOM     24  C   UNL     1      -0.457  -0.221   8.467  0.00  0.00    +0.181 C 
BRANCH  24  25
ATOM     25  C   UNL     1      -1.910  -0.362   8.842  0.00  0.00    -0.026 A 
ATOM     26  C   UNL     1      -2.620   0.739   9.281  0.00  0.00    +0.005 A 
ATOM     27  C   UNL     1      -3.953   0.610   9.624  0.00  0.00    +0.000 A 
ATOM     28  C   UNL     1      -4.575  -0.621   9.527  0.00  0.00    +0.000 A 
ATOM     29  C   UNL     1      -3.865  -1.722   9.088  0.00  0.00    +0.000 A 
ATOM     30  C   UNL     1      -2.533  -1.592   8.740  0.00  0.00    +0.005 A 
ENDBRANCH  24  25
ENDBRANCH   6  24
TORSDOF 4
