REMARK  Name = CHEMBL428041
REMARK  6 active torsions:
REMARK  status: ('A' for Active; 'I' for Inactive)
REMARK    1  A    between atoms: C_1  and  N_2
REMARK    2  A    between atoms: N_2  and  C_3
REMARK    3  A    between atoms: C_4  and  C_6
REMARK    4  A    between atoms: C_6  and  C_8
REMARK    5  A    between atoms: C_15  and  C_19
REMARK    6  A    between atoms: C_28  and  C_29
REMARK                            x       y       z     vdW  Elec       q    Type
REMARK                         _______ _______ _______ _____ _____    ______ ____
ROOT
ATOM      1  C   UNL     1      -4.305  -8.748  -0.749  0.00  0.00    +0.248 C 
ATOM      2  O   UNL     1      -5.087  -9.667  -0.602  0.00  0.00    -0.270 OA
ATOM      3  N   UNL     1      -2.994  -9.002  -0.930  0.00  0.00    -0.290 N 
ATOM      4  C   UNL     1      -2.501 -10.382  -1.050  0.00  0.00    +0.130 C 
ATOM      5  C   UNL     1      -1.908 -10.590  -2.449  0.00  0.00    +0.142 C 
ATOM      6  N   UNL     1      -1.042  -9.457  -2.777  0.00  0.00    -0.325 N 
ATOM      7  C   UNL     1      -1.076  -8.236  -2.149  0.00  0.00    +0.056 A 
ATOM      8  C   UNL     1      -0.150  -7.461  -2.727  0.00  0.00    +0.136 A 
ATOM      9  N   UNL     1       0.453  -8.177  -3.688  0.00  0.00    -0.235 NA
ATOM     10  C   UNL     1      -0.074  -9.384  -3.728  0.00  0.00    +0.144 A 
ATOM     11  C   UNL     1      -2.014  -7.902  -1.019  0.00  0.00    +0.163 C 
ENDROOT
BRANCH   1  19
ATOM     12  C   UNL     1      -4.281  -3.898   0.877  0.00  0.00    +0.052 A 
ATOM     13  C   UNL     1      -5.124  -2.896   0.435  0.00  0.00    +0.095 A 
ATOM     14  N   UNL     1      -5.966  -3.390  -0.491  0.00  0.00    -0.360 N 
ATOM     15  H   UNL     1      -6.650  -2.873  -0.945  0.00  0.00    +0.165 HD
ATOM     16  C   UNL     1      -5.726  -4.730  -0.707  0.00  0.00    +0.049 A 
ATOM     17  C   UNL     1      -4.662  -5.113   0.129  0.00  0.00    +0.011 A 
ATOM     18  C   UNL     1      -4.198  -6.420   0.119  0.00  0.00    +0.025 A 
ATOM     19  C   UNL     1      -4.791  -7.354  -0.729  0.00  0.00    +0.056 A 
ATOM     20  C   UNL     1      -5.849  -6.968  -1.563  0.00  0.00    +0.055 A 
ATOM     21  C   UNL     1      -6.314  -5.673  -1.546  0.00  0.00    +0.047 A 
ATOM     22 CL   UNL     1      -6.585  -8.135  -2.617  0.00  0.00    -0.083 Cl
BRANCH  12  23
ATOM     23  C   UNL     1      -3.222  -3.778   1.878  0.00  0.00    +0.249 C 
ATOM     24  O   UNL     1      -2.548  -4.746   2.169  0.00  0.00    -0.282 OA
BRANCH  23  28
ATOM     25  C   UNL     1      -1.713  -1.065   4.090  0.00  0.00    +0.132 C 
ATOM     26  N   UNL     1      -1.899  -2.314   3.347  0.00  0.00    -0.301 N 
ATOM     27  C   UNL     1      -0.921  -3.398   3.479  0.00  0.00    +0.132 C 
ATOM     28  C   UNL     1      -2.969  -2.466   2.542  0.00  0.00    +0.287 C 
ATOM     29  O   UNL     1      -3.726  -1.536   2.357  0.00  0.00    -0.266 OA
ENDBRANCH  23  28
ENDBRANCH  12  23
ENDBRANCH   1  19
BRANCH  10  30
ATOM     30  C   UNL     1       0.319 -10.472  -4.649  0.00  0.00    +0.053 A 
ATOM     31  C   UNL     1      -0.657 -11.199  -5.332  0.00  0.00    +0.017 A 
ATOM     32  C   UNL     1      -0.285 -12.213  -6.190  0.00  0.00    +0.039 A 
ATOM     33  C   UNL     1       1.056 -12.511  -6.375  0.00  0.00    +0.126 A 
ATOM     34  C   UNL     1       2.031 -11.794  -5.700  0.00  0.00    +0.077 A 
ATOM     35  C   UNL     1       1.670 -10.773  -4.843  0.00  0.00    +0.137 A 
ATOM     36  F   UNL     1       2.621 -10.070  -4.189  0.00  0.00    -0.205 F 
ATOM     37  F   UNL     1       1.414 -13.506  -7.216  0.00  0.00    -0.205 F 
ENDBRANCH  10  30
TORSDOF 4
