REMARK  Name = CHEMBL492255
REMARK  8 active torsions:
REMARK  status: ('A' for Active; 'I' for Inactive)
REMARK    1  A    between atoms: C_6  and  C_7
REMARK    2  A    between atoms: C_8  and  C_17
REMARK    3  A    between atoms: C_11  and  S_13
REMARK    4  A    between atoms: S_13  and  C_14
REMARK    5  A    between atoms: C_14  and  C_15
REMARK    6  A    between atoms: C_15  and  O_16
REMARK    7  A    between atoms: N_23  and  C_24
REMARK    8  A    between atoms: C_27  and  O_30
REMARK                            x       y       z     vdW  Elec       q    Type
REMARK                         _______ _______ _______ _____ _____    ______ ____
ROOT
ATOM      1  C   UNL     1      -1.264  -0.762   0.011  0.00  0.00    +0.075 A 
ATOM      2  C   UNL     1      -1.581  -1.854  -0.774  0.00  0.00    +0.098 A 
ATOM      3  N   UNL     1      -2.831  -2.242  -0.451  0.00  0.00    -0.221 NA
ATOM      4  H   UNL     1      -2.454   0.176   1.474  0.00  0.00    +0.168 HD
ATOM      5  C   UNL     1      -3.306  -1.456   0.485  0.00  0.00    +0.167 A 
ATOM      6  N   UNL     1      -2.366  -0.525   0.809  0.00  0.00    -0.332 N 
ENDROOT
BRANCH   2   7
ATOM      7  C   UNL     1      -0.705  -2.485  -1.787  0.00  0.00    +0.007 A 
ATOM      8  C   UNL     1       0.175  -1.713  -2.558  0.00  0.00    +0.030 A 
ATOM      9  C   UNL     1       0.974  -2.337  -3.491  0.00  0.00    +0.113 A 
ATOM     10  N   UNL     1       0.921  -3.644  -3.666  0.00  0.00    -0.240 NA
ATOM     11  C   UNL     1       0.105  -4.414  -2.961  0.00  0.00    +0.119 A 
ATOM     12  C   UNL     1      -0.729  -3.866  -1.996  0.00  0.00    +0.053 A 
ATOM     13  N   UNL     1       0.087  -5.786  -3.186  0.00  0.00    -0.326 N 
ATOM     14  H   UNL     1       0.671  -6.175  -3.856  0.00  0.00    +0.148 HD
BRANCH  13  15
ATOM     15  C   UNL     1      -0.812  -6.644  -2.410  0.00  0.00    +0.072 C 
ATOM     16  C   UNL     1      -0.144  -7.018  -1.085  0.00  0.00    +0.025 C 
ATOM     17  C   UNL     1      -1.083  -7.914  -0.275  0.00  0.00    +0.033 C 
ATOM     18  C   UNL     1      -1.385  -9.185  -1.070  0.00  0.00    +0.115 C 
ATOM     19  C   UNL     1      -2.054  -8.812  -2.395  0.00  0.00    +0.033 C 
ATOM     20  C   UNL     1      -1.115  -7.916  -3.205  0.00  0.00    +0.025 C 
BRANCH  18  21
ATOM     21  O   UNL     1      -2.263 -10.022  -0.314  0.00  0.00    -0.392 OA
ATOM     22  H   UNL     1      -2.498 -10.849  -0.758  0.00  0.00    +0.210 HD
ENDBRANCH  18  21
ENDBRANCH  13  15
ENDBRANCH   2   7
BRANCH   1  28
ATOM     23  C   UNL     1      -0.017   1.393   0.010  0.00  0.00    +0.013 A 
ATOM     24  C   UNL     1       1.169   2.096   0.002  0.00  0.00    +0.039 A 
ATOM     25  C   UNL     1       2.379   1.419  -0.013  0.00  0.00    +0.123 A 
ATOM     26  C   UNL     1       2.404   0.033  -0.021  0.00  0.00    +0.039 A 
ATOM     27  C   UNL     1       1.224  -0.680  -0.014  0.00  0.00    +0.013 A 
ATOM     28  C   UNL     1       0.002  -0.004   0.002  0.00  0.00    +0.001 A 
ATOM     29  F   UNL     1       3.538   2.113  -0.022  0.00  0.00    -0.205 F 
ENDBRANCH   1  28
BRANCH   5  30
ATOM     30  S   UNL     1      -4.904  -1.589   1.215  0.00  0.00    -0.086 S 
BRANCH  30  31
ATOM     31  C   UNL     1      -5.655  -3.010   0.373  0.00  0.00    +0.105 C 
BRANCH  31  32
ATOM     32  C   UNL     1      -7.065  -3.239   0.919  0.00  0.00    +0.167 C 
BRANCH  32  33
ATOM     33  O   UNL     1      -7.656  -4.359   0.256  0.00  0.00    -0.394 OA
ATOM     34  H   UNL     1      -8.554  -4.563   0.553  0.00  0.00    +0.209 HD
ENDBRANCH  32  33
ENDBRANCH  31  32
ENDBRANCH  30  31
ENDBRANCH   5  30
TORSDOF 8
