REMARK  Name = CHEMBL278041
REMARK  4 active torsions:
REMARK  status: ('A' for Active; 'I' for Inactive)
REMARK    1  A    between atoms: C_3  and  O_26
REMARK    2  A    between atoms: C_6  and  C_7
REMARK    3  A    between atoms: C_10  and  C_20
REMARK    4  A    between atoms: C_11  and  C_13
REMARK                            x       y       z     vdW  Elec       q    Type
REMARK                         _______ _______ _______ _____ _____    ______ ____
ROOT
ATOM      1  C   UNL     1      -1.271  -0.766  -0.099  0.00  0.00    +0.139 A 
ATOM      2  N   UNL     1      -1.387  -2.125  -0.110  0.00  0.00    -0.337 N 
ATOM      3  H   UNL     1      -0.664  -2.764  -0.217  0.00  0.00    +0.167 HD
ATOM      4  C   UNL     1      -2.721  -2.421   0.060  0.00  0.00    +0.074 A 
ATOM      5  C   UNL     1      -3.379  -1.206   0.170  0.00  0.00    +0.097 A 
ATOM      6  N   UNL     1      -2.460  -0.233   0.073  0.00  0.00    -0.227 NA
ENDROOT
BRANCH   5   7
ATOM      7  C   UNL     1      -4.836  -1.016   0.365  0.00  0.00    +0.003 A 
ATOM      8  C   UNL     1      -5.530  -1.817   1.272  0.00  0.00    +0.013 A 
ATOM      9  C   UNL     1      -6.886  -1.636   1.451  0.00  0.00    +0.039 A 
ATOM     10  C   UNL     1      -7.558  -0.661   0.731  0.00  0.00    +0.123 A 
ATOM     11  C   UNL     1      -6.872   0.137  -0.171  0.00  0.00    +0.039 A 
ATOM     12  C   UNL     1      -5.515  -0.033  -0.353  0.00  0.00    +0.013 A 
ATOM     13  F   UNL     1      -8.886  -0.488   0.909  0.00  0.00    -0.205 F 
ENDBRANCH   5   7
BRANCH   1  19
ATOM     14  C   UNL     1      -0.019   1.384  -0.217  0.00  0.00    +0.015 A 
ATOM     15  C   UNL     1       1.161   2.083  -0.359  0.00  0.00    +0.046 A 
ATOM     16  C   UNL     1       2.358   1.400  -0.535  0.00  0.00    +0.117 A 
ATOM     17  C   UNL     1       2.371   0.012  -0.570  0.00  0.00    +0.046 A 
ATOM     18  C   UNL     1       1.196  -0.694  -0.429  0.00  0.00    +0.015 A 
ATOM     19  C   UNL     1      -0.009  -0.012  -0.251  0.00  0.00    +0.018 A 
BRANCH  16  20
ATOM     20  O   UNL     1       3.518   2.093  -0.674  0.00  0.00    -0.507 OA
ATOM     21  H   UNL     1       3.971   2.273   0.161  0.00  0.00    +0.292 HD
ENDBRANCH  16  20
ENDBRANCH   1  19
BRANCH   4  22
ATOM     22  C   UNL     1      -3.329  -3.763   0.115  0.00  0.00    +0.003 A 
ATOM     23  C   UNL     1      -4.472  -4.068  -0.637  0.00  0.00    +0.030 A 
ATOM     24  C   UNL     1      -5.007  -5.336  -0.556  0.00  0.00    +0.111 A 
ATOM     25  N   UNL     1      -4.457  -6.255   0.216  0.00  0.00    -0.263 NA
ATOM     26  C   UNL     1      -3.381  -6.011   0.940  0.00  0.00    +0.111 A 
ATOM     27  C   UNL     1      -2.777  -4.772   0.916  0.00  0.00    +0.030 A 
ENDBRANCH   4  22
TORSDOF 4
