REMARK  Name = CHEMBL18782
REMARK  4 active torsions:
REMARK  status: ('A' for Active; 'I' for Inactive)
REMARK    1  A    between atoms: C_1  and  N_2
REMARK    2  A    between atoms: C_8  and  C_23
REMARK    3  A    between atoms: C_10  and  N_11
REMARK    4  A    between atoms: N_11  and  C_12
REMARK                            x       y       z     vdW  Elec       q    Type
REMARK                         _______ _______ _______ _____ _____    ______ ____
ROOT
ATOM      1  C   UNL     1      -0.071   1.466   0.054  0.00  0.00    +0.152 C 
ATOM      2  N   UNL     1      -0.043   0.002   0.036  0.00  0.00    -0.318 N 
ATOM      3  C   UNL     1      -0.052  -0.792  -1.073  0.00  0.00    +0.201 A 
ATOM      4  N   UNL     1      -0.021  -2.045  -0.723  0.00  0.00    -0.231 NA
ATOM      5  C   UNL     1       0.011  -2.137   0.627  0.00  0.00    +0.148 A 
ATOM      6  C   UNL     1       0.003  -0.823   1.132  0.00  0.00    +0.166 A 
ATOM      7  N   UNL     1       0.036  -0.634   2.445  0.00  0.00    -0.208 NA
ATOM      8  C   UNL     1       0.079  -1.668   3.273  0.00  0.00    +0.167 A 
ATOM      9  N   UNL     1       0.091  -2.924   2.840  0.00  0.00    -0.209 NA
ATOM     10  C   UNL     1       0.052  -3.202   1.543  0.00  0.00    +0.165 A 
ENDROOT
BRANCH   8  11
ATOM     11  C   UNL     1       0.115  -1.414   4.733  0.00  0.00    +0.055 A 
ATOM     12  C   UNL     1       0.166  -2.482   5.628  0.00  0.00    +0.017 A 
ATOM     13  C   UNL     1       0.200  -2.241   6.985  0.00  0.00    +0.039 A 
ATOM     14  C   UNL     1       0.183  -0.940   7.462  0.00  0.00    +0.126 A 
ATOM     15  C   UNL     1       0.133   0.126   6.579  0.00  0.00    +0.077 A 
ATOM     16  C   UNL     1       0.104  -0.104   5.216  0.00  0.00    +0.137 A 
ATOM     17  F   UNL     1       0.059   0.936   4.355  0.00  0.00    -0.205 F 
ATOM     18  F   UNL     1       0.216  -0.710   8.793  0.00  0.00    -0.205 F 
ENDBRANCH   8  11
BRANCH  10  19
ATOM     19  N   UNL     1       0.068  -4.519   1.099  0.00  0.00    -0.201 N 
ATOM     20  C   UNL     1      -1.086  -5.206   0.987  0.00  0.00    +0.310 C 
ATOM     21  O   UNL     1      -1.065  -6.385   0.692  0.00  0.00    -0.252 OA
ATOM     22  N   UNL     1      -2.263  -4.585   1.202  0.00  0.00    -0.313 N 
ATOM     23  H   UNL     1      -2.285  -3.629   1.363  0.00  0.00    +0.147 HD
ATOM     24  H   UNL     1      -3.088  -5.095   1.194  0.00  0.00    +0.147 HD
BRANCH  19  25
ATOM     25  C   UNL     1       1.285  -5.133   0.768  0.00  0.00    +0.114 A 
ATOM     26  C   UNL     1       1.776  -5.053  -0.529  0.00  0.00    +0.148 A 
ATOM     27  C   UNL     1       2.976  -5.660  -0.852  0.00  0.00    +0.040 A 
ATOM     28  C   UNL     1       3.688  -6.347   0.114  0.00  0.00    +0.006 A 
ATOM     29  C   UNL     1       3.203  -6.429   1.407  0.00  0.00    +0.040 A 
ATOM     30  C   UNL     1       2.006  -5.819   1.738  0.00  0.00    +0.148 A 
ATOM     31  F   UNL     1       1.536  -5.895   3.003  0.00  0.00    -0.203 F 
ATOM     32  F   UNL     1       1.081  -4.383  -1.475  0.00  0.00    -0.203 F 
ENDBRANCH  19  25
ENDBRANCH  10  19
TORSDOF 3
