REMARK  Name = CHEMBL591275
REMARK  8 active torsions:
REMARK  status: ('A' for Active; 'I' for Inactive)
REMARK    1  A    between atoms: C_1  and  C_2
REMARK    2  A    between atoms: C_5  and  N_21
REMARK    3  A    between atoms: C_7  and  N_8
REMARK    4  A    between atoms: N_8  and  C_9
REMARK    5  A    between atoms: N_17  and  C_20
REMARK    6  A    between atoms: C_22  and  C_24
REMARK    7  A    between atoms: C_25  and  C_34
REMARK    8  A    between atoms: C_28  and  C_30
REMARK                            x       y       z     vdW  Elec       q    Type
REMARK                         _______ _______ _______ _____ _____    ______ ____
ROOT
ATOM      1  N   UNL     1       1.842  -3.448  -0.821  0.00  0.00    -0.280 N 
ATOM      2  C   UNL     1       1.627  -4.209  -1.913  0.00  0.00    +0.267 C 
ATOM      3  O   UNL     1       0.979  -3.767  -2.845  0.00  0.00    -0.268 OA
ATOM      4  H   UNL     1       2.275  -3.830  -0.042  0.00  0.00    +0.155 HD
ENDROOT
BRANCH   1   9
ATOM      5  C   UNL     1       0.214   1.990  -0.801  0.00  0.00    +0.045 C 
ATOM      6  C   UNL     1       0.646   0.547  -0.805  0.00  0.00    -0.029 A 
ATOM      7  C   UNL     1       1.058  -0.047  -1.982  0.00  0.00    +0.007 A 
ATOM      8  C   UNL     1       1.455  -1.371  -1.990  0.00  0.00    +0.024 A 
ATOM      9  C   UNL     1       1.441  -2.109  -0.812  0.00  0.00    +0.035 A 
ATOM     10  C   UNL     1       1.028  -1.516   0.372  0.00  0.00    +0.046 A 
ATOM     11  C   UNL     1       0.634  -0.184   0.377  0.00  0.00    +0.036 A 
BRANCH  11  12
ATOM     12  N   UNL     1       0.222   0.418   1.568  0.00  0.00    -0.314 N 
ATOM     13  H   UNL     1      -0.161   1.310   1.554  0.00  0.00    +0.152 HD
BRANCH  12  14
ATOM     14  C   UNL     1       0.362  -0.263   2.781  0.00  0.00    +0.032 A 
ATOM     15  C   UNL     1       1.524  -0.991   3.038  0.00  0.00    +0.025 A 
ATOM     16  C   UNL     1       1.684  -1.664   4.215  0.00  0.00    +0.030 A 
ATOM     17  C   UNL     1       0.675  -1.628   5.180  0.00  0.00    +0.078 A 
ATOM     18  C   UNL     1      -0.504  -0.893   4.926  0.00  0.00    +0.067 A 
ATOM     19  C   UNL     1      -0.652  -0.206   3.723  0.00  0.00    +0.038 A 
ATOM     20  C   UNL     1      -1.546  -0.877   5.963  0.00  0.00    +0.261 A 
ATOM     21  O   UNL     1      -2.585  -0.263   5.806  0.00  0.00    -0.267 OA
ATOM     22  N   UNL     1      -1.305  -1.572   7.099  0.00  0.00    -0.302 N 
ATOM     23  C   UNL     1      -0.139  -2.253   7.259  0.00  0.00    +0.202 A 
ATOM     24  N   UNL     1       0.798  -2.285   6.361  0.00  0.00    -0.237 NA
ATOM     25  C   UNL     1      -2.308  -1.590   8.166  0.00  0.00    +0.153 C 
ENDBRANCH  12  14
ENDBRANCH  11  12
ENDBRANCH   1   9
BRANCH   2  26
ATOM     26  C   UNL     1       2.172  -5.566  -1.979  0.00  0.00    +0.130 A 
ATOM     27  C   UNL     1       2.158  -6.421  -3.074  0.00  0.00    +0.102 A 
ATOM     28  N   UNL     1       2.761  -7.559  -2.699  0.00  0.00    -0.223 NA
ATOM     29  H   UNL     1       2.984  -5.930  -0.069  0.00  0.00    +0.167 HD
ATOM     30  C   UNL     1       3.144  -7.465  -1.454  0.00  0.00    +0.213 A 
ATOM     31  N   UNL     1       2.811  -6.256  -0.966  0.00  0.00    -0.331 N 
BRANCH  27  32
ATOM     32  C   UNL     1       1.583  -6.130  -4.408  0.00  0.00    +0.005 A 
ATOM     33  C   UNL     1       1.795  -4.887  -5.005  0.00  0.00    +0.013 A 
ATOM     34  C   UNL     1       1.258  -4.620  -6.247  0.00  0.00    +0.042 A 
ATOM     35  C   UNL     1       0.508  -5.583  -6.903  0.00  0.00    +0.158 A 
ATOM     36  C   UNL     1       0.294  -6.822  -6.314  0.00  0.00    +0.159 A 
ATOM     37  C   UNL     1       0.833  -7.100  -5.072  0.00  0.00    +0.051 A 
ATOM     38  F   UNL     1      -0.438  -7.757  -6.957  0.00  0.00    -0.202 F 
ATOM     39  F   UNL     1      -0.015  -5.317  -8.119  0.00  0.00    -0.202 F 
ENDBRANCH  27  32
BRANCH  30  40
ATOM     40  C   UNL     1       3.857  -8.545  -0.681  0.00  0.00    +0.450 C 
ATOM     41  F   UNL     1       4.346  -9.508  -1.570  0.00  0.00    -0.163 F 
ATOM     42  F   UNL     1       4.922  -7.983   0.030  0.00  0.00    -0.163 F 
ATOM     43  F   UNL     1       2.964  -9.146   0.213  0.00  0.00    -0.163 F 
ENDBRANCH  30  40
ENDBRANCH   2  26
TORSDOF 6
