REMARK  Name = CHEMBL1088442
REMARK  7 active torsions:
REMARK  status: ('A' for Active; 'I' for Inactive)
REMARK    1  A    between atoms: C_1  and  C_2
REMARK    2  A    between atoms: C_2  and  C_3
REMARK    3  A    between atoms: C_3  and  N_4
REMARK    4  A    between atoms: C_5  and  C_7
REMARK    5  A    between atoms: C_10  and  C_31
REMARK    6  A    between atoms: C_11  and  N_13
REMARK    7  A    between atoms: N_18  and  C_23
REMARK                            x       y       z     vdW  Elec       q    Type
REMARK                         _______ _______ _______ _____ _____    ______ ____
ROOT
ATOM      1  N   UNL     1       2.578  -6.869  -4.391  0.00  0.00    -0.297 N 
ATOM      2  C   UNL     1       3.579  -6.261  -5.135  0.00  0.00    +0.156 A 
ATOM      3  C   UNL     1       4.117  -6.901  -6.267  0.00  0.00    +0.063 A 
ATOM      4  C   UNL     1       3.894  -8.127  -6.926  0.00  0.00    +0.146 A 
ATOM      5  N   UNL     1       4.699  -8.202  -7.949  0.00  0.00    -0.173 NA
ATOM      6  N   UNL     1       5.485  -7.044  -8.019  0.00  0.00    -0.228 N 
ATOM      7  C   UNL     1       5.133  -6.229  -6.980  0.00  0.00    +0.098 A 
ATOM      8  C   UNL     1       5.535  -4.977  -6.518  0.00  0.00    +0.163 A 
ATOM      9  N   UNL     1       4.964  -4.468  -5.447  0.00  0.00    -0.154 NA
ATOM     10  N   UNL     1       4.038  -5.068  -4.795  0.00  0.00    -0.133 NA
ATOM     11  H   UNL     1       2.305  -7.777  -4.596  0.00  0.00    +0.154 HD
ENDROOT
BRANCH   6  12
ATOM     12  C   UNL     1       6.462  -6.769  -8.986  0.00  0.00    +0.101 A 
ATOM     13  C   UNL     1       7.728  -6.353  -8.598  0.00  0.00    +0.033 A 
ATOM     14  C   UNL     1       8.689  -6.083  -9.552  0.00  0.00    +0.040 A 
ATOM     15  C   UNL     1       8.392  -6.227 -10.897  0.00  0.00    +0.126 A 
ATOM     16  C   UNL     1       7.130  -6.642 -11.289  0.00  0.00    +0.078 A 
ATOM     17  C   UNL     1       6.166  -6.919 -10.337  0.00  0.00    +0.151 A 
ATOM     18  F   UNL     1       4.937  -7.330 -10.719  0.00  0.00    -0.203 F 
ATOM     19  F   UNL     1       9.334  -5.962 -11.828  0.00  0.00    -0.205 F 
ENDBRANCH   6  12
BRANCH   1  24
ATOM     20  C   UNL     1       1.335  -4.097  -2.305  0.00  0.00    +0.038 A 
ATOM     21  C   UNL     1       0.737  -4.808  -1.263  0.00  0.00    +0.013 A 
ATOM     22  C   UNL     1       0.755  -6.187  -1.268  0.00  0.00    +0.006 A 
ATOM     23  C   UNL     1       1.364  -6.871  -2.304  0.00  0.00    -0.029 A 
ATOM     24  C   UNL     1       1.962  -6.173  -3.347  0.00  0.00    +0.036 A 
ATOM     25  C   UNL     1       1.944  -4.787  -3.353  0.00  0.00    +0.036 A 
ATOM     26  C   UNL     1       1.381  -8.378  -2.302  0.00  0.00    +0.045 C 
BRANCH  20  28
ATOM     27  N   UNL     1       0.726  -1.954  -1.288  0.00  0.00    -0.311 N 
ATOM     28  C   UNL     1       1.316  -2.619  -2.302  0.00  0.00    +0.244 C 
ATOM     29  O   UNL     1       1.833  -2.002  -3.213  0.00  0.00    -0.270 OA
ATOM     30  H   UNL     1       0.314  -2.446  -0.561  0.00  0.00    +0.149 HD
BRANCH  27  31
ATOM     31  C   UNL     1       0.708  -0.490  -1.285  0.00  0.00    +0.104 C 
BRANCH  31  33
ATOM     32  C   UNL     1      -0.036   1.538  -0.029  0.00  0.00    +0.005 C 
ATOM     33  C   UNL     1      -0.017   0.008  -0.033  0.00  0.00    +0.015 C 
ENDBRANCH  31  33
ENDBRANCH  27  31
ENDBRANCH  20  28
ENDBRANCH   1  24
TORSDOF 5
