REMARK  Name = CHEMBL290971
REMARK  10 active torsions:
REMARK  status: ('A' for Active; 'I' for Inactive)
REMARK    1  A    between atoms: C_1  and  C_2
REMARK    2  A    between atoms: C_2  and  C_3
REMARK    3  A    between atoms: C_2  and  C_4
REMARK    4  A    between atoms: C_2  and  C_5
REMARK    5  A    between atoms: C_7  and  N_11
REMARK    6  A    between atoms: N_8  and  C_10
REMARK    7  A    between atoms: N_14  and  C_15
REMARK    8  A    between atoms: C_18  and  S_21
REMARK    9  A    between atoms: S_21  and  C_22
REMARK   10  A    between atoms: C_25  and  O_28
REMARK                            x       y       z     vdW  Elec       q    Type
REMARK                         _______ _______ _______ _____ _____    ______ ____
ROOT
ATOM      1  N   UNL     1       3.627  -0.724  -3.730  0.00  0.00    -0.254 N 
ATOM      2  C   UNL     1       4.714  -0.312  -3.047  0.00  0.00    +0.309 C 
ATOM      3  O   UNL     1       4.629   0.624  -2.276  0.00  0.00    -0.252 OA
ATOM      4  N   UNL     1       5.895  -0.938  -3.220  0.00  0.00    -0.269 N 
ATOM      5  H   UNL     1       3.695  -1.470  -4.345  0.00  0.00    +0.158 HD
ATOM      6  H   UNL     1       5.948  -1.728  -3.781  0.00  0.00    +0.156 HD
ENDROOT
BRANCH   1   9
ATOM      7  C   UNL     1       0.818   1.322  -2.847  0.00  0.00    +0.070 A 
ATOM      8  C   UNL     1       2.167   0.980  -2.726  0.00  0.00    +0.069 A 
ATOM      9  C   UNL     1       2.405  -0.076  -3.551  0.00  0.00    +0.124 A 
ATOM     10  N   UNL     1       1.241  -0.382  -4.168  0.00  0.00    -0.253 N 
ATOM     11  N   UNL     1       0.262   0.506  -3.705  0.00  0.00    -0.174 NA
ATOM     12  C   UNL     1       1.038  -1.455  -5.144  0.00  0.00    +0.174 C 
BRANCH   7  14
ATOM     13  C   UNL     1       0.516   3.781  -2.726  0.00  0.00    +0.017 C 
ATOM     14  C   UNL     1       0.121   2.437  -2.110  0.00  0.00    +0.006 C 
ATOM     15  C   UNL     1       0.533   2.411  -0.637  0.00  0.00    +0.017 C 
ATOM     16  C   UNL     1      -1.394   2.252  -2.219  0.00  0.00    +0.017 C 
ENDBRANCH   7  14
ENDBRANCH   1   9
BRANCH   4  17
ATOM     17  C   UNL     1       7.046  -0.449  -2.588  0.00  0.00    +0.035 A 
ATOM     18  C   UNL     1       8.275  -0.520  -3.232  0.00  0.00    +0.024 A 
ATOM     19  C   UNL     1       9.409  -0.038  -2.611  0.00  0.00    +0.017 A 
ATOM     20  C   UNL     1       9.322   0.519  -1.341  0.00  0.00    +0.013 A 
ATOM     21  C   UNL     1       8.093   0.591  -0.697  0.00  0.00    +0.017 A 
ATOM     22  C   UNL     1       6.958   0.113  -1.321  0.00  0.00    +0.024 A 
BRANCH  20  23
ATOM     23  S   UNL     1      10.770   1.133  -0.546  0.00  0.00    -0.089 S 
BRANCH  23  24
ATOM     24  C   UNL     1      12.025   0.985  -1.774  0.00  0.00    +0.013 A 
ATOM     25  C   UNL     1      12.201   1.993  -2.713  0.00  0.00    +0.018 A 
ATOM     26  C   UNL     1      13.186   1.876  -3.675  0.00  0.00    +0.046 A 
ATOM     27  C   UNL     1      13.998   0.752  -3.703  0.00  0.00    +0.117 A 
ATOM     28  C   UNL     1      13.823  -0.256  -2.765  0.00  0.00    +0.046 A 
ATOM     29  C   UNL     1      12.843  -0.138  -1.800  0.00  0.00    +0.018 A 
BRANCH  27  30
ATOM     30  O   UNL     1      14.967   0.637  -4.650  0.00  0.00    -0.507 OA
ATOM     31  H   UNL     1      15.821   1.006  -4.386  0.00  0.00    +0.292 HD
ENDBRANCH  27  30
ENDBRANCH  23  24
ENDBRANCH  20  23
ENDBRANCH   4  17
TORSDOF 6
