REMARK  Name = CHEMBL184271
REMARK  10 active torsions:
REMARK  status: ('A' for Active; 'I' for Inactive)
REMARK    1  A    between atoms: C_1  and  C_2
REMARK    2  A    between atoms: C_5  and  N_30
REMARK    3  A    between atoms: C_7  and  N_8
REMARK    4  A    between atoms: C_12  and  O_21
REMARK    5  A    between atoms: C_13  and  O_19
REMARK    6  A    between atoms: O_19  and  C_20
REMARK    7  A    between atoms: O_21  and  C_22
REMARK    8  A    between atoms: C_22  and  C_23
REMARK    9  A    between atoms: C_23  and  N_24
REMARK   10  A    between atoms: C_31  and  C_33
REMARK                            x       y       z     vdW  Elec       q    Type
REMARK                         _______ _______ _______ _____ _____    ______ ____
ROOT
ATOM      1  C   UNL     1      -1.051   0.459  -1.195  0.00  0.00    +0.045 C 
ATOM      2  C   UNL     1      -0.005  -0.553  -1.586  0.00  0.00    -0.029 A 
ATOM      3  C   UNL     1       0.077  -0.990  -2.894  0.00  0.00    +0.007 A 
ATOM      4  C   UNL     1       1.035  -1.917  -3.257  0.00  0.00    +0.024 A 
ATOM      5  C   UNL     1       1.918  -2.414  -2.307  0.00  0.00    +0.035 A 
ATOM      6  C   UNL     1       1.839  -1.978  -0.992  0.00  0.00    +0.046 A 
ATOM      7  C   UNL     1       0.879  -1.041  -0.632  0.00  0.00    +0.037 A 
ENDROOT
BRANCH   7   8
ATOM      8  N   UNL     1       0.799  -0.594   0.690  0.00  0.00    -0.299 N 
ATOM      9  C   UNL     1       1.252  -1.397   1.718  0.00  0.00    +0.134 A 
ATOM     10  C   UNL     1       1.304  -0.913   3.047  0.00  0.00    +0.044 A 
ATOM     11  C   UNL     1       0.902   0.387   3.380  0.00  0.00    +0.062 A 
ATOM     12  C   UNL     1       0.972   0.805   4.678  0.00  0.00    +0.163 A 
ATOM     13  C   UNL     1       1.440  -0.053   5.683  0.00  0.00    +0.164 A 
ATOM     14  C   UNL     1       1.840  -1.336   5.383  0.00  0.00    +0.078 A 
ATOM     15  C   UNL     1       1.778  -1.786   4.058  0.00  0.00    +0.080 A 
ATOM     16  N   UNL     1       2.156  -3.027   3.713  0.00  0.00    -0.235 NA
ATOM     17  C   UNL     1       2.086  -3.420   2.464  0.00  0.00    +0.223 A 
ATOM     18  N   UNL     1       1.645  -2.643   1.488  0.00  0.00    -0.220 NA
ATOM     19  H   UNL     1       0.426   0.279   0.885  0.00  0.00    +0.154 HD
BRANCH  13  20
ATOM     20  O   UNL     1       1.500   0.386   6.967  0.00  0.00    -0.491 OA
ATOM     21  C   UNL     1       1.986  -0.535   7.946  0.00  0.00    +0.277 C 
ENDBRANCH  13  20
BRANCH  12  22
ATOM     22  O   UNL     1       0.582   2.067   4.999  0.00  0.00    -0.487 OA
BRANCH  22  23
ATOM     23  C   UNL     1       0.115   2.894   3.931  0.00  0.00    +0.244 C 
BRANCH  23  24
ATOM     24  C   UNL     1      -0.276   4.267   4.481  0.00  0.00    +0.125 C 
BRANCH  24  25
ATOM     25  N   UNL     1       0.922   4.949   4.989  0.00  0.00    -0.295 NA
ATOM     26  C   UNL     1       0.559   6.027   5.920  0.00  0.00    +0.112 C 
ATOM     27  C   UNL     1       1.835   6.671   6.470  0.00  0.00    +0.175 C 
ATOM     28  O   UNL     1       2.633   7.142   5.380  0.00  0.00    -0.377 OA
ATOM     29  C   UNL     1       3.005   6.117   4.454  0.00  0.00    +0.175 C 
ATOM     30  C   UNL     1       1.741   5.468   3.884  0.00  0.00    +0.112 C 
ENDBRANCH  24  25
ENDBRANCH  23  24
ENDBRANCH  22  23
ENDBRANCH  12  22
ENDBRANCH   7   8
BRANCH   5  31
ATOM     31  N   UNL     1       2.887  -3.353  -2.675  0.00  0.00    -0.281 N 
ATOM     32  C   UNL     1       3.457  -3.292  -3.894  0.00  0.00    +0.248 C 
ATOM     33  O   UNL     1       3.192  -2.371  -4.643  0.00  0.00    -0.270 OA
ATOM     34  H   UNL     1       3.148  -4.050  -2.052  0.00  0.00    +0.155 HD
BRANCH  32  35
ATOM     35  C   UNL     1       4.405  -4.345  -4.323  0.00  0.00    +0.042 A 
ATOM     36  C   UNL     1       4.719  -5.417  -3.478  0.00  0.00    +0.033 A 
ATOM     37  C   UNL     1       5.608  -6.378  -3.913  0.00  0.00    +0.113 A 
ATOM     38  N   UNL     1       6.162  -6.301  -5.108  0.00  0.00    -0.240 NA
ATOM     39  C   UNL     1       5.895  -5.307  -5.940  0.00  0.00    +0.122 A 
ATOM     40  C   UNL     1       5.006  -4.299  -5.582  0.00  0.00    +0.056 A 
ATOM     41  N   UNL     1       6.506  -5.273  -7.188  0.00  0.00    -0.311 N 
ATOM     42  C   UNL     1       7.273  -6.425  -7.688  0.00  0.00    +0.134 C 
ATOM     43  C   UNL     1       6.778  -6.760  -9.100  0.00  0.00    +0.178 C 
ATOM     44  O   UNL     1       6.812  -5.577  -9.903  0.00  0.00    -0.377 OA
ATOM     45  C   UNL     1       5.953  -4.532  -9.443  0.00  0.00    +0.178 C 
ATOM     46  C   UNL     1       6.401  -4.085  -8.051  0.00  0.00    +0.134 C 
ENDBRANCH  32  35
ENDBRANCH   5  31
TORSDOF 8
