REMARK  Name = CHEMBL496313
REMARK  4 active torsions:
REMARK  status: ('A' for Active; 'I' for Inactive)
REMARK    1  A    between atoms: C_1  and  C_2
REMARK    2  A    between atoms: C_5  and  C_21
REMARK    3  A    between atoms: C_7  and  C_8
REMARK    4  A    between atoms: N_23  and  C_24
REMARK                            x       y       z     vdW  Elec       q    Type
REMARK                         _______ _______ _______ _____ _____    ______ ____
ROOT
ATOM      1  C   UNL     1       0.025   0.029   2.495  0.00  0.00    -0.017 A 
ATOM      2  C   UNL     1       0.939   1.069   2.703  0.00  0.00    +0.010 A 
ATOM      3  C   UNL     1       0.958   1.759   3.878  0.00  0.00    +0.029 A 
ATOM      4  C   UNL     1       0.056   1.430   4.897  0.00  0.00    +0.080 A 
ATOM      5  C   UNL     1      -0.870   0.381   4.694  0.00  0.00    +0.065 A 
ATOM      6  C   UNL     1      -0.884  -0.313   3.488  0.00  0.00    +0.024 A 
ATOM      7  C   UNL     1      -1.804   0.060   5.783  0.00  0.00    +0.260 A 
ATOM      8  O   UNL     1      -2.624  -0.832   5.669  0.00  0.00    -0.267 OA
ATOM      9  N   UNL     1      -1.718   0.794   6.917  0.00  0.00    -0.295 N 
ATOM     10  H   UNL     1      -2.318   0.611   7.656  0.00  0.00    +0.172 HD
ATOM     11  C   UNL     1      -0.791   1.790   7.027  0.00  0.00    +0.194 A 
ATOM     12  N   UNL     1       0.050   2.094   6.071  0.00  0.00    -0.216 NA
ATOM     13  N   UNL     1      -0.740   2.509   8.195  0.00  0.00    -0.329 N 
ATOM     14  H   UNL     1      -1.353   2.303   8.918  0.00  0.00    +0.145 HD
ATOM     15  H   UNL     1      -0.090   3.222   8.297  0.00  0.00    +0.145 HD
ENDROOT
BRANCH   1  22
ATOM     16  C   UNL     1      -0.018   1.503   0.010  0.00  0.00    +0.044 C 
ATOM     17  C   UNL     1       0.002  -0.004   0.002  0.00  0.00    -0.043 A 
ATOM     18  C   UNL     1       0.006  -0.686  -1.199  0.00  0.00    +0.005 A 
ATOM     19  C   UNL     1       0.024  -2.067  -1.216  0.00  0.00    +0.013 A 
ATOM     20  C   UNL     1       0.040  -2.781  -0.016  0.00  0.00    +0.037 A 
ATOM     21  C   UNL     1       0.037  -2.097   1.199  0.00  0.00    +0.021 A 
ATOM     22  C   UNL     1       0.023  -0.706   1.207  0.00  0.00    -0.014 A 
BRANCH  20  23
ATOM     23  C   UNL     1       0.059  -4.260  -0.034  0.00  0.00    +0.244 C 
ATOM     24  O   UNL     1       0.072  -4.880   1.012  0.00  0.00    -0.270 OA
ATOM     25  N   UNL     1       0.061  -4.919  -1.209  0.00  0.00    -0.308 N 
ATOM     26  H   UNL     1       0.051  -4.424  -2.043  0.00  0.00    +0.149 HD
BRANCH  25  27
ATOM     27  C   UNL     1       0.080  -6.384  -1.227  0.00  0.00    +0.073 C 
ATOM     28  C   UNL     1       1.020  -7.066  -2.223  0.00  0.00    +0.024 C 
ATOM     29  C   UNL     1      -0.491  -7.083  -2.462  0.00  0.00    +0.024 C 
ENDBRANCH  25  27
ENDBRANCH  20  23
ENDBRANCH   1  22
TORSDOF 3
