REMARK  Name = CHEMBL324977
REMARK  8 active torsions:
REMARK  status: ('A' for Active; 'I' for Inactive)
REMARK    1  A    between atoms: C_1  and  C_2
REMARK    2  A    between atoms: C_2  and  C_3
REMARK    3  A    between atoms: C_2  and  N_9
REMARK    4  A    between atoms: C_12  and  C_16
REMARK    5  A    between atoms: C_17  and  C_24
REMARK    6  A    between atoms: C_19  and  S_22
REMARK    7  A    between atoms: N_20  and  C_21
REMARK    8  A    between atoms: S_22  and  C_23
REMARK                            x       y       z     vdW  Elec       q    Type
REMARK                         _______ _______ _______ _____ _____    ______ ____
ROOT
ATOM      1  N   UNL     1       0.711  -0.489   1.189  0.00  0.00    -0.324 N 
ATOM      2  C   UNL     1       0.030  -0.638   2.393  0.00  0.00    +0.097 A 
ATOM      3  C   UNL     1      -1.321  -0.330   2.459  0.00  0.00    +0.051 A 
ATOM      4  C   UNL     1      -1.990  -0.485   3.678  0.00  0.00    +0.005 A 
ATOM      5  C   UNL     1      -1.258  -0.949   4.783  0.00  0.00    +0.027 A 
ATOM      6  C   UNL     1       0.080  -1.231   4.630  0.00  0.00    +0.085 A 
ATOM      7  N   UNL     1       0.678  -1.078   3.462  0.00  0.00    -0.350 N 
ATOM      8  H   UNL     1       1.654  -0.707   1.135  0.00  0.00    +0.148 HD
ATOM      9  H   UNL     1       1.622  -1.289   3.385  0.00  0.00    +0.166 HD
ENDROOT
BRANCH   4  10
ATOM     10  C   UNL     1      -3.425  -0.170   3.799  0.00  0.00    +0.077 A 
ATOM     11  C   UNL     1      -4.075   0.942   3.298  0.00  0.00    +0.098 A 
ATOM     12  N   UNL     1      -5.376   0.840   3.629  0.00  0.00    -0.221 NA
ATOM     13  C   UNL     1      -5.573  -0.268   4.305  0.00  0.00    +0.169 A 
ATOM     14  N   UNL     1      -4.392  -0.932   4.432  0.00  0.00    -0.321 N 
ATOM     15  C   UNL     1      -4.182  -2.212   5.113  0.00  0.00    +0.151 C 
BRANCH  11  16
ATOM     16  C   UNL     1      -3.452   2.048   2.534  0.00  0.00    +0.003 A 
ATOM     17  C   UNL     1      -2.153   2.459   2.833  0.00  0.00    +0.013 A 
ATOM     18  C   UNL     1      -1.577   3.489   2.119  0.00  0.00    +0.039 A 
ATOM     19  C   UNL     1      -2.286   4.115   1.107  0.00  0.00    +0.123 A 
ATOM     20  C   UNL     1      -3.577   3.711   0.807  0.00  0.00    +0.039 A 
ATOM     21  C   UNL     1      -4.160   2.678   1.511  0.00  0.00    +0.013 A 
ATOM     22  F   UNL     1      -1.718   5.124   0.410  0.00  0.00    -0.205 F 
ENDBRANCH  11  16
BRANCH  13  23
ATOM     23  S   UNL     1      -7.123  -0.812   4.942  0.00  0.00    -0.091 S 
ATOM     24  C   UNL     1      -8.285   0.488   4.440  0.00  0.00    +0.093 C 
ENDBRANCH  13  23
ENDBRANCH   4  10
BRANCH   1  26
ATOM     25  C   UNL     1      -0.019   1.526   0.010  0.00  0.00    +0.033 C 
ATOM     26  C   UNL     1       0.002  -0.004   0.002  0.00  0.00    +0.099 C 
BRANCH  26  27
ATOM     27  C   UNL     1       0.707  -0.490  -1.238  0.00  0.00    -0.028 A 
ATOM     28  C   UNL     1       2.089  -0.511  -1.284  0.00  0.00    +0.005 A 
ATOM     29  C   UNL     1       2.736  -0.957  -2.421  0.00  0.00    +0.000 A 
ATOM     30  C   UNL     1       2.002  -1.382  -3.512  0.00  0.00    +0.000 A 
ATOM     31  C   UNL     1       0.620  -1.362  -3.466  0.00  0.00    +0.000 A 
ATOM     32  C   UNL     1      -0.027  -0.920  -2.327  0.00  0.00    +0.005 A 
ENDBRANCH  26  27
ENDBRANCH   1  26
TORSDOF 5
