REMARK  Name = CHEMBL244172
REMARK  7 active torsions:
REMARK  status: ('A' for Active; 'I' for Inactive)
REMARK    1  A    between atoms: C_1  and  O_2
REMARK    2  A    between atoms: O_2  and  C_3
REMARK    3  A    between atoms: C_4  and  C_23
REMARK    4  A    between atoms: C_7  and  C_13
REMARK    5  A    between atoms: C_13  and  C_15
REMARK    6  A    between atoms: C_20  and  O_22
REMARK    7  A    between atoms: C_32  and  C_33
REMARK                            x       y       z     vdW  Elec       q    Type
REMARK                         _______ _______ _______ _____ _____    ______ ____
ROOT
ATOM      1  C   UNL     1       0.737  -0.383  -1.112  0.00  0.00    +0.229 A 
ATOM      2  C   UNL     1       0.574  -1.776  -1.214  0.00  0.00    +0.099 A 
ATOM      3  C   UNL     1       0.967  -2.419  -2.392  0.00  0.00    +0.030 A 
ATOM      4  C   UNL     1       1.504  -1.642  -3.411  0.00  0.00    +0.031 A 
ATOM      5  C   UNL     1       2.019  -1.938  -4.763  0.00  0.00    +0.053 A 
ATOM      6  C   UNL     1       2.417  -0.727  -5.293  0.00  0.00    +0.097 A 
ATOM      7  N   UNL     1       2.189   0.257  -4.393  0.00  0.00    -0.345 N 
ATOM      8  H   UNL     1       2.388   1.194  -4.540  0.00  0.00    +0.167 HD
ATOM      9  C   UNL     1       1.637  -0.253  -3.240  0.00  0.00    +0.143 A 
ATOM     10  N   UNL     1       1.246   0.318  -2.105  0.00  0.00    -0.194 NA
ENDROOT
BRANCH   2  11
ATOM     11  C   UNL     1      -0.001  -2.547  -0.096  0.00  0.00    +0.252 C 
ATOM     12  O   UNL     1       0.445  -2.414   1.027  0.00  0.00    -0.270 OA
ATOM     13  N   UNL     1      -1.021  -3.399  -0.320  0.00  0.00    -0.290 N 
ATOM     14  C   UNL     1      -1.676  -4.103   0.792  0.00  0.00    +0.130 C 
ATOM     15  C   UNL     1      -3.137  -3.651   0.890  0.00  0.00    +0.142 C 
ATOM     16  N   UNL     1      -3.732  -3.653  -0.447  0.00  0.00    -0.325 N 
ATOM     17  C   UNL     1      -3.019  -3.647  -1.621  0.00  0.00    +0.056 A 
ATOM     18  C   UNL     1      -3.904  -3.642  -2.627  0.00  0.00    +0.136 A 
ATOM     19  N   UNL     1      -5.137  -3.650  -2.098  0.00  0.00    -0.235 NA
ATOM     20  C   UNL     1      -5.048  -3.658  -0.784  0.00  0.00    +0.144 A 
ATOM     21  C   UNL     1      -1.515  -3.648  -1.688  0.00  0.00    +0.163 C 
BRANCH  20  22
ATOM     22  C   UNL     1      -6.184  -3.672   0.162  0.00  0.00    +0.053 A 
ATOM     23  C   UNL     1      -6.192  -2.811   1.260  0.00  0.00    +0.017 A 
ATOM     24  C   UNL     1      -7.254  -2.828   2.139  0.00  0.00    +0.039 A 
ATOM     25  C   UNL     1      -8.314  -3.698   1.935  0.00  0.00    +0.126 A 
ATOM     26  C   UNL     1      -8.314  -4.555   0.847  0.00  0.00    +0.077 A 
ATOM     27  C   UNL     1      -7.258  -4.543  -0.044  0.00  0.00    +0.137 A 
ATOM     28  F   UNL     1      -7.260  -5.376  -1.108  0.00  0.00    -0.205 F 
ATOM     29  F   UNL     1      -9.352  -3.709   2.800  0.00  0.00    -0.205 F 
ENDBRANCH  20  22
ENDBRANCH   2  11
BRANCH   1  31
ATOM     30  C   UNL     1       0.544   1.666   0.070  0.00  0.00    +0.279 C 
ATOM     31  O   UNL     1       0.360   0.249   0.025  0.00  0.00    -0.479 OA
ENDBRANCH   1  31
BRANCH   5  32
ATOM     32  C   UNL     1       2.094  -3.248  -5.408  0.00  0.00    +0.249 C 
ATOM     33  O   UNL     1       1.705  -4.239  -4.820  0.00  0.00    -0.282 OA
BRANCH  32  34
ATOM     34  C   UNL     1       2.647  -3.370  -6.788  0.00  0.00    +0.287 C 
ATOM     35  O   UNL     1       3.035  -2.381  -7.375  0.00  0.00    -0.266 OA
ATOM     36  N   UNL     1       2.716  -4.577  -7.383  0.00  0.00    -0.292 N 
ATOM     37  C   UNL     1       2.276  -5.853  -6.790  0.00  0.00    +0.111 C 
ATOM     38  C   UNL     1       1.976  -6.771  -8.002  0.00  0.00    +0.052 C 
ATOM     39  C   UNL     1       3.094  -6.353  -8.993  0.00  0.00    +0.133 C 
ATOM     40  C   UNL     1       3.236  -4.839  -8.733  0.00  0.00    +0.139 C 
BRANCH  39  41
ATOM     41  O   UNL     1       2.690  -6.596 -10.342  0.00  0.00    -0.390 OA
ATOM     42  H   UNL     1       3.354  -6.351 -11.002  0.00  0.00    +0.210 HD
ENDBRANCH  39  41
ENDBRANCH  32  34
ENDBRANCH   5  32
TORSDOF 6
