REMARK  Name = CHEMBL302728
REMARK  3 active torsions:
REMARK  status: ('A' for Active; 'I' for Inactive)
REMARK    1  A    between atoms: C_4  and  C_7
REMARK    2  A    between atoms: C_8  and  C_19
REMARK    3  A    between atoms: C_11  and  C_13
REMARK                            x       y       z     vdW  Elec       q    Type
REMARK                         _______ _______ _______ _____ _____    ______ ____
ROOT
ATOM      1  C   UNL     1       3.694  -0.683  -0.037  0.00  0.00    +0.076 A 
ATOM      2  C   UNL     1       4.046  -1.776   0.739  0.00  0.00    +0.115 A 
ATOM      3  N   UNL     1       5.304  -2.120   0.413  0.00  0.00    -0.226 NA
ATOM      4  H   UNL     1       4.846   0.308  -1.485  0.00  0.00    +0.167 HD
ATOM      5  C   UNL     1       5.753  -1.309  -0.516  0.00  0.00    +0.139 A 
ATOM      6  N   UNL     1       4.781  -0.402  -0.828  0.00  0.00    -0.337 N 
ENDROOT
BRANCH   2   7
ATOM      7  C   UNL     1       3.192  -2.444   1.744  0.00  0.00    +0.096 A 
ATOM      8  C   UNL     1       3.410  -3.784   2.087  0.00  0.00    +0.050 A 
ATOM      9  C   UNL     1       2.586  -4.365   3.032  0.00  0.00    +0.116 A 
ATOM     10  N   UNL     1       1.621  -3.643   3.582  0.00  0.00    -0.223 NA
ATOM     11  C   UNL     1       1.436  -2.377   3.240  0.00  0.00    +0.213 A 
ATOM     12  N   UNL     1       2.205  -1.778   2.344  0.00  0.00    -0.213 NA
ATOM     13  N   UNL     1       0.416  -1.659   3.839  0.00  0.00    -0.327 N 
ATOM     14  H   UNL     1      -0.153  -2.083   4.500  0.00  0.00    +0.145 HD
ATOM     15  H   UNL     1       0.269  -0.731   3.598  0.00  0.00    +0.145 HD
ENDBRANCH   2   7
BRANCH   1  19
ATOM     16  C   UNL     1      -0.017   1.380   0.010  0.00  0.00    +0.000 A 
ATOM     17  C   UNL     1       1.168   2.094   0.002  0.00  0.00    +0.001 A 
ATOM     18  C   UNL     1       2.377   1.431  -0.013  0.00  0.00    +0.010 A 
ATOM     19  C   UNL     1       2.404   0.034  -0.021  0.00  0.00    +0.000 A 
ATOM     20  C   UNL     1       1.204  -0.681  -0.013  0.00  0.00    +0.010 A 
ATOM     21  C   UNL     1       0.002  -0.004   0.002  0.00  0.00    +0.001 A 
ENDBRANCH   1  19
BRANCH   5  22
ATOM     22  C   UNL     1       7.097  -1.370  -1.130  0.00  0.00    +0.017 A 
ATOM     23  C   UNL     1       7.464  -0.444  -2.108  0.00  0.00    +0.011 A 
ATOM     24  C   UNL     1       8.719  -0.507  -2.676  0.00  0.00    +0.001 A 
ATOM     25  C   UNL     1       9.614  -1.484  -2.279  0.00  0.00    +0.000 A 
ATOM     26  C   UNL     1       9.257  -2.405  -1.310  0.00  0.00    +0.001 A 
ATOM     27  C   UNL     1       8.007  -2.350  -0.730  0.00  0.00    +0.011 A 
ENDBRANCH   5  22
TORSDOF 3
