REMARK  Name = CHEMBL255410
REMARK  14 active torsions:
REMARK  status: ('A' for Active; 'I' for Inactive)
REMARK    1  A    between atoms: C_1  and  C_2
REMARK    2  A    between atoms: C_5  and  N_8
REMARK    3  A    between atoms: C_9  and  N_17
REMARK    4  A    between atoms: C_11  and  C_13
REMARK    5  A    between atoms: C_13  and  C_14
REMARK    6  A    between atoms: C_13  and  C_15
REMARK    7  A    between atoms: C_13  and  C_16
REMARK    8  A    between atoms: C_18  and  C_20
REMARK    9  A    between atoms: C_20  and  C_23
REMARK   10  A    between atoms: N_21  and  O_22
REMARK   11  A    between atoms: C_26  and  O_33
REMARK   12  A    between atoms: O_33  and  C_34
REMARK   13  A    between atoms: C_34  and  C_35
REMARK   14  A    between atoms: C_35  and  N_36
REMARK                            x       y       z     vdW  Elec       q    Type
REMARK                         _______ _______ _______ _____ _____    ______ ____
ROOT
ATOM      1  C   UNL     1       2.535  -5.115   3.739  0.00  0.00    +0.172 C 
ATOM      2  N   UNL     1       2.548  -3.841   4.017  0.00  0.00    -0.082 NA
ENDROOT
BRANCH   1   3
ATOM      3  C   UNL     1       3.187  -6.077   4.651  0.00  0.00    +0.017 A 
ATOM      4  C   UNL     1       4.563  -6.050   4.825  0.00  0.00    +0.014 A 
ATOM      5  C   UNL     1       5.187  -6.948   5.679  0.00  0.00    +0.047 A 
ATOM      6  C   UNL     1       4.457  -7.889   6.375  0.00  0.00    +0.128 A 
ATOM      7  C   UNL     1       3.056  -7.945   6.222  0.00  0.00    +0.024 A 
ATOM      8  C   UNL     1       2.412  -7.029   5.357  0.00  0.00    -0.005 A 
ATOM      9  C   UNL     1       1.019  -7.083   5.209  0.00  0.00    +0.009 A 
ATOM     10  C   UNL     1       0.302  -8.012   5.903  0.00  0.00    +0.001 A 
ATOM     11  C   UNL     1       0.935  -8.911   6.759  0.00  0.00    +0.001 A 
ATOM     12  C   UNL     1       2.287  -8.893   6.917  0.00  0.00    +0.012 A 
BRANCH   6  13
ATOM     13  O   UNL     1       5.086  -8.759   7.205  0.00  0.00    -0.490 OA
BRANCH  13  14
ATOM     14  C   UNL     1       6.507  -8.643   7.311  0.00  0.00    +0.244 C 
BRANCH  14  15
ATOM     15  C   UNL     1       7.033  -9.699   8.284  0.00  0.00    +0.125 C 
BRANCH  15  16
ATOM     16  N   UNL     1       6.771 -11.039   7.742  0.00  0.00    -0.295 NA
ATOM     17  C   UNL     1       6.827 -12.056   8.802  0.00  0.00    +0.112 C 
ATOM     18  C   UNL     1       6.490 -13.426   8.206  0.00  0.00    +0.175 C 
ATOM     19  O   UNL     1       7.394 -13.710   7.135  0.00  0.00    -0.377 OA
ATOM     20  C   UNL     1       7.366 -12.739   6.085  0.00  0.00    +0.175 C 
ATOM     21  C   UNL     1       7.712 -11.363   6.660  0.00  0.00    +0.112 C 
ENDBRANCH  15  16
ENDBRANCH  14  15
ENDBRANCH  13  14
ENDBRANCH   6  13
ENDBRANCH   1   3
BRANCH   1  23
ATOM     22  N   UNL     1       1.776  -6.920   2.265  0.00  0.00    -0.265 N 
ATOM     23  C   UNL     1       1.865  -5.597   2.509  0.00  0.00    +0.271 C 
ATOM     24  O   UNL     1       1.396  -4.801   1.720  0.00  0.00    -0.268 OA
ATOM     25  H   UNL     1       2.216  -7.552   2.854  0.00  0.00    +0.157 HD
BRANCH  22  27
ATOM     26  N   UNL     1       0.877  -8.678   0.802  0.00  0.00    -0.218 N 
ATOM     27  C   UNL     1       1.051  -7.378   1.167  0.00  0.00    +0.129 A 
ATOM     28  C   UNL     1       0.385  -6.608   0.263  0.00  0.00    +0.069 A 
ATOM     29  C   UNL     1      -0.207  -7.460  -0.673  0.00  0.00    +0.071 A 
ATOM     30  N   UNL     1       0.090  -8.695  -0.356  0.00  0.00    -0.169 NA
BRANCH  26  35
ATOM     31  C   UNL     1       2.988 -13.215   3.479  0.00  0.00    +0.044 C 
ATOM     32  C   UNL     1       2.428 -12.010   2.768  0.00  0.00    -0.050 A 
ATOM     33  C   UNL     1       1.186 -12.082   2.163  0.00  0.00    +0.005 A 
ATOM     34  C   UNL     1       0.670 -10.979   1.511  0.00  0.00    +0.028 A 
ATOM     35  C   UNL     1       1.398  -9.798   1.464  0.00  0.00    +0.067 A 
ATOM     36  C   UNL     1       2.644  -9.729   2.073  0.00  0.00    +0.028 A 
ATOM     37  C   UNL     1       3.153 -10.834   2.728  0.00  0.00    +0.005 A 
ENDBRANCH  26  35
BRANCH  29  38
ATOM     38  C   UNL     1      -1.042  -7.030  -1.852  0.00  0.00    +0.006 C 
ATOM     39  C   UNL     1      -0.131  -6.459  -2.940  0.00  0.00    +0.017 C 
ATOM     40  C   UNL     1      -1.803  -8.237  -2.405  0.00  0.00    +0.017 C 
ATOM     41  C   UNL     1      -2.039  -5.958  -1.407  0.00  0.00    +0.017 C 
ENDBRANCH  29  38
ENDBRANCH  22  27
ENDBRANCH   1  23
BRANCH   2  42
ATOM     42  O   UNL     1       1.823  -2.932   3.209  0.00  0.00    -0.409 OA
ATOM     43  H   UNL     1       1.894  -2.011   3.493  0.00  0.00    +0.328 HD
ENDBRANCH   2  42
TORSDOF 10
