REMARK  Name = CHEMBL442972
REMARK  7 active torsions:
REMARK  status: ('A' for Active; 'I' for Inactive)
REMARK    1  A    between atoms: C_1  and  C_2
REMARK    2  A    between atoms: C_2  and  C_3
REMARK    3  A    between atoms: C_2  and  C_4
REMARK    4  A    between atoms: C_4  and  N_5
REMARK    5  A    between atoms: C_10  and  C_12
REMARK    6  A    between atoms: C_13  and  C_26
REMARK    7  A    between atoms: C_15  and  C_18
REMARK                            x       y       z     vdW  Elec       q    Type
REMARK                         _______ _______ _______ _____ _____    ______ ____
ROOT
ATOM      1  C   UNL     1      -1.566  -2.853  -4.943  0.00  0.00    +0.093 A 
ATOM      2  C   UNL     1      -2.064  -1.655  -5.427  0.00  0.00    +0.099 A 
ATOM      3  N   UNL     1      -1.925  -1.663  -6.762  0.00  0.00    -0.227 NA
ATOM      4  C   UNL     1      -1.371  -2.793  -7.140  0.00  0.00    +0.145 A 
ATOM      5  N   UNL     1      -1.125  -3.562  -6.039  0.00  0.00    -0.336 N 
ATOM      6  H   UNL     1      -0.718  -4.442  -6.030  0.00  0.00    +0.167 HD
ENDROOT
BRANCH   1  12
ATOM      7  N   UNL     1      -1.416  -1.993  -0.116  0.00  0.00    -0.297 N 
ATOM      8  C   UNL     1      -1.446  -2.711  -1.296  0.00  0.00    +0.162 A 
ATOM      9  C   UNL     1      -1.413  -4.069  -0.925  0.00  0.00    +0.110 A 
ATOM     10  C   UNL     1      -1.432  -5.050  -1.923  0.00  0.00    +0.034 A 
ATOM     11  C   UNL     1      -1.482  -4.649  -3.231  0.00  0.00    +0.032 A 
ATOM     12  C   UNL     1      -1.513  -3.283  -3.534  0.00  0.00    +0.092 A 
ATOM     13  N   UNL     1      -1.494  -2.367  -2.571  0.00  0.00    -0.226 NA
ATOM     14  N   UNL     1      -1.367  -4.114   0.431  0.00  0.00    -0.213 NA
ATOM     15  C   UNL     1      -1.363  -2.895   0.910  0.00  0.00    +0.195 A 
ATOM     16  N   UNL     1      -1.316  -2.570   2.249  0.00  0.00    -0.329 N 
ATOM     17  H   UNL     1      -1.320  -1.640   2.523  0.00  0.00    +0.145 HD
ATOM     18  H   UNL     1      -1.279  -3.272   2.917  0.00  0.00    +0.145 HD
BRANCH   7  19
ATOM     19  C   UNL     1      -1.433  -0.534   0.013  0.00  0.00    +0.129 C 
BRANCH  19  21
ATOM     20  C   UNL     1      -0.019   1.526   0.010  0.00  0.00    +0.009 C 
ATOM     21  C   UNL     1       0.002  -0.004   0.002  0.00  0.00    +0.003 C 
ATOM     22  C   UNL     1       0.742  -0.511   1.242  0.00  0.00    +0.009 C 
ENDBRANCH  19  21
ENDBRANCH   7  19
ENDBRANCH   1  12
BRANCH   4  23
ATOM     23  C   UNL     1      -1.058  -3.169  -8.534  0.00  0.00    +0.087 A 
ATOM     24  C   UNL     1      -0.472  -4.407  -8.813  0.00  0.00    +0.137 A 
ATOM     25  C   UNL     1      -0.183  -4.752 -10.120  0.00  0.00    +0.039 A 
ATOM     26  C   UNL     1      -0.472  -3.876 -11.150  0.00  0.00    +0.006 A 
ATOM     27  C   UNL     1      -1.052  -2.649 -10.882  0.00  0.00    +0.039 A 
ATOM     28  C   UNL     1      -1.352  -2.292  -9.582  0.00  0.00    +0.137 A 
ATOM     29  F   UNL     1      -1.924  -1.095  -9.322  0.00  0.00    -0.205 F 
ATOM     30  F   UNL     1      -0.189  -5.265  -7.808  0.00  0.00    -0.205 F 
ENDBRANCH   4  23
BRANCH   2  31
ATOM     31  C   UNL     1      -2.646  -0.560  -4.616  0.00  0.00    +0.003 A 
ATOM     32  C   UNL     1      -3.387  -0.854  -3.472  0.00  0.00    +0.010 A 
ATOM     33  C   UNL     1      -3.926   0.171  -2.721  0.00  0.00    +0.001 A 
ATOM     34  C   UNL     1      -3.734   1.487  -3.101  0.00  0.00    +0.000 A 
ATOM     35  C   UNL     1      -3.000   1.784  -4.236  0.00  0.00    +0.001 A 
ATOM     36  C   UNL     1      -2.451   0.769  -4.992  0.00  0.00    +0.010 A 
ENDBRANCH   2  31
TORSDOF 5
