REMARK  Name = CHEMBL197267
REMARK  8 active torsions:
REMARK  status: ('A' for Active; 'I' for Inactive)
REMARK    1  A    between atoms: C_4  and  C_7
REMARK    2  A    between atoms: C_7  and  C_8
REMARK    3  A    between atoms: C_8  and  C_10
REMARK    4  A    between atoms: C_8  and  N_34
REMARK    5  A    between atoms: C_10  and  N_11
REMARK    6  A    between atoms: C_14  and  C_28
REMARK    7  A    between atoms: C_15  and  C_18
REMARK    8  A    between atoms: C_22  and  C_24
REMARK                            x       y       z     vdW  Elec       q    Type
REMARK                         _______ _______ _______ _____ _____    ______ ____
ROOT
ATOM      1  N   UNL     1       5.717  -2.923   4.210  0.00  0.00    -0.329 N 
ATOM      2  C   UNL     1       6.987  -3.173   3.703  0.00  0.00    +0.142 A 
ATOM      3  C   UNL     1       7.182  -4.212   2.794  0.00  0.00    +0.057 A 
ATOM      4  C   UNL     1       8.475  -4.424   2.314  0.00  0.00    +0.031 A 
ATOM      5  C   UNL     1       9.496  -3.573   2.781  0.00  0.00    +0.103 A 
ATOM      6  N   UNL     1       9.204  -2.613   3.647  0.00  0.00    -0.147 NA
ATOM      7  N   UNL     1       8.011  -2.421   4.080  0.00  0.00    -0.134 NA
ATOM      8  H   UNL     1       5.581  -2.197   4.840  0.00  0.00    +0.147 HD
ENDROOT
BRANCH   5   9
ATOM      9  C   UNL     1      10.888  -3.750   2.307  0.00  0.00    +0.003 A 
ATOM     10  C   UNL     1      11.143  -3.989   0.957  0.00  0.00    +0.010 A 
ATOM     11  C   UNL     1      12.442  -4.152   0.521  0.00  0.00    +0.001 A 
ATOM     12  C   UNL     1      13.491  -4.080   1.421  0.00  0.00    +0.012 A 
ATOM     13  C   UNL     1      13.244  -3.844   2.761  0.00  0.00    +0.055 A 
ATOM     14  C   UNL     1      11.950  -3.672   3.208  0.00  0.00    +0.022 A 
BRANCH  13  15
ATOM     15  C   UNL     1      14.392  -3.767   3.735  0.00  0.00    +0.417 C 
ATOM     16  F   UNL     1      15.597  -3.965   3.052  0.00  0.00    -0.166 F 
ATOM     17  F   UNL     1      14.403  -2.508   4.345  0.00  0.00    -0.166 F 
ATOM     18  F   UNL     1      14.242  -4.757   4.712  0.00  0.00    -0.166 F 
ENDBRANCH  13  15
ENDBRANCH   5   9
BRANCH   4  19
ATOM     19  C   UNL     1       8.764  -5.508   1.345  0.00  0.00    +0.076 A 
ATOM     20  C   UNL     1       7.975  -5.670   0.203  0.00  0.00    +0.048 A 
ATOM     21  C   UNL     1       8.287  -6.697  -0.670  0.00  0.00    +0.114 A 
ATOM     22  N   UNL     1       9.315  -7.487  -0.397  0.00  0.00    -0.244 NA
ATOM     23  C   UNL     1      10.040  -7.308   0.690  0.00  0.00    +0.221 A 
ATOM     24  N   UNL     1       9.783  -6.342   1.546  0.00  0.00    -0.235 NA
ENDBRANCH   4  19
BRANCH   1  25
ATOM     25  C   UNL     1       4.585  -3.754   3.794  0.00  0.00    +0.087 C 
BRANCH  25  26
ATOM     26  C   UNL     1       3.313  -3.271   4.493  0.00  0.00    -0.053 C 
BRANCH  26  27
ATOM     27  N   UNL     1       3.119  -1.839   4.224  0.00  0.00    +0.381 N 
ATOM     28  H   UNL     1       3.912  -1.321   4.572  0.00  0.00    -0.090 HD
ATOM     29  H   UNL     1       3.033  -1.694   3.229  0.00  0.00    -0.090 HD
ATOM     30  H   UNL     1       2.280  -1.521   4.685  0.00  0.00    -0.090 HD
ENDBRANCH  26  27
BRANCH  26  31
ATOM     31  C   UNL     1       2.111  -4.056   3.966  0.00  0.00    +0.020 C 
BRANCH  31  35
ATOM     32  C   UNL     1      -1.386  -2.956   6.159  0.00  0.00    +0.000 A 
ATOM     33  C   UNL     1      -1.042  -2.263   5.014  0.00  0.00    +0.000 A 
ATOM     34  C   UNL     1       0.090  -2.618   4.304  0.00  0.00    +0.003 A 
ATOM     35  C   UNL     1       0.877  -3.668   4.740  0.00  0.00    -0.049 A 
ATOM     36  C   UNL     1       0.534  -4.361   5.885  0.00  0.00    +0.003 A 
ATOM     37  C   UNL     1      -0.599  -4.006   6.594  0.00  0.00    +0.000 A 
ENDBRANCH  31  35
ENDBRANCH  26  31
ENDBRANCH  25  26
ENDBRANCH   1  25
TORSDOF 8
