REMARK  Name = CHEMBL258653
REMARK  4 active torsions:
REMARK  status: ('A' for Active; 'I' for Inactive)
REMARK    1  A    between atoms: C_1  and  C_2
REMARK    2  A    between atoms: C_5  and  C_24
REMARK    3  A    between atoms: C_7  and  N_8
REMARK    4  A    between atoms: N_26  and  C_27
REMARK                            x       y       z     vdW  Elec       q    Type
REMARK                         _______ _______ _______ _____ _____    ______ ____
ROOT
ATOM      1  N   UNL     1       0.025  -0.008   2.416  0.00  0.00    -0.299 N 
ATOM      2  C   UNL     1      -0.059  -0.701   3.610  0.00  0.00    +0.137 A 
ATOM      3  C   UNL     1      -0.169  -0.016   4.835  0.00  0.00    +0.079 A 
ATOM      4  C   UNL     1      -0.223   1.344   5.211  0.00  0.00    +0.148 A 
ATOM      5  N   UNL     1      -0.328   1.411   6.508  0.00  0.00    -0.171 NA
ATOM      6  N   UNL     1      -0.349   0.119   7.048  0.00  0.00    -0.196 N 
ATOM      7  C   UNL     1      -0.251  -0.775   6.018  0.00  0.00    +0.170 A 
ATOM      8  N   UNL     1      -0.221  -2.103   5.933  0.00  0.00    -0.216 NA
ATOM      9  C   UNL     1      -0.116  -2.699   4.765  0.00  0.00    +0.225 A 
ATOM     10  N   UNL     1      -0.042  -2.029   3.628  0.00  0.00    -0.220 NA
ATOM     11  C   UNL     1      -0.453  -0.201   8.403  0.00  0.00    +0.156 A 
ATOM     12  C   UNL     1      -0.039   0.717   9.361  0.00  0.00    +0.048 A 
ATOM     13  C   UNL     1      -0.147   0.388  10.700  0.00  0.00    +0.005 A 
ATOM     14  C   UNL     1      -0.667  -0.855  11.037  0.00  0.00    +0.020 A 
ATOM     15  C   UNL     1      -1.059  -1.718  10.032  0.00  0.00    +0.113 A 
ATOM     16  N   UNL     1      -0.949  -1.374   8.764  0.00  0.00    -0.236 NA
ATOM     17  H   UNL     1      -0.086   0.955   2.406  0.00  0.00    +0.154 HD
ENDROOT
BRANCH   1  24
ATOM     18  C   UNL     1      -0.950   1.120  -0.003  0.00  0.00    +0.045 C 
ATOM     19  C   UNL     1      -0.189  -0.181   0.018  0.00  0.00    -0.029 A 
ATOM     20  C   UNL     1       0.055  -0.855  -1.165  0.00  0.00    +0.006 A 
ATOM     21  C   UNL     1       0.751  -2.046  -1.154  0.00  0.00    +0.013 A 
ATOM     22  C   UNL     1       1.212  -2.575   0.053  0.00  0.00    +0.038 A 
ATOM     23  C   UNL     1       0.965  -1.896   1.246  0.00  0.00    +0.036 A 
ATOM     24  C   UNL     1       0.270  -0.697   1.224  0.00  0.00    +0.036 A 
BRANCH  22  25
ATOM     25  C   UNL     1       1.957  -3.852   0.068  0.00  0.00    +0.244 C 
ATOM     26  O   UNL     1       2.357  -4.311   1.120  0.00  0.00    -0.270 OA
ATOM     27  N   UNL     1       2.193  -4.507  -1.086  0.00  0.00    -0.314 N 
ATOM     28  C   UNL     1       2.932  -5.772  -1.072  0.00  0.00    +0.128 C 
ATOM     29  H   UNL     1       1.874  -4.141  -1.926  0.00  0.00    +0.149 HD
ENDBRANCH  22  25
ENDBRANCH   1  24
TORSDOF 2
