REMARK  Name = CHEMBL325211
REMARK  6 active torsions:
REMARK  status: ('A' for Active; 'I' for Inactive)
REMARK    1  A    between atoms: C_4  and  C_7
REMARK    2  A    between atoms: C_7  and  O_8
REMARK    3  A    between atoms: O_8  and  C_9
REMARK    4  A    between atoms: C_11  and  N_32
REMARK    5  A    between atoms: C_15  and  C_26
REMARK    6  A    between atoms: C_16  and  C_19
REMARK                            x       y       z     vdW  Elec       q    Type
REMARK                         _______ _______ _______ _____ _____    ______ ____
ROOT
ATOM      1  C   UNL     1       5.317  -1.604   1.466  0.00  0.00    +0.135 A 
ATOM      2  C   UNL     1       6.061  -2.015   0.371  0.00  0.00    +0.089 A 
ATOM      3  C   UNL     1       7.263  -2.686   0.580  0.00  0.00    +0.122 A 
ATOM      4  N   UNL     1       7.709  -2.940   1.798  0.00  0.00    -0.215 NA
ATOM      5  C   UNL     1       7.034  -2.569   2.883  0.00  0.00    +0.145 A 
ATOM      6  C   UNL     1       5.817  -1.883   2.747  0.00  0.00    +0.069 A 
ATOM      7  C   UNL     1       5.335  -1.613   4.109  0.00  0.00    +0.020 A 
ATOM      8  C   UNL     1       6.279  -2.140   4.966  0.00  0.00    +0.057 A 
ATOM      9  N   UNL     1       7.285  -2.716   4.227  0.00  0.00    -0.338 N 
ATOM     10  H   UNL     1       8.066  -3.154   4.601  0.00  0.00    +0.167 HD
ENDROOT
BRANCH   8  11
ATOM     11  C   UNL     1       6.214  -2.101   6.440  0.00  0.00    -0.001 A 
ATOM     12  C   UNL     1       5.850  -0.923   7.096  0.00  0.00    +0.013 A 
ATOM     13  C   UNL     1       5.791  -0.893   8.473  0.00  0.00    +0.039 A 
ATOM     14  C   UNL     1       6.092  -2.029   9.207  0.00  0.00    +0.123 A 
ATOM     15  C   UNL     1       6.454  -3.202   8.562  0.00  0.00    +0.039 A 
ATOM     16  C   UNL     1       6.511  -3.245   7.185  0.00  0.00    +0.013 A 
ATOM     17  F   UNL     1       6.032  -1.994  10.556  0.00  0.00    -0.205 F 
ENDBRANCH   8  11
BRANCH   7  18
ATOM     18  C   UNL     1       4.088  -0.914   4.485  0.00  0.00    -0.012 A 
ATOM     19  C   UNL     1       3.896   0.437   4.172  0.00  0.00    +0.028 A 
ATOM     20  C   UNL     1       2.717   1.048   4.542  0.00  0.00    +0.111 A 
ATOM     21  N   UNL     1       1.778   0.377   5.181  0.00  0.00    -0.263 NA
ATOM     22  C   UNL     1       1.917  -0.897   5.496  0.00  0.00    +0.111 A 
ATOM     23  C   UNL     1       3.062  -1.588   5.160  0.00  0.00    +0.028 A 
ENDBRANCH   7  18
BRANCH   3  24
ATOM     24  N   UNL     1       8.010  -3.099  -0.517  0.00  0.00    -0.343 N 
ATOM     25  H   UNL     1       7.693  -2.918  -1.416  0.00  0.00    +0.144 HD
ATOM     26  H   UNL     1       8.849  -3.568  -0.384  0.00  0.00    +0.144 HD
ENDBRANCH   3  24
BRANCH   1  27
ATOM     27  O   UNL     1       4.141  -0.946   1.304  0.00  0.00    -0.487 OA
BRANCH  27  28
ATOM     28  C   UNL     1       3.711  -0.707  -0.038  0.00  0.00    +0.264 C 
BRANCH  28  32
ATOM     29  C   UNL     1      -0.017   1.378   0.010  0.00  0.00    +0.000 A 
ATOM     30  C   UNL     1       1.171   2.086   0.002  0.00  0.00    +0.000 A 
ATOM     31  C   UNL     1       2.377   1.411  -0.013  0.00  0.00    +0.007 A 
ATOM     32  C   UNL     1       2.396   0.029  -0.020  0.00  0.00    -0.010 A 
ATOM     33  C   UNL     1       1.208  -0.679  -0.012  0.00  0.00    +0.007 A 
ATOM     34  C   UNL     1       0.002  -0.004   0.002  0.00  0.00    +0.000 A 
ENDBRANCH  28  32
ENDBRANCH  27  28
ENDBRANCH   1  27
TORSDOF 6
