REMARK  Name = CHEMBL564912
REMARK  3 active torsions:
REMARK  status: ('A' for Active; 'I' for Inactive)
REMARK    1  A    between atoms: C_4  and  N_8
REMARK    2  A    between atoms: C_11  and  C_27
REMARK    3  A    between atoms: C_13  and  C_19
REMARK                            x       y       z     vdW  Elec       q    Type
REMARK                         _______ _______ _______ _____ _____    ______ ____
ROOT
ATOM      1  N   UNL     1       3.625  -0.652  -0.036  0.00  0.00    -0.237 N 
ATOM      2  C   UNL     1       4.220  -0.977  -1.260  0.00  0.00    +0.045 A 
ATOM      3  C   UNL     1       3.763  -0.385  -2.432  0.00  0.00    +0.028 A 
ATOM      4  C   UNL     1       4.356  -0.691  -3.642  0.00  0.00    -0.042 A 
ATOM      5  C   UNL     1       5.407  -1.586  -3.694  0.00  0.00    +0.013 A 
ATOM      6  C   UNL     1       5.868  -2.188  -2.525  0.00  0.00    -0.010 A 
ATOM      7  C   UNL     1       5.265  -1.885  -1.307  0.00  0.00    -0.017 A 
ATOM      8  C   UNL     1       5.738  -2.560  -0.045  0.00  0.00    +0.047 C 
ATOM      9  C   UNL     1       5.588  -1.603   1.138  0.00  0.00    +0.101 C 
ATOM     10  C   UNL     1       4.217  -0.982   1.124  0.00  0.00    +0.225 C 
ATOM     11  O   UNL     1       3.639  -0.781   2.172  0.00  0.00    -0.275 OA
ENDROOT
BRANCH   1  15
ATOM     12  C   UNL     1      -0.017   1.379   0.010  0.00  0.00    +0.003 A 
ATOM     13  C   UNL     1       1.169   2.089   0.002  0.00  0.00    +0.022 A 
ATOM     14  C   UNL     1       2.378   1.420  -0.013  0.00  0.00    +0.064 A 
ATOM     15  C   UNL     1       2.401   0.030  -0.021  0.00  0.00    +0.078 A 
ATOM     16  C   UNL     1       1.208  -0.680  -0.013  0.00  0.00    +0.064 A 
ATOM     17  C   UNL     1       0.002  -0.004   0.002  0.00  0.00    +0.022 A 
ATOM     18 CL   UNL     1       1.230  -2.416  -0.023  0.00  0.00    -0.082 Cl
ATOM     19 CL   UNL     1       3.867   2.313  -0.023  0.00  0.00    -0.082 Cl
ENDBRANCH   1  15
BRANCH   6  20
ATOM     20  C   UNL     1       6.997  -3.149  -2.578  0.00  0.00    +0.018 A 
ATOM     21  C   UNL     1       8.266  -2.717  -2.958  0.00  0.00    +0.014 A 
ATOM     22  C   UNL     1       9.313  -3.614  -3.006  0.00  0.00    +0.039 A 
ATOM     23  C   UNL     1       9.105  -4.944  -2.678  0.00  0.00    +0.126 A 
ATOM     24  C   UNL     1       7.846  -5.381  -2.300  0.00  0.00    +0.077 A 
ATOM     25  C   UNL     1       6.792  -4.488  -2.243  0.00  0.00    +0.134 A 
ATOM     26  F   UNL     1       5.566  -4.913  -1.868  0.00  0.00    -0.205 F 
ATOM     27  F   UNL     1      10.134  -5.818  -2.727  0.00  0.00    -0.205 F 
ENDBRANCH   6  20
BRANCH   4  28
ATOM     28  C   UNL     1       3.854  -0.047  -4.909  0.00  0.00    +0.016 C 
ATOM     29  C   UNL     1       3.381  -1.131  -5.881  0.00  0.00    -0.011 C 
ATOM     30  C   UNL     1       2.947  -0.476  -7.194  0.00  0.00    -0.082 C 
ATOM     31  N   UNL     1       4.080   0.249  -7.781  0.00  0.00    +0.379 N 
ATOM     32  C   UNL     1       4.494   1.336  -6.886  0.00  0.00    -0.082 C 
ATOM     33  C   UNL     1       4.987   0.750  -5.561  0.00  0.00    -0.011 C 
ATOM     34  H   UNL     1       4.852  -0.387  -7.915  0.00  0.00    -0.086 HD
ATOM     35  H   UNL     1       3.807   0.635  -8.673  0.00  0.00    -0.086 HD
ENDBRANCH   4  28
TORSDOF 3
