REMARK  Name = CHEMBL97550
REMARK  4 active torsions:
REMARK  status: ('A' for Active; 'I' for Inactive)
REMARK    1  A    between atoms: C_4  and  N_7
REMARK    2  A    between atoms: C_12  and  C_14
REMARK    3  A    between atoms: C_15  and  C_25
REMARK    4  A    between atoms: N_18  and  C_19
REMARK                            x       y       z     vdW  Elec       q    Type
REMARK                         _______ _______ _______ _____ _____    ______ ____
ROOT
ATOM      1  C   UNL     1       6.161  -4.683   0.319  0.00  0.00    +0.095 A 
ATOM      2  C   UNL     1       7.401  -4.176  -0.030  0.00  0.00    +0.098 A 
ATOM      3  N   UNL     1       8.315  -5.122   0.253  0.00  0.00    -0.235 NA
ATOM      4  C   UNL     1       7.719  -6.170   0.751  0.00  0.00    +0.200 A 
ATOM      5  N   UNL     1       6.390  -5.946   0.818  0.00  0.00    -0.325 N 
ENDROOT
BRANCH   1  11
ATOM      6  N   UNL     1       3.556  -0.683   0.228  0.00  0.00    -0.284 N 
ATOM      7  C   UNL     1       3.608  -2.066   0.148  0.00  0.00    +0.220 A 
ATOM      8  N   UNL     1       2.485  -2.743  -0.044  0.00  0.00    -0.223 NA
ATOM      9  C   UNL     1       2.490  -4.065  -0.127  0.00  0.00    +0.116 A 
ATOM     10  C   UNL     1       3.687  -4.746  -0.011  0.00  0.00    +0.050 A 
ATOM     11  C   UNL     1       4.859  -4.005   0.190  0.00  0.00    +0.094 A 
ATOM     12  N   UNL     1       4.777  -2.674   0.259  0.00  0.00    -0.213 NA
ATOM     13  H   UNL     1       4.378  -0.170   0.281  0.00  0.00    +0.155 HD
BRANCH   6  17
ATOM     14  C   UNL     1      -0.124   1.267   0.241  0.00  0.00    +0.000 A 
ATOM     15  C   UNL     1       0.001   0.025   0.836  0.00  0.00    +0.002 A 
ATOM     16  C   UNL     1       1.220  -0.624   0.833  0.00  0.00    +0.023 A 
ATOM     17  C   UNL     1       2.321  -0.029   0.232  0.00  0.00    +0.034 A 
ATOM     18  C   UNL     1       2.192   1.219  -0.365  0.00  0.00    +0.023 A 
ATOM     19  C   UNL     1       0.971   1.863  -0.358  0.00  0.00    +0.002 A 
ENDBRANCH   6  17
ENDBRANCH   1  11
BRANCH   5  20
ATOM     20  C   UNL     1       5.378  -6.877   1.323  0.00  0.00    +0.085 C 
ATOM     21  C   UNL     1       5.766  -7.340   2.731  0.00  0.00    +0.006 C 
ATOM     22  C   UNL     1       4.747  -8.372   3.221  0.00  0.00    -0.081 C 
ATOM     23  N   UNL     1       4.735  -9.523   2.311  0.00  0.00    +0.379 N 
ATOM     24  C   UNL     1       4.295  -9.099   0.977  0.00  0.00    -0.081 C 
ATOM     25  C   UNL     1       5.296  -8.096   0.400  0.00  0.00    +0.006 C 
ATOM     26  H   UNL     1       5.665  -9.912   2.250  0.00  0.00    -0.086 HD
ATOM     27  H   UNL     1       4.102 -10.224   2.666  0.00  0.00    -0.086 HD
ENDBRANCH   5  20
BRANCH   2  28
ATOM     28  C   UNL     1       7.672  -2.840  -0.610  0.00  0.00    +0.003 A 
ATOM     29  C   UNL     1       6.758  -2.261  -1.490  0.00  0.00    +0.013 A 
ATOM     30  C   UNL     1       7.014  -1.016  -2.027  0.00  0.00    +0.039 A 
ATOM     31  C   UNL     1       8.178  -0.342  -1.693  0.00  0.00    +0.123 A 
ATOM     32  C   UNL     1       9.089  -0.913  -0.819  0.00  0.00    +0.039 A 
ATOM     33  C   UNL     1       8.838  -2.154  -0.272  0.00  0.00    +0.013 A 
ATOM     34  F   UNL     1       8.425   0.877  -2.222  0.00  0.00    -0.205 F 
ENDBRANCH   2  28
TORSDOF 4
