REMARK  Name = CHEMBL1213925
REMARK  7 active torsions:
REMARK  status: ('A' for Active; 'I' for Inactive)
REMARK    1  A    between atoms: C_7  and  N_20
REMARK    2  A    between atoms: C_10  and  O_11
REMARK    3  A    between atoms: O_11  and  C_12
REMARK    4  A    between atoms: C_12  and  C_13
REMARK    5  A    between atoms: C_13  and  N_14
REMARK    6  A    between atoms: N_23  and  C_24
REMARK    7  A    between atoms: C_28  and  C_30
REMARK                            x       y       z     vdW  Elec       q    Type
REMARK                         _______ _______ _______ _____ _____    ______ ____
ROOT
ATOM      1  C   UNL     1       0.758   0.589   0.923  0.00  0.00    +0.001 A 
ATOM      2  C   UNL     1       1.957   1.299   0.916  0.00  0.00    +0.001 A 
ATOM      3  C   UNL     1       3.151   0.657   0.797  0.00  0.00    +0.012 A 
ATOM      4  C   UNL     1       3.179  -0.743   0.677  0.00  0.00    +0.026 A 
ATOM      5  C   UNL     1       1.960  -1.464   0.683  0.00  0.00    +0.007 A 
ATOM      6  C   UNL     1       0.747  -0.767   0.809  0.00  0.00    +0.010 A 
ATOM      7  C   UNL     1       1.987  -2.869   0.564  0.00  0.00    +0.043 A 
ATOM      8  C   UNL     1       3.197  -3.517   0.443  0.00  0.00    +0.027 A 
ATOM      9  C   UNL     1       4.391  -2.802   0.437  0.00  0.00    +0.048 A 
ATOM     10  C   UNL     1       4.397  -1.441   0.552  0.00  0.00    +0.128 A 
ENDROOT
BRANCH   7  11
ATOM     11  N   UNL     1       0.794  -3.600   0.568  0.00  0.00    -0.269 N 
ATOM     12  C   UNL     1       0.791  -4.883   0.982  0.00  0.00    +0.308 C 
ATOM     13  O   UNL     1       1.837  -5.429   1.277  0.00  0.00    -0.252 OA
ATOM     14  N   UNL     1      -0.371  -5.560   1.069  0.00  0.00    -0.269 N 
ATOM     15  H   UNL     1      -0.031  -3.184   0.273  0.00  0.00    +0.156 HD
ATOM     16  H   UNL     1      -1.196  -5.149   0.767  0.00  0.00    +0.156 HD
BRANCH  14  17
ATOM     17  C   UNL     1      -0.387  -6.857   1.596  0.00  0.00    +0.035 A 
ATOM     18  C   UNL     1       0.482  -7.202   2.622  0.00  0.00    +0.025 A 
ATOM     19  C   UNL     1       0.464  -8.482   3.140  0.00  0.00    +0.022 A 
ATOM     20  C   UNL     1      -0.420  -9.421   2.637  0.00  0.00    +0.053 A 
ATOM     21  C   UNL     1      -1.287  -9.080   1.614  0.00  0.00    +0.075 A 
ATOM     22  C   UNL     1      -1.277  -7.799   1.097  0.00  0.00    +0.037 A 
ATOM     23 CL   UNL     1      -0.440 -11.029   3.291  0.00  0.00    -0.083 Cl
BRANCH  21  24
ATOM     24  C   UNL     1      -2.247 -10.105   1.068  0.00  0.00    +0.419 C 
ATOM     25  F   UNL     1      -3.014  -9.529   0.049  0.00  0.00    -0.166 F 
ATOM     26  F   UNL     1      -1.529 -11.190   0.555  0.00  0.00    -0.166 F 
ATOM     27  F   UNL     1      -3.091 -10.546   2.093  0.00  0.00    -0.166 F 
ENDBRANCH  21  24
ENDBRANCH  14  17
ENDBRANCH   7  11
BRANCH  10  28
ATOM     28  O   UNL     1       5.574  -0.761   0.544  0.00  0.00    -0.493 OA
BRANCH  28  29
ATOM     29  C   UNL     1       6.768  -1.535   0.414  0.00  0.00    +0.210 C 
BRANCH  29  30
ATOM     30  C   UNL     1       7.982  -0.604   0.425  0.00  0.00    -0.037 C 
BRANCH  30  31
ATOM     31  N   UNL     1       8.092   0.043   1.740  0.00  0.00    +0.385 N 
ATOM     32  C   UNL     1       9.174   1.036   1.708  0.00  0.00    -0.050 C 
ATOM     33  C   UNL     1       9.286   1.708   3.079  0.00  0.00    +0.141 C 
ATOM     34  O   UNL     1       9.518   0.710   4.077  0.00  0.00    -0.383 OA
ATOM     35  C   UNL     1       8.502  -0.295   4.130  0.00  0.00    +0.141 C 
ATOM     36  C   UNL     1       8.388  -0.971   2.761  0.00  0.00    -0.050 C 
ATOM     37  H   UNL     1       7.221   0.501   1.963  0.00  0.00    -0.081 HD
ENDBRANCH  30  31
ENDBRANCH  29  30
ENDBRANCH  28  29
ENDBRANCH  10  28
TORSDOF 7
