REMARK  Name = CHEMBL600583
REMARK  9 active torsions:
REMARK  status: ('A' for Active; 'I' for Inactive)
REMARK    1  A    between atoms: C_1  and  C_2
REMARK    2  A    between atoms: N_5  and  C_31
REMARK    3  A    between atoms: C_6  and  C_30
REMARK    4  A    between atoms: C_10  and  C_12
REMARK    5  A    between atoms: N_19  and  C_29
REMARK    6  A    between atoms: C_21  and  C_22
REMARK    7  A    between atoms: C_22  and  C_24
REMARK    8  A    between atoms: N_26  and  C_27
REMARK    9  A    between atoms: N_26  and  C_28
REMARK                            x       y       z     vdW  Elec       q    Type
REMARK                         _______ _______ _______ _____ _____    ______ ____
ROOT
ATOM      1  C   UNL     1       1.526   2.151  -0.409  0.00  0.00    +0.026 C 
ATOM      2  C   UNL     1       1.125   0.675  -0.455  0.00  0.00    +0.057 C 
ATOM      3  C   UNL     1      -0.395   0.560  -0.614  0.00  0.00    -0.055 C 
ATOM      4  N   UNL     1      -1.054   1.101   0.581  0.00  0.00    +0.388 N 
ATOM      5  C   UNL     1      -0.716   0.282   1.752  0.00  0.00    -0.053 C 
ATOM      6  C   UNL     1       0.788   0.383   2.029  0.00  0.00    +0.093 C 
ATOM      7  N   UNL     1       1.518   0.016   0.800  0.00  0.00    -0.298 N 
ATOM      8  C   UNL     1       2.510  -0.895   0.823  0.00  0.00    +0.248 C 
ATOM      9  O   UNL     1       3.126  -1.150  -0.194  0.00  0.00    -0.270 OA
ATOM     10  C   UNL     1      -1.087  -1.177   1.479  0.00  0.00    -0.012 C 
ATOM     11  H   UNL     1      -0.744   2.049   0.735  0.00  0.00    -0.080 HD
ENDROOT
BRANCH   8  12
ATOM     12  C   UNL     1       2.849  -1.585   2.083  0.00  0.00    +0.056 A 
ATOM     13  C   UNL     1       3.127  -0.845   3.231  0.00  0.00    +0.025 A 
ATOM     14  C   UNL     1       3.445  -1.504   4.410  0.00  0.00    +0.012 A 
ATOM     15  C   UNL     1       3.485  -2.909   4.451  0.00  0.00    +0.051 A 
ATOM     16  C   UNL     1       3.205  -3.638   3.297  0.00  0.00    +0.047 A 
ATOM     17  C   UNL     1       2.885  -2.986   2.129  0.00  0.00    +0.055 A 
ATOM     18 CL   UNL     1       2.530  -3.904   0.699  0.00  0.00    -0.083 Cl
ATOM     19  N   UNL     1       3.822  -3.281   5.734  0.00  0.00    -0.349 N 
ATOM     20  C   UNL     1       3.999  -2.199   6.515  0.00  0.00    +0.098 A 
ATOM     21  C   UNL     1       3.785  -1.052   5.775  0.00  0.00    +0.052 A 
ATOM     22  C   UNL     1       3.968  -4.666   6.188  0.00  0.00    +0.149 C 
BRANCH  21  23
ATOM     23  C   UNL     1       3.877   0.329   6.246  0.00  0.00    +0.249 C 
ATOM     24  O   UNL     1       3.661   1.248   5.481  0.00  0.00    -0.282 OA
BRANCH  23  25
ATOM     25  C   UNL     1       4.235   0.609   7.667  0.00  0.00    +0.287 C 
ATOM     26  O   UNL     1       4.576  -0.298   8.397  0.00  0.00    -0.266 OA
ATOM     27  N   UNL     1       4.179   1.870   8.139  0.00  0.00    -0.301 N 
ATOM     28  C   UNL     1       4.757   2.189   9.447  0.00  0.00    +0.132 C 
ATOM     29  C   UNL     1       3.541   2.923   7.344  0.00  0.00    +0.132 C 
ENDBRANCH  23  25
ENDBRANCH  21  23
ENDBRANCH   8  12
BRANCH   4  30
ATOM     30  C   UNL     1      -2.509   1.091   0.383  0.00  0.00    -0.037 C 
ATOM     31  C   UNL     1      -2.907   2.101  -0.714  0.00  0.00    -0.006 C 
ATOM     32  C   UNL     1      -3.207   3.376   0.102  0.00  0.00    +0.034 C 
ATOM     33  C   UNL     1      -3.614   2.881   1.474  0.00  0.00    -0.046 A 
ATOM     34  C   UNL     1      -3.213   1.568   1.635  0.00  0.00    -0.058 A 
ATOM     35  C   UNL     1      -3.482   0.906   2.821  0.00  0.00    +0.002 A 
ATOM     36  C   UNL     1      -4.149   1.554   3.843  0.00  0.00    +0.000 A 
ATOM     37  C   UNL     1      -4.550   2.867   3.681  0.00  0.00    +0.000 A 
ATOM     38  C   UNL     1      -4.282   3.529   2.499  0.00  0.00    +0.004 A 
ENDBRANCH   4  30
TORSDOF 4
