REMARK  Name = CHEMBL13850
REMARK  7 active torsions:
REMARK  status: ('A' for Active; 'I' for Inactive)
REMARK    1  A    between atoms: C_1  and  C_2
REMARK    2  A    between atoms: C_5  and  O_9
REMARK    3  A    between atoms: C_6  and  C_8
REMARK    4  A    between atoms: O_9  and  C_10
REMARK    5  A    between atoms: C_14  and  C_16
REMARK    6  A    between atoms: C_17  and  C_27
REMARK    7  A    between atoms: N_20  and  C_21
REMARK                            x       y       z     vdW  Elec       q    Type
REMARK                         _______ _______ _______ _____ _____    ______ ____
ROOT
ATOM      1  C   UNL     1      -0.314  -8.201  -2.442  0.00  0.00    +0.093 A 
ATOM      2  C   UNL     1       0.040  -9.079  -1.431  0.00  0.00    +0.073 A 
ATOM      3  N   UNL     1      -0.250 -10.320  -1.859  0.00  0.00    -0.345 N 
ATOM      4  C   UNL     1      -0.755 -10.262  -3.061  0.00  0.00    +0.175 A 
ATOM      5  N   UNL     1      -0.821  -8.976  -3.462  0.00  0.00    -0.327 N 
ATOM      6  H   UNL     1      -0.105 -11.135  -1.352  0.00  0.00    +0.167 HD
ENDROOT
BRANCH   5   7
ATOM      7  C   UNL     1      -1.333  -8.493  -4.747  0.00  0.00    +0.085 C 
ATOM      8  C   UNL     1      -2.742  -9.047  -4.977  0.00  0.00    +0.006 C 
ATOM      9  C   UNL     1      -3.239  -8.604  -6.355  0.00  0.00    -0.081 C 
ATOM     10  N   UNL     1      -2.336  -9.115  -7.393  0.00  0.00    +0.379 N 
ATOM     11  C   UNL     1      -1.000  -8.532  -7.221  0.00  0.00    -0.081 C 
ATOM     12  C   UNL     1      -0.416  -8.972  -5.876  0.00  0.00    +0.006 C 
ATOM     13  H   UNL     1      -2.275 -10.119  -7.320  0.00  0.00    -0.086 HD
ATOM     14  H   UNL     1      -2.695  -8.866  -8.302  0.00  0.00    -0.086 HD
ENDBRANCH   5   7
BRANCH   2  15
ATOM     15  C   UNL     1       0.628  -8.717  -0.121  0.00  0.00    +0.001 A 
ATOM     16  C   UNL     1       1.664  -7.786  -0.053  0.00  0.00    +0.013 A 
ATOM     17  C   UNL     1       2.209  -7.453   1.170  0.00  0.00    +0.039 A 
ATOM     18  C   UNL     1       1.729  -8.041   2.329  0.00  0.00    +0.123 A 
ATOM     19  C   UNL     1       0.700  -8.967   2.266  0.00  0.00    +0.039 A 
ATOM     20  C   UNL     1       0.144  -9.303   1.049  0.00  0.00    +0.013 A 
ATOM     21  F   UNL     1       2.266  -7.712   3.524  0.00  0.00    -0.205 F 
ENDBRANCH   2  15
BRANCH   1  26
ATOM     22  C   UNL     1      -0.113  -4.743  -1.264  0.00  0.00    +0.324 A 
ATOM     23  N   UNL     1       0.062  -4.048  -2.377  0.00  0.00    -0.203 NA
ATOM     24  C   UNL     1       0.125  -4.648  -3.556  0.00  0.00    +0.118 A 
ATOM     25  C   UNL     1       0.005  -6.023  -3.621  0.00  0.00    +0.050 A 
ATOM     26  C   UNL     1      -0.180  -6.734  -2.428  0.00  0.00    +0.096 A 
ATOM     27  N   UNL     1      -0.228  -6.059  -1.277  0.00  0.00    -0.193 NA
BRANCH  22  28
ATOM     28  O   UNL     1      -0.171  -4.088  -0.079  0.00  0.00    -0.423 OA
BRANCH  28  33
ATOM     29  C   UNL     1      -0.102   1.544  -0.163  0.00  0.00    +0.044 C 
ATOM     30  C   UNL     1      -0.121   0.037  -0.141  0.00  0.00    -0.050 A 
ATOM     31  C   UNL     1      -1.327  -0.638  -0.099  0.00  0.00    +0.007 A 
ATOM     32  C   UNL     1      -1.347  -2.019  -0.078  0.00  0.00    +0.047 A 
ATOM     33  C   UNL     1      -0.155  -2.729  -0.100  0.00  0.00    +0.135 A 
ATOM     34  C   UNL     1       1.054  -2.050  -0.143  0.00  0.00    -0.008 A 
ATOM     35  C   UNL     1       1.068  -0.668  -0.169  0.00  0.00    +0.010 A 
ATOM     36  C   UNL     1       2.350  -2.817  -0.167  0.00  0.00    +0.047 C 
ENDBRANCH  28  33
ENDBRANCH  22  28
ENDBRANCH   1  26
TORSDOF 5
