REMARK  Name = CHEMBL520967
REMARK  12 active torsions:
REMARK  status: ('A' for Active; 'I' for Inactive)
REMARK    1  A    between atoms: C_1  and  C_2
REMARK    2  A    between atoms: C_2  and  C_3
REMARK    3  A    between atoms: C_2  and  C_4
REMARK    4  A    between atoms: C_2  and  C_5
REMARK    5  A    between atoms: C_7  and  C_11
REMARK    6  A    between atoms: N_8  and  C_10
REMARK    7  A    between atoms: C_11  and  C_13
REMARK    8  A    between atoms: N_15  and  C_16
REMARK    9  A    between atoms: C_19  and  O_26
REMARK   10  A    between atoms: O_26  and  C_27
REMARK   11  A    between atoms: C_27  and  C_28
REMARK   12  A    between atoms: C_28  and  N_29
REMARK                            x       y       z     vdW  Elec       q    Type
REMARK                         _______ _______ _______ _____ _____    ______ ____
ROOT
ATOM      1  C   UNL     1       7.596  -0.768  -3.299  0.00  0.00    +0.042 A 
ATOM      2  C   UNL     1       7.538  -0.313  -1.999  0.00  0.00    +0.027 A 
ATOM      3  C   UNL     1       8.673   0.188  -1.368  0.00  0.00    +0.048 A 
ATOM      4  C   UNL     1       9.881   0.240  -2.026  0.00  0.00    +0.128 A 
ATOM      5  C   UNL     1       9.974  -0.218  -3.356  0.00  0.00    +0.026 A 
ATOM      6  C   UNL     1       8.821  -0.733  -3.998  0.00  0.00    +0.007 A 
ATOM      7  C   UNL     1       8.918  -1.194  -5.320  0.00  0.00    +0.010 A 
ATOM      8  C   UNL     1      10.116  -1.146  -5.965  0.00  0.00    +0.001 A 
ATOM      9  C   UNL     1      11.251  -0.645  -5.332  0.00  0.00    +0.001 A 
ATOM     10  C   UNL     1      11.191  -0.177  -4.055  0.00  0.00    +0.012 A 
ENDROOT
BRANCH   1  13
ATOM     11  C   UNL     1       5.244  -0.735  -3.635  0.00  0.00    +0.290 C 
ATOM     12  O   UNL     1       5.144   0.120  -2.779  0.00  0.00    -0.266 OA
ATOM     13  N   UNL     1       6.449  -1.268  -3.918  0.00  0.00    -0.278 N 
ATOM     14  H   UNL     1       6.520  -1.997  -4.553  0.00  0.00    +0.155 HD
BRANCH  11  15
ATOM     15  C   UNL     1       4.033  -1.197  -4.371  0.00  0.00    +0.265 C 
ATOM     16  O   UNL     1       4.133  -2.053  -5.228  0.00  0.00    -0.280 OA
BRANCH  15  19
ATOM     17  C   UNL     1       1.069   0.574  -3.201  0.00  0.00    +0.069 A 
ATOM     18  C   UNL     1       2.444   0.363  -3.118  0.00  0.00    +0.057 A 
ATOM     19  C   UNL     1       2.723  -0.618  -4.063  0.00  0.00    +0.114 A 
ATOM     20  N   UNL     1       1.526  -0.934  -4.646  0.00  0.00    -0.263 N 
ATOM     21  N   UNL     1       0.591  -0.229  -4.119  0.00  0.00    -0.175 NA
ATOM     22  C   UNL     1       1.339  -1.928  -5.706  0.00  0.00    +0.173 C 
BRANCH  17  24
ATOM     23  C   UNL     1       0.516   2.971  -2.885  0.00  0.00    +0.017 C 
ATOM     24  C   UNL     1       0.270   1.550  -2.374  0.00  0.00    +0.006 C 
ATOM     25  C   UNL     1       0.703   1.452  -0.910  0.00  0.00    +0.017 C 
ATOM     26  C   UNL     1      -1.219   1.216  -2.489  0.00  0.00    +0.017 C 
ENDBRANCH  17  24
ENDBRANCH  15  19
ENDBRANCH  11  15
ENDBRANCH   1  13
BRANCH   4  27
ATOM     27  O   UNL     1      10.980   0.733  -1.396  0.00  0.00    -0.493 OA
BRANCH  27  28
ATOM     28  C   UNL     1      10.809   1.179  -0.049  0.00  0.00    +0.210 C 
BRANCH  28  29
ATOM     29  C   UNL     1      12.145   1.695   0.490  0.00  0.00    -0.037 C 
BRANCH  29  30
ATOM     30  N   UNL     1      12.567   2.867  -0.289  0.00  0.00    +0.385 N 
ATOM     31  C   UNL     1      13.914   3.276   0.132  0.00  0.00    -0.050 C 
ATOM     32  C   UNL     1      14.352   4.497  -0.681  0.00  0.00    +0.141 C 
ATOM     33  O   UNL     1      13.402   5.550  -0.497  0.00  0.00    -0.383 OA
ATOM     34  C   UNL     1      12.069   5.192  -0.871  0.00  0.00    +0.141 C 
ATOM     35  C   UNL     1      11.627   3.973  -0.059  0.00  0.00    -0.050 C 
ATOM     36  H   UNL     1      12.578   2.633  -1.270  0.00  0.00    -0.081 HD
ENDBRANCH  29  30
ENDBRANCH  28  29
ENDBRANCH  27  28
ENDBRANCH   4  27
TORSDOF 8
