REMARK  Name = CHEMBL424418
REMARK  4 active torsions:
REMARK  status: ('A' for Active; 'I' for Inactive)
REMARK    1  A    between atoms: C_3  and  C_11
REMARK    2  A    between atoms: C_5  and  C_7
REMARK    3  A    between atoms: C_12  and  C_23
REMARK    4  A    between atoms: C_15  and  C_17
REMARK                            x       y       z     vdW  Elec       q    Type
REMARK                         _______ _______ _______ _____ _____    ______ ____
ROOT
ATOM      1  C   UNL     1       3.659   2.162  -0.022  0.00  0.00    +0.098 A 
ATOM      2  C   UNL     1       3.891   3.372  -0.653  0.00  0.00    +0.093 A 
ATOM      3  N   UNL     1       5.205   3.694  -0.393  0.00  0.00    -0.340 N 
ATOM      4  H   UNL     1       5.674   4.486  -0.699  0.00  0.00    +0.167 HD
ATOM      5  C   UNL     1       5.719   2.703   0.364  0.00  0.00    +0.111 A 
ATOM      6  N   UNL     1       4.802   1.802   0.587  0.00  0.00    -0.232 NA
ENDROOT
BRANCH   2   7
ATOM      7  C   UNL     1       2.927   4.158  -1.444  0.00  0.00    +0.094 A 
ATOM      8  C   UNL     1       3.087   5.543  -1.592  0.00  0.00    +0.050 A 
ATOM      9  C   UNL     1       2.158   6.236  -2.343  0.00  0.00    +0.116 A 
ATOM     10  N   UNL     1       1.150   5.578  -2.897  0.00  0.00    -0.223 NA
ATOM     11  C   UNL     1       1.021   4.268  -2.742  0.00  0.00    +0.213 A 
ATOM     12  N   UNL     1       1.890   3.562  -2.035  0.00  0.00    -0.213 NA
ATOM     13  N   UNL     1      -0.047   3.620  -3.338  0.00  0.00    -0.327 N 
ATOM     14  H   UNL     1      -0.689   4.125  -3.862  0.00  0.00    +0.145 HD
ATOM     15  H   UNL     1      -0.153   2.662  -3.233  0.00  0.00    +0.145 HD
ENDBRANCH   2   7
BRANCH   5  16
ATOM     16  C   UNL     1       7.134   2.648   0.879  0.00  0.00    +0.051 C 
ATOM     17  C   UNL     1       7.617   4.065   1.202  0.00  0.00    -0.008 C 
ATOM     18  C   UNL     1       9.079   4.011   1.648  0.00  0.00    -0.082 C 
ATOM     19  N   UNL     1       9.902   3.446   0.573  0.00  0.00    +0.379 N 
ATOM     20  C   UNL     1       9.492   2.062   0.306  0.00  0.00    -0.082 C 
ATOM     21  C   UNL     1       8.046   2.041  -0.192  0.00  0.00    -0.008 C 
ATOM     22  H   UNL     1       9.785   3.997  -0.264  0.00  0.00    -0.086 HD
ATOM     23  H   UNL     1      10.873   3.461   0.849  0.00  0.00    -0.086 HD
ENDBRANCH   5  16
BRANCH   1  26
ATOM     24  C   UNL     1      -0.017   1.379   0.010  0.00  0.00    +0.001 A 
ATOM     25  C   UNL     1       1.167   2.088   0.002  0.00  0.00    +0.010 A 
ATOM     26  C   UNL     1       2.384   1.407  -0.013  0.00  0.00    +0.003 A 
ATOM     27  C   UNL     1       2.397   0.013  -0.021  0.00  0.00    +0.022 A 
ATOM     28  C   UNL     1       1.206  -0.685  -0.013  0.00  0.00    +0.055 A 
ATOM     29  C   UNL     1       0.002  -0.004   0.002  0.00  0.00    +0.012 A 
BRANCH  28  30
ATOM     30  C   UNL     1       1.218  -2.192  -0.022  0.00  0.00    +0.417 C 
ATOM     31  F   UNL     1       1.234  -2.666   1.294  0.00  0.00    -0.166 F 
ATOM     32  F   UNL     1       0.073  -2.663  -0.673  0.00  0.00    -0.166 F 
ATOM     33  F   UNL     1       2.357  -2.646  -0.695  0.00  0.00    -0.166 F 
ENDBRANCH  28  30
ENDBRANCH   1  26
TORSDOF 4
