REMARK  Name = CHEMBL71572
REMARK  10 active torsions:
REMARK  status: ('A' for Active; 'I' for Inactive)
REMARK    1  A    between atoms: C_1  and  C_2
REMARK    2  A    between atoms: C_2  and  C_3
REMARK    3  A    between atoms: C_3  and  N_4
REMARK    4  A    between atoms: C_5  and  C_7
REMARK    5  A    between atoms: C_7  and  C_39
REMARK    6  A    between atoms: C_10  and  C_13
REMARK    7  A    between atoms: C_16  and  C_26
REMARK    8  A    between atoms: C_17  and  C_19
REMARK    9  A    between atoms: N_32  and  C_33
REMARK   10  A    between atoms: C_33  and  C_34
REMARK                            x       y       z     vdW  Elec       q    Type
REMARK                         _______ _______ _______ _____ _____    ______ ____
ROOT
ATOM      1  C   UNL     1       2.949  -8.014  -2.338  0.00  0.00    +0.165 A 
ATOM      2  N   UNL     1       2.965  -8.786  -3.445  0.00  0.00    -0.336 N 
ATOM      3  H   UNL     1       2.945  -8.473  -4.363  0.00  0.00    +0.167 HD
ATOM      4  C   UNL     1       3.016 -10.098  -3.030  0.00  0.00    +0.093 A 
ATOM      5  C   UNL     1       3.029 -10.064  -1.646  0.00  0.00    +0.098 A 
ATOM      6  N   UNL     1       2.992  -8.772  -1.277  0.00  0.00    -0.227 NA
ENDROOT
BRANCH   4   7
ATOM      7  C   UNL     1       3.050 -11.297  -3.887  0.00  0.00    +0.094 A 
ATOM      8  C   UNL     1       2.530 -11.258  -5.188  0.00  0.00    +0.050 A 
ATOM      9  C   UNL     1       2.585 -12.407  -5.953  0.00  0.00    +0.116 A 
ATOM     10  N   UNL     1       3.122 -13.504  -5.439  0.00  0.00    -0.223 NA
ATOM     11  C   UNL     1       3.606 -13.514  -4.205  0.00  0.00    +0.216 A 
ATOM     12  N   UNL     1       3.581 -12.436  -3.438  0.00  0.00    -0.213 NA
ATOM     13  N   UNL     1       4.159 -14.682  -3.708  0.00  0.00    -0.306 N 
ATOM     14  H   UNL     1       4.517 -14.704  -2.807  0.00  0.00    +0.149 HD
BRANCH  13  15
ATOM     15  C   UNL     1       4.202 -15.885  -4.543  0.00  0.00    +0.178 C 
BRANCH  15  16
ATOM     16  C   UNL     1       4.847 -17.008  -3.773  0.00  0.00    +0.122 A 
ATOM     17  C   UNL     1       4.206 -17.898  -2.994  0.00  0.00    +0.046 A 
ATOM     18  C   UNL     1       5.190 -18.767  -2.469  0.00  0.00    +0.041 A 
ATOM     19  C   UNL     1       6.374 -18.356  -2.958  0.00  0.00    +0.195 A 
ATOM     20  O   UNL     1       6.159 -17.294  -3.752  0.00  0.00    -0.466 OA
ENDBRANCH  15  16
ENDBRANCH  13  15
ENDBRANCH   4   7
BRANCH   1  24
ATOM     21  C   UNL     1       1.341  -4.130  -2.293  0.00  0.00    +0.091 C 
ATOM     22  C   UNL     1       2.096  -4.640  -1.061  0.00  0.00    +0.181 C 
ATOM     23  O   UNL     1       2.223  -6.062  -1.149  0.00  0.00    -0.344 OA
ATOM     24  C   UNL     1       2.895  -6.508  -2.329  0.00  0.00    +0.318 C 
ATOM     25  O   UNL     1       2.188  -6.050  -3.484  0.00  0.00    -0.344 OA
ATOM     26  C   UNL     1       2.058  -4.627  -3.553  0.00  0.00    +0.181 C 
ATOM     27  C   UNL     1      -0.093  -4.662  -2.276  0.00  0.00    +0.025 C 
BRANCH  21  29
ATOM     28  N   UNL     1       0.738  -1.962  -1.265  0.00  0.00    -0.315 N 
ATOM     29  C   UNL     1       1.321  -2.623  -2.285  0.00  0.00    +0.223 C 
ATOM     30  O   UNL     1       1.829  -2.004  -3.196  0.00  0.00    -0.275 OA
ATOM     31  H   UNL     1       0.332  -2.457  -0.536  0.00  0.00    +0.149 HD
BRANCH  28  32
ATOM     32  C   UNL     1       0.718  -0.497  -1.257  0.00  0.00    +0.104 C 
BRANCH  32  34
ATOM     33  C   UNL     1      -0.019   1.526   0.010  0.00  0.00    +0.005 C 
ATOM     34  C   UNL     1       0.002  -0.004   0.002  0.00  0.00    +0.015 C 
ENDBRANCH  32  34
ENDBRANCH  28  32
ENDBRANCH  21  29
ENDBRANCH   1  24
BRANCH   5  35
ATOM     35  C   UNL     1       3.079 -11.235  -0.740  0.00  0.00    +0.003 A 
ATOM     36  C   UNL     1       2.429 -12.418  -1.089  0.00  0.00    +0.013 A 
ATOM     37  C   UNL     1       2.479 -13.506  -0.241  0.00  0.00    +0.039 A 
ATOM     38  C   UNL     1       3.173 -13.423   0.955  0.00  0.00    +0.123 A 
ATOM     39  C   UNL     1       3.820 -12.250   1.307  0.00  0.00    +0.039 A 
ATOM     40  C   UNL     1       3.781 -11.159   0.463  0.00  0.00    +0.013 A 
ATOM     41  F   UNL     1       3.218 -14.491   1.782  0.00  0.00    -0.205 F 
ENDBRANCH   5  35
TORSDOF 8
