REMARK  Name = CHEMBL1091552
REMARK  3 active torsions:
REMARK  status: ('A' for Active; 'I' for Inactive)
REMARK    1  A    between atoms: C_6  and  C_7
REMARK    2  A    between atoms: C_8  and  C_19
REMARK    3  A    between atoms: C_9  and  C_13
REMARK                            x       y       z     vdW  Elec       q    Type
REMARK                         _______ _______ _______ _____ _____    ______ ____
ROOT
ATOM      1  C   UNL     1      -1.249  -0.804   0.062  0.00  0.00    +0.100 A 
ATOM      2  C   UNL     1      -1.543  -1.947  -0.725  0.00  0.00    +0.031 A 
ATOM      3  C   UNL     1      -2.841  -2.286  -0.485  0.00  0.00    +0.046 A 
ATOM      4  N   UNL     1      -3.341  -1.406   0.405  0.00  0.00    -0.280 N 
ATOM      5  H   UNL     1      -4.244  -1.407   0.757  0.00  0.00    +0.189 HD
ATOM      6  N   UNL     1      -2.333  -0.493   0.739  0.00  0.00    -0.173 NA
ENDROOT
BRANCH   3   7
ATOM      7  C   UNL     1      -3.586  -3.440  -1.105  0.00  0.00    +0.021 C 
ATOM      8  C   UNL     1      -4.800  -2.912  -1.875  0.00  0.00    +0.006 C 
ATOM      9  C   UNL     1      -5.592  -4.096  -2.435  0.00  0.00    -0.018 C 
ATOM     10  C   UNL     1      -5.994  -5.023  -1.285  0.00  0.00    -0.083 C 
ATOM     11  N   UNL     1      -4.790  -5.515  -0.605  0.00  0.00    +0.379 N 
ATOM     12  C   UNL     1      -4.062  -4.391  -0.005  0.00  0.00    -0.073 C 
ATOM     13  H   UNL     1      -5.056  -6.167   0.117  0.00  0.00    -0.086 HD
ATOM     14  H   UNL     1      -4.195  -5.981  -1.274  0.00  0.00    -0.086 HD
ENDBRANCH   3   7
BRANCH   1  20
ATOM     15  C   UNL     1       0.774   0.133  -1.053  0.00  0.00    +0.013 A 
ATOM     16  C   UNL     1       1.982   0.797  -0.997  0.00  0.00    +0.039 A 
ATOM     17  C   UNL     1       2.475   1.242   0.219  0.00  0.00    +0.123 A 
ATOM     18  C   UNL     1       1.758   1.022   1.384  0.00  0.00    +0.039 A 
ATOM     19  C   UNL     1       0.550   0.358   1.338  0.00  0.00    +0.013 A 
ATOM     20  C   UNL     1       0.050  -0.091   0.117  0.00  0.00    +0.003 A 
ATOM     21  F   UNL     1       3.659   1.891   0.269  0.00  0.00    -0.205 F 
ENDBRANCH   1  20
BRANCH   2  22
ATOM     22  C   UNL     1      -0.609  -2.644  -1.641  0.00  0.00    -0.011 A 
ATOM     23  C   UNL     1      -0.819  -2.636  -3.024  0.00  0.00    +0.028 A 
ATOM     24  C   UNL     1       0.074  -3.297  -3.840  0.00  0.00    +0.111 A 
ATOM     25  N   UNL     1       1.115  -3.931  -3.333  0.00  0.00    -0.263 NA
ATOM     26  C   UNL     1       1.349  -3.963  -2.034  0.00  0.00    +0.111 A 
ATOM     27  C   UNL     1       0.509  -3.323  -1.147  0.00  0.00    +0.028 A 
ENDBRANCH   2  22
TORSDOF 3
