REMARK  Name = CHEMBL184012
REMARK  8 active torsions:
REMARK  status: ('A' for Active; 'I' for Inactive)
REMARK    1  A    between atoms: C_1  and  C_2
REMARK    2  A    between atoms: C_5  and  N_25
REMARK    3  A    between atoms: C_7  and  N_8
REMARK    4  A    between atoms: C_9  and  C_11
REMARK    5  A    between atoms: C_14  and  O_17
REMARK    6  A    between atoms: O_17  and  C_18
REMARK    7  A    between atoms: C_18  and  C_19
REMARK    8  A    between atoms: C_26  and  C_28
REMARK                            x       y       z     vdW  Elec       q    Type
REMARK                         _______ _______ _______ _____ _____    ______ ____
ROOT
ATOM      1  C   UNL     1      -0.384   1.329   0.287  0.00  0.00    +0.045 C 
ATOM      2  C   UNL     1      -0.179  -0.152   0.097  0.00  0.00    -0.029 A 
ATOM      3  C   UNL     1      -0.320  -0.713  -1.158  0.00  0.00    +0.007 A 
ATOM      4  C   UNL     1      -0.133  -2.070  -1.336  0.00  0.00    +0.024 A 
ATOM      5  C   UNL     1       0.197  -2.876  -0.253  0.00  0.00    +0.035 A 
ATOM      6  C   UNL     1       0.339  -2.316   1.009  0.00  0.00    +0.047 A 
ATOM      7  C   UNL     1       0.156  -0.951   1.183  0.00  0.00    +0.038 A 
ENDROOT
BRANCH   7   8
ATOM      8  N   UNL     1       0.303  -0.382   2.452  0.00  0.00    -0.281 N 
ATOM      9  C   UNL     1       0.062  -1.119   3.554  0.00  0.00    +0.248 C 
ATOM     10  O   UNL     1      -0.207  -2.300   3.448  0.00  0.00    -0.270 OA
ATOM     11  H   UNL     1       0.580   0.544   2.539  0.00  0.00    +0.155 HD
BRANCH   9  12
ATOM     12  C   UNL     1       0.124  -0.493   4.889  0.00  0.00    +0.037 A 
ATOM     13  C   UNL     1       0.428   0.866   5.012  0.00  0.00    +0.016 A 
ATOM     14  C   UNL     1       0.485   1.446   6.260  0.00  0.00    +0.046 A 
ATOM     15  C   UNL     1       0.241   0.682   7.395  0.00  0.00    +0.121 A 
ATOM     16  C   UNL     1      -0.061  -0.669   7.277  0.00  0.00    +0.046 A 
ATOM     17  C   UNL     1      -0.126  -1.256   6.033  0.00  0.00    +0.016 A 
BRANCH  15  18
ATOM     18  O   UNL     1       0.298   1.258   8.623  0.00  0.00    -0.486 OA
BRANCH  18  19
ATOM     19  C   UNL     1       0.037   0.415   9.747  0.00  0.00    +0.284 C 
BRANCH  19  20
ATOM     20  C   UNL     1       0.145   1.222  11.015  0.00  0.00    +0.078 A 
ATOM     21  C   UNL     1       0.452   2.568  10.945  0.00  0.00    +0.027 A 
ATOM     22  C   UNL     1       0.549   3.302  12.117  0.00  0.00    +0.003 A 
ATOM     23  C   UNL     1       0.332   2.651  13.322  0.00  0.00    +0.020 A 
ATOM     24  C   UNL     1       0.030   1.303  13.315  0.00  0.00    +0.111 A 
ATOM     25  N   UNL     1      -0.059   0.638  12.179  0.00  0.00    -0.256 NA
ENDBRANCH  19  20
ENDBRANCH  18  19
ENDBRANCH  15  18
ENDBRANCH   9  12
ENDBRANCH   7   8
BRANCH   5  26
ATOM     26  N   UNL     1       0.385  -4.250  -0.433  0.00  0.00    -0.281 N 
ATOM     27  C   UNL     1       0.956  -4.708  -1.565  0.00  0.00    +0.248 C 
ATOM     28  O   UNL     1       1.231  -3.937  -2.463  0.00  0.00    -0.270 OA
ATOM     29  H   UNL     1       0.106  -4.872   0.256  0.00  0.00    +0.155 HD
BRANCH  27  30
ATOM     30  C   UNL     1       1.247  -6.153  -1.715  0.00  0.00    +0.042 A 
ATOM     31  C   UNL     1       0.932  -7.059  -0.695  0.00  0.00    +0.033 A 
ATOM     32  C   UNL     1       1.219  -8.397  -0.871  0.00  0.00    +0.113 A 
ATOM     33  N   UNL     1       1.782  -8.830  -1.983  0.00  0.00    -0.240 NA
ATOM     34  C   UNL     1       2.097  -8.011  -2.973  0.00  0.00    +0.122 A 
ATOM     35  C   UNL     1       1.837  -6.648  -2.878  0.00  0.00    +0.056 A 
ATOM     36  N   UNL     1       2.690  -8.519  -4.123  0.00  0.00    -0.311 N 
ATOM     37  C   UNL     1       2.777  -9.970  -4.353  0.00  0.00    +0.134 C 
ATOM     38  C   UNL     1       2.239 -10.271  -5.756  0.00  0.00    +0.178 C 
ATOM     39  O   UNL     1       2.907  -9.437  -6.706  0.00  0.00    -0.377 OA
ATOM     40  C   UNL     1       2.687  -8.037  -6.512  0.00  0.00    +0.178 C 
ATOM     41  C   UNL     1       3.244  -7.622  -5.150  0.00  0.00    +0.134 C 
ENDBRANCH  27  30
ENDBRANCH   5  26
TORSDOF 7
