REMARK  Name = CHEMBL213002
REMARK  2 active torsions:
REMARK  status: ('A' for Active; 'I' for Inactive)
REMARK    1  A    between atoms: C_6  and  C_7
REMARK    2  A    between atoms: C_8  and  C_12
REMARK                            x       y       z     vdW  Elec       q    Type
REMARK                         _______ _______ _______ _____ _____    ______ ____
ROOT
ATOM      1  C   UNL     1      -0.737  -2.795  -1.581  0.00  0.00    +0.036 A 
ATOM      2  C   UNL     1       0.677  -2.457  -1.754  0.00  0.00    +0.017 A 
ATOM      3  C   UNL     1       1.446  -3.226  -2.564  0.00  0.00    +0.049 A 
ATOM      4  C   UNL     1       0.872  -4.333  -3.223  0.00  0.00    +0.162 A 
ATOM      5  N   UNL     1       1.363  -5.238  -4.051  0.00  0.00    -0.128 NA
ATOM      6  N   UNL     1       0.437  -6.063  -4.391  0.00  0.00    -0.112 NA
ATOM      7  C   UNL     1      -0.695  -5.742  -3.808  0.00  0.00    +0.224 A 
ATOM      8  N   UNL     1      -0.461  -4.634  -3.047  0.00  0.00    -0.270 N 
ATOM      9  C   UNL     1      -1.252  -3.877  -2.232  0.00  0.00    +0.107 A 
ATOM     10  N   UNL     1      -1.909  -6.408  -3.943  0.00  0.00    -0.295 N 
ATOM     11  C   UNL     1      -2.819  -6.106  -5.059  0.00  0.00    +0.136 C 
ATOM     12  C   UNL     1      -3.214  -7.426  -5.731  0.00  0.00    +0.179 C 
ATOM     13  O   UNL     1      -3.704  -8.331  -4.740  0.00  0.00    -0.377 OA
ATOM     14  C   UNL     1      -2.740  -8.690  -3.747  0.00  0.00    +0.179 C 
ATOM     15  C   UNL     1      -2.318  -7.439  -2.976  0.00  0.00    +0.136 C 
ENDROOT
BRANCH   1  17
ATOM     16  C   UNL     1      -1.861  -0.627  -0.835  0.00  0.00    +0.117 A 
ATOM     17  C   UNL     1      -1.596  -1.975  -0.705  0.00  0.00    +0.164 A 
ATOM     18  O   UNL     1      -2.278  -2.397   0.382  0.00  0.00    -0.442 OA
ATOM     19  C   UNL     1      -2.933  -1.345   0.894  0.00  0.00    +0.309 A 
ATOM     20  N   UNL     1      -2.686  -0.287   0.178  0.00  0.00    -0.216 NA
BRANCH  16  26
ATOM     21  C   UNL     1      -1.255  -0.158  -3.207  0.00  0.00    +0.013 A 
ATOM     22  C   UNL     1      -0.765   0.688  -4.180  0.00  0.00    +0.039 A 
ATOM     23  C   UNL     1      -0.351   1.967  -3.846  0.00  0.00    +0.123 A 
ATOM     24  C   UNL     1      -0.427   2.404  -2.533  0.00  0.00    +0.039 A 
ATOM     25  C   UNL     1      -0.916   1.565  -1.552  0.00  0.00    +0.013 A 
ATOM     26  C   UNL     1      -1.334   0.277  -1.884  0.00  0.00    +0.004 A 
ATOM     27  F   UNL     1       0.129   2.791  -4.802  0.00  0.00    -0.205 F 
ENDBRANCH  16  26
ENDBRANCH   1  17
TORSDOF 2
