REMARK  Name = CHEMBL568874
REMARK  11 active torsions:
REMARK  status: ('A' for Active; 'I' for Inactive)
REMARK    1  A    between atoms: C_1  and  C_2
REMARK    2  A    between atoms: C_5  and  N_8
REMARK    3  A    between atoms: C_9  and  N_17
REMARK    4  A    between atoms: C_11  and  C_13
REMARK    5  A    between atoms: C_13  and  C_14
REMARK    6  A    between atoms: C_13  and  C_15
REMARK    7  A    between atoms: C_13  and  C_16
REMARK    8  A    between atoms: N_20  and  C_21
REMARK    9  A    between atoms: C_25  and  N_27
REMARK   10  A    between atoms: N_27  and  C_28
REMARK   11  A    between atoms: C_35  and  N_38
REMARK                            x       y       z     vdW  Elec       q    Type
REMARK                         _______ _______ _______ _____ _____    ______ ____
ROOT
ATOM      1  N   UNL     1       0.732  -4.208   2.395  0.00  0.00    -0.254 N 
ATOM      2  C   UNL     1       1.586  -5.033   3.031  0.00  0.00    +0.309 C 
ATOM      3  O   UNL     1       1.815  -6.138   2.579  0.00  0.00    -0.252 OA
ATOM      4  N   UNL     1       2.188  -4.633   4.169  0.00  0.00    -0.269 N 
ATOM      5  H   UNL     1       0.550  -3.326   2.755  0.00  0.00    +0.158 HD
ATOM      6  H   UNL     1       2.042  -3.735   4.505  0.00  0.00    +0.156 HD
ENDROOT
BRANCH   4   7
ATOM      7  C   UNL     1       3.023  -5.513   4.866  0.00  0.00    +0.037 A 
ATOM      8  C   UNL     1       3.794  -6.437   4.171  0.00  0.00    +0.023 A 
ATOM      9  C   UNL     1       4.619  -7.307   4.858  0.00  0.00    +0.004 A 
ATOM     10  C   UNL     1       4.680  -7.261   6.237  0.00  0.00    +0.023 A 
ATOM     11  C   UNL     1       3.912  -6.340   6.938  0.00  0.00    +0.033 A 
ATOM     12  C   UNL     1       3.087  -5.461   6.250  0.00  0.00    +0.046 A 
BRANCH  11  13
ATOM     13  N   UNL     1       3.974  -6.294   8.333  0.00  0.00    -0.314 N 
ATOM     14  H   UNL     1       4.825  -6.407   8.785  0.00  0.00    +0.152 HD
BRANCH  13  15
ATOM     15  C   UNL     1       2.819  -6.088   9.073  0.00  0.00    +0.042 A 
ATOM     16  C   UNL     1       1.573  -6.077   8.465  0.00  0.00    +0.043 A 
ATOM     17  C   UNL     1       0.435  -5.868   9.232  0.00  0.00    +0.113 A 
ATOM     18  N   UNL     1       0.499  -5.677  10.529  0.00  0.00    -0.255 NA
ATOM     19  C   UNL     1       1.667  -5.674  11.181  0.00  0.00    +0.073 A 
ATOM     20  C   UNL     1       2.874  -5.886  10.473  0.00  0.00    +0.024 A 
ATOM     21  C   UNL     1       4.094  -5.888  11.162  0.00  0.00    +0.044 A 
ATOM     22  C   UNL     1       4.106  -5.691  12.511  0.00  0.00    +0.127 A 
ATOM     23  C   UNL     1       2.920  -5.488  13.213  0.00  0.00    +0.035 A 
ATOM     24  C   UNL     1       1.719  -5.467  12.571  0.00  0.00    +0.030 A 
BRANCH  22  25
ATOM     25  N   UNL     1       5.394  -5.693  13.238  0.00  0.00    +0.056 N 
ATOM     26  O   UNL     1       6.428  -5.869  12.637  0.00  0.00    -0.126 OA
ATOM     27  O   UNL     1       5.413  -5.518  14.435  0.00  0.00    -0.126 OA
ENDBRANCH  22  25
ENDBRANCH  13  15
ENDBRANCH  11  13
ENDBRANCH   4   7
BRANCH   1  29
ATOM     28  N   UNL     1      -0.771  -3.897   0.474  0.00  0.00    -0.218 N 
ATOM     29  C   UNL     1       0.109  -4.622   1.218  0.00  0.00    +0.130 A 
ATOM     30  C   UNL     1       0.270  -5.825   0.601  0.00  0.00    +0.069 A 
ATOM     31  C   UNL     1      -0.531  -5.831  -0.544  0.00  0.00    +0.071 A 
ATOM     32  N   UNL     1      -1.158  -4.684  -0.618  0.00  0.00    -0.169 NA
BRANCH  28  37
ATOM     33  C   UNL     1      -2.572   1.364   1.610  0.00  0.00    +0.044 C 
ATOM     34  C   UNL     1      -2.094  -0.033   1.308  0.00  0.00    -0.050 A 
ATOM     35  C   UNL     1      -1.917  -0.434  -0.003  0.00  0.00    +0.005 A 
ATOM     36  C   UNL     1      -1.479  -1.714  -0.283  0.00  0.00    +0.028 A 
ATOM     37  C   UNL     1      -1.215  -2.598   0.755  0.00  0.00    +0.067 A 
ATOM     38  C   UNL     1      -1.393  -2.192   2.071  0.00  0.00    +0.028 A 
ATOM     39  C   UNL     1      -1.827  -0.910   2.344  0.00  0.00    +0.005 A 
ENDBRANCH  28  37
BRANCH  31  40
ATOM     40  C   UNL     1      -0.658  -6.969  -1.524  0.00  0.00    +0.006 C 
ATOM     41  C   UNL     1      -1.517  -8.076  -0.911  0.00  0.00    +0.017 C 
ATOM     42  C   UNL     1      -1.318  -6.464  -2.809  0.00  0.00    +0.017 C 
ATOM     43  C   UNL     1       0.732  -7.521  -1.847  0.00  0.00    +0.017 C 
ENDBRANCH  31  40
ENDBRANCH   1  29
TORSDOF 7
