REMARK  Name = CHEMBL569114
REMARK  10 active torsions:
REMARK  status: ('A' for Active; 'I' for Inactive)
REMARK    1  A    between atoms: C_1  and  O_2
REMARK    2  A    between atoms: O_2  and  C_3
REMARK    3  A    between atoms: C_6  and  C_11
REMARK    4  A    between atoms: C_7  and  O_9
REMARK    5  A    between atoms: O_9  and  C_10
REMARK    6  A    between atoms: C_12  and  C_13
REMARK    7  A    between atoms: C_18  and  C_22
REMARK    8  A    between atoms: C_23  and  C_30
REMARK    9  A    between atoms: C_25  and  S_28
REMARK   10  A    between atoms: S_28  and  C_29
REMARK                            x       y       z     vdW  Elec       q    Type
REMARK                         _______ _______ _______ _____ _____    ______ ____
ROOT
ATOM      1  C   UNL     1      -8.779  -0.278   0.588  0.00  0.00    +0.242 C 
ATOM      2  O   UNL     1      -9.837   0.322   0.535  0.00  0.00    -0.270 OA
ATOM      3  N   UNL     1      -8.764  -1.624   0.527  0.00  0.00    -0.267 N 
ATOM      4  C   UNL     1      -9.963  -2.333   0.499  0.00  0.00    +0.126 A 
ATOM      5  C   UNL     1      -9.940  -3.719   0.549  0.00  0.00    +0.054 A 
ATOM      6  C   UNL     1     -11.153  -4.417   0.521  0.00  0.00    +0.005 A 
ATOM      7  C   UNL     1     -12.343  -3.675   0.442  0.00  0.00    +0.030 A 
ATOM      8  C   UNL     1     -12.275  -2.301   0.397  0.00  0.00    +0.113 A 
ATOM      9  N   UNL     1     -11.111  -1.676   0.431  0.00  0.00    -0.240 NA
ATOM     10  H   UNL     1      -7.919  -2.099   0.503  0.00  0.00    +0.157 HD
ENDROOT
BRANCH   6  11
ATOM     11  C   UNL     1     -11.181  -5.890   0.571  0.00  0.00    +0.075 A 
ATOM     12  C   UNL     1     -11.928  -6.732  -0.230  0.00  0.00    +0.098 A 
ATOM     13  N   UNL     1     -11.660  -7.997   0.144  0.00  0.00    -0.221 NA
ATOM     14  C   UNL     1     -10.792  -7.991   1.129  0.00  0.00    +0.167 A 
ATOM     15  N   UNL     1     -10.460  -6.705   1.426  0.00  0.00    -0.332 N 
ATOM     16  H   UNL     1      -9.836  -6.414   2.109  0.00  0.00    +0.168 HD
BRANCH  12  17
ATOM     17  C   UNL     1     -12.857  -6.318  -1.307  0.00  0.00    +0.003 A 
ATOM     18  C   UNL     1     -12.524  -5.256  -2.148  0.00  0.00    +0.013 A 
ATOM     19  C   UNL     1     -13.393  -4.874  -3.149  0.00  0.00    +0.039 A 
ATOM     20  C   UNL     1     -14.594  -5.544  -3.321  0.00  0.00    +0.123 A 
ATOM     21  C   UNL     1     -14.928  -6.600  -2.489  0.00  0.00    +0.039 A 
ATOM     22  C   UNL     1     -14.064  -6.993  -1.488  0.00  0.00    +0.013 A 
ATOM     23  F   UNL     1     -15.441  -5.166  -4.303  0.00  0.00    -0.205 F 
ENDBRANCH  12  17
BRANCH  14  24
ATOM     24  S   UNL     1     -10.152  -9.421   1.935  0.00  0.00    -0.091 S 
ATOM     25  C   UNL     1     -10.966 -10.803   1.087  0.00  0.00    +0.093 C 
ENDBRANCH  14  24
ENDBRANCH   6  11
BRANCH   1  27
ATOM     26  C   UNL     1      -7.579   1.791   0.775  0.00  0.00    +0.016 C 
ATOM     27  C   UNL     1      -7.563   0.440   0.714  0.00  0.00    +0.068 C 
BRANCH  26  31
ATOM     28  C   UNL     1      -3.939   3.930   1.151  0.00  0.00    +0.124 A 
ATOM     29  C   UNL     1      -3.931   2.540   1.088  0.00  0.00    +0.046 A 
ATOM     30  C   UNL     1      -5.101   1.847   0.967  0.00  0.00    +0.015 A 
ATOM     31  C   UNL     1      -6.320   2.533   0.906  0.00  0.00    +0.017 A 
ATOM     32  C   UNL     1      -6.332   3.937   0.969  0.00  0.00    +0.131 A 
ATOM     33  C   UNL     1      -5.138   4.626   1.097  0.00  0.00    +0.091 A 
BRANCH  28  35
ATOM     34  C   UNL     1      -1.571   3.831   1.321  0.00  0.00    +0.277 C 
ATOM     35  O   UNL     1      -2.769   4.608   1.271  0.00  0.00    -0.495 OA
ENDBRANCH  28  35
BRANCH  32  36
ATOM     36  O   UNL     1      -7.507   4.613   0.910  0.00  0.00    -0.494 OA
ATOM     37  C   UNL     1      -7.440   6.039   0.980  0.00  0.00    +0.277 C 
ENDBRANCH  32  36
ENDBRANCH  26  31
ENDBRANCH   1  27
TORSDOF 7
