REMARK  Name = CHEMBL452471
REMARK  6 active torsions:
REMARK  status: ('A' for Active; 'I' for Inactive)
REMARK    1  A    between atoms: C_1  and  S_2
REMARK    2  A    between atoms: S_2  and  C_3
REMARK    3  A    between atoms: C_6  and  C_16
REMARK    4  A    between atoms: C_7  and  C_9
REMARK    5  A    between atoms: N_22  and  C_23
REMARK    6  A    between atoms: C_23  and  C_24
REMARK                            x       y       z     vdW  Elec       q    Type
REMARK                         _______ _______ _______ _____ _____    ______ ____
ROOT
ATOM      1  C   UNL     1       0.045   1.043  -2.809  0.00  0.00    +0.167 A 
ATOM      2  N   UNL     1       1.122   0.302  -2.701  0.00  0.00    -0.221 NA
ATOM      3  H   UNL     1      -0.984   1.737  -4.490  0.00  0.00    +0.168 HD
ATOM      4  C   UNL     1       1.578  -0.013  -3.931  0.00  0.00    +0.098 A 
ATOM      5  C   UNL     1       0.731   0.568  -4.854  0.00  0.00    +0.075 A 
ATOM      6  N   UNL     1      -0.240   1.230  -4.128  0.00  0.00    -0.332 N 
ENDROOT
BRANCH   4   7
ATOM      7  C   UNL     1       2.771  -0.834  -4.236  0.00  0.00    +0.007 A 
ATOM      8  C   UNL     1       2.795  -1.683  -5.351  0.00  0.00    +0.027 A 
ATOM      9  C   UNL     1       3.923  -2.431  -5.601  0.00  0.00    +0.085 A 
ATOM     10  N   UNL     1       4.977  -2.358  -4.808  0.00  0.00    -0.350 N 
ATOM     11  C   UNL     1       5.000  -1.571  -3.743  0.00  0.00    +0.097 A 
ATOM     12  C   UNL     1       3.906  -0.779  -3.423  0.00  0.00    +0.051 A 
ATOM     13  N   UNL     1       6.135  -1.532  -2.941  0.00  0.00    -0.326 N 
ATOM     14  H   UNL     1       6.904  -2.080  -3.162  0.00  0.00    +0.148 HD
ATOM     15  H   UNL     1       5.757  -2.898  -5.011  0.00  0.00    +0.166 HD
BRANCH  13  16
ATOM     16  C   UNL     1       6.169  -0.664  -1.761  0.00  0.00    +0.145 C 
BRANCH  16  17
ATOM     17  C   UNL     1       7.501  -0.807  -1.070  0.00  0.00    +0.007 A 
ATOM     18  C   UNL     1       8.642  -0.102  -1.262  0.00  0.00    +0.013 A 
ATOM     19  C   UNL     1       9.756  -0.411  -0.504  0.00  0.00    +0.008 A 
ATOM     20  C   UNL     1       9.674  -1.409   0.408  0.00  0.00    +0.045 A 
ATOM     21  S   UNL     1       7.982  -1.945   0.219  0.00  0.00    -0.100 S 
ENDBRANCH  16  17
ENDBRANCH  13  16
ENDBRANCH   4   7
BRANCH   5  22
ATOM     22  C   UNL     1       0.838   0.492  -6.324  0.00  0.00    +0.001 A 
ATOM     23  C   UNL     1       2.076   0.672  -6.947  0.00  0.00    +0.013 A 
ATOM     24  C   UNL     1       2.170   0.599  -8.321  0.00  0.00    +0.039 A 
ATOM     25  C   UNL     1       1.040   0.348  -9.083  0.00  0.00    +0.123 A 
ATOM     26  C   UNL     1      -0.190   0.169  -8.471  0.00  0.00    +0.039 A 
ATOM     27  C   UNL     1      -0.296   0.234  -7.098  0.00  0.00    +0.013 A 
ATOM     28  F   UNL     1       1.139   0.277 -10.429  0.00  0.00    -0.205 F 
ENDBRANCH   5  22
BRANCH   1  30
ATOM     29  C   UNL     1      -0.013   1.086   0.008  0.00  0.00    +0.093 C 
ATOM     30  S   UNL     1      -0.890   1.687  -1.462  0.00  0.00    -0.091 S 
ENDBRANCH   1  30
TORSDOF 5
