REMARK  Name = CHEMBL333923
REMARK  5 active torsions:
REMARK  status: ('A' for Active; 'I' for Inactive)
REMARK    1  A    between atoms: C_1  and  C_2
REMARK    2  A    between atoms: C_2  and  C_4
REMARK    3  A    between atoms: C_2  and  N_10
REMARK    4  A    between atoms: C_13  and  C_17
REMARK    5  A    between atoms: C_18  and  C_27
REMARK                            x       y       z     vdW  Elec       q    Type
REMARK                         _______ _______ _______ _____ _____    ______ ____
ROOT
ATOM      1  C   UNL     1      -1.571  -0.098  -4.867  0.00  0.00    +0.083 A 
ATOM      2  C   UNL     1      -0.828   1.036  -5.156  0.00  0.00    +0.099 A 
ATOM      3  N   UNL     1      -0.461   0.972  -6.443  0.00  0.00    -0.210 NA
ATOM      4  C   UNL     1      -0.932  -0.143  -6.987  0.00  0.00    +0.238 A 
ATOM      5  N   UNL     1      -1.625  -0.837  -6.031  0.00  0.00    -0.283 N 
ATOM      6  C   UNL     1      -2.211  -2.033  -6.334  0.00  0.00    +0.098 A 
ATOM      7  C   UNL     1      -2.096  -2.526  -7.588  0.00  0.00    +0.061 A 
ATOM      8  C   UNL     1      -1.373  -1.791  -8.552  0.00  0.00    +0.121 A 
ATOM      9  N   UNL     1      -0.824  -0.634  -8.230  0.00  0.00    -0.197 NA
ATOM     10  N   UNL     1      -1.246  -2.279  -9.838  0.00  0.00    -0.343 N 
ATOM     11  H   UNL     1      -1.654  -3.127 -10.077  0.00  0.00    +0.144 HD
ATOM     12  H   UNL     1      -0.750  -1.775 -10.502  0.00  0.00    +0.144 HD
ENDROOT
BRANCH   1  16
ATOM     13  N   UNL     1      -1.372  -0.511   0.012  0.00  0.00    -0.324 N 
ATOM     14  C   UNL     1      -2.072  -0.647  -1.181  0.00  0.00    +0.097 A 
ATOM     15  C   UNL     1      -1.460  -0.305  -2.378  0.00  0.00    +0.051 A 
ATOM     16  C   UNL     1      -2.179  -0.448  -3.571  0.00  0.00    +0.006 A 
ATOM     17  C   UNL     1      -3.494  -0.934  -3.498  0.00  0.00    +0.027 A 
ATOM     18  C   UNL     1      -4.025  -1.250  -2.269  0.00  0.00    +0.085 A 
ATOM     19  N   UNL     1      -3.316  -1.106  -1.163  0.00  0.00    -0.350 N 
ATOM     20  H   UNL     1      -1.794  -0.752   0.852  0.00  0.00    +0.148 HD
ATOM     21  H   UNL     1      -3.718  -1.341  -0.313  0.00  0.00    +0.166 HD
BRANCH  13  23
ATOM     22  C   UNL     1      -0.019   1.526   0.010  0.00  0.00    +0.033 C 
ATOM     23  C   UNL     1       0.002  -0.004   0.002  0.00  0.00    +0.099 C 
BRANCH  23  24
ATOM     24  C   UNL     1       0.731  -0.503   1.223  0.00  0.00    -0.028 A 
ATOM     25  C   UNL     1       0.081  -0.558   2.442  0.00  0.00    +0.005 A 
ATOM     26  C   UNL     1       0.749  -1.016   3.562  0.00  0.00    +0.000 A 
ATOM     27  C   UNL     1       2.068  -1.420   3.463  0.00  0.00    +0.000 A 
ATOM     28  C   UNL     1       2.718  -1.365   2.244  0.00  0.00    +0.000 A 
ATOM     29  C   UNL     1       2.048  -0.911   1.123  0.00  0.00    +0.005 A 
ENDBRANCH  23  24
ENDBRANCH  13  23
ENDBRANCH   1  16
BRANCH   2  30
ATOM     30  C   UNL     1      -0.498   2.126  -4.209  0.00  0.00    +0.003 A 
ATOM     31  C   UNL     1      -1.413   2.500  -3.225  0.00  0.00    +0.010 A 
ATOM     32  C   UNL     1      -1.100   3.516  -2.346  0.00  0.00    +0.001 A 
ATOM     33  C   UNL     1       0.118   4.164  -2.439  0.00  0.00    +0.000 A 
ATOM     34  C   UNL     1       1.030   3.798  -3.413  0.00  0.00    +0.001 A 
ATOM     35  C   UNL     1       0.731   2.779  -4.294  0.00  0.00    +0.010 A 
ENDBRANCH   2  30
TORSDOF 4
