REMARK  Name = CHEMBL348228
REMARK  9 active torsions:
REMARK  status: ('A' for Active; 'I' for Inactive)
REMARK    1  A    between atoms: C_1  and  C_2
REMARK    2  A    between atoms: C_2  and  C_8
REMARK    3  A    between atoms: C_10  and  N_19
REMARK    4  A    between atoms: N_11  and  C_13
REMARK    5  A    between atoms: N_22  and  C_23
REMARK    6  A    between atoms: C_26  and  O_33
REMARK    7  A    between atoms: O_33  and  C_34
REMARK    8  A    between atoms: C_34  and  C_35
REMARK    9  A    between atoms: C_35  and  N_36
REMARK                            x       y       z     vdW  Elec       q    Type
REMARK                         _______ _______ _______ _____ _____    ______ ____
ROOT
ATOM      1  N   UNL     1      -5.007  -0.598  -0.978  0.00  0.00    -0.254 N 
ATOM      2  C   UNL     1      -5.190   0.333  -1.934  0.00  0.00    +0.309 C 
ATOM      3  O   UNL     1      -4.238   0.950  -2.372  0.00  0.00    -0.252 OA
ATOM      4  N   UNL     1      -6.428   0.581  -2.405  0.00  0.00    -0.269 N 
ATOM      5  H   UNL     1      -5.766  -1.091  -0.628  0.00  0.00    +0.158 HD
ATOM      6  H   UNL     1      -7.177   0.042  -2.107  0.00  0.00    +0.156 HD
ENDROOT
BRANCH   4   7
ATOM      7  C   UNL     1      -6.633   1.617  -3.323  0.00  0.00    +0.043 A 
ATOM      8  C   UNL     1      -5.667   1.917  -4.258  0.00  0.00    +0.027 A 
ATOM      9  C   UNL     1      -5.859   2.944  -5.177  0.00  0.00    +0.048 A 
ATOM     10  C   UNL     1      -7.008   3.683  -5.177  0.00  0.00    +0.128 A 
ATOM     11  C   UNL     1      -8.019   3.407  -4.235  0.00  0.00    +0.026 A 
ATOM     12  C   UNL     1      -7.833   2.359  -3.301  0.00  0.00    +0.007 A 
ATOM     13  C   UNL     1      -8.844   2.081  -2.366  0.00  0.00    +0.010 A 
ATOM     14  C   UNL     1      -9.989   2.818  -2.374  0.00  0.00    +0.001 A 
ATOM     15  C   UNL     1     -10.174   3.845  -3.297  0.00  0.00    +0.001 A 
ATOM     16  C   UNL     1      -9.211   4.149  -4.210  0.00  0.00    +0.012 A 
BRANCH  10  17
ATOM     17  O   UNL     1      -7.174   4.683  -6.082  0.00  0.00    -0.490 OA
BRANCH  17  18
ATOM     18  C   UNL     1      -6.107   4.906  -7.006  0.00  0.00    +0.244 C 
BRANCH  18  19
ATOM     19  C   UNL     1      -6.474   6.062  -7.939  0.00  0.00    +0.125 C 
BRANCH  19  20
ATOM     20  N   UNL     1      -6.614   7.297  -7.157  0.00  0.00    -0.295 NA
ATOM     21  C   UNL     1      -7.205   8.371  -7.969  0.00  0.00    +0.112 C 
ATOM     22  C   UNL     1      -7.387   9.619  -7.101  0.00  0.00    +0.175 C 
ATOM     23  O   UNL     1      -6.125   9.994  -6.543  0.00  0.00    -0.377 OA
ATOM     24  C   UNL     1      -5.522   8.972  -5.745  0.00  0.00    +0.175 C 
ATOM     25  C   UNL     1      -5.320   7.717  -6.600  0.00  0.00    +0.112 C 
ENDBRANCH  19  20
ENDBRANCH  18  19
ENDBRANCH  17  18
ENDBRANCH  10  17
ENDBRANCH   4   7
BRANCH   1  28
ATOM     26  C   UNL     1      -1.522  -0.792  -0.151  0.00  0.00    +0.071 A 
ATOM     27  C   UNL     1      -2.576  -0.243  -0.887  0.00  0.00    +0.069 A 
ATOM     28  C   UNL     1      -3.725  -0.855  -0.490  0.00  0.00    +0.130 A 
ATOM     29  N   UNL     1      -3.395  -1.762   0.468  0.00  0.00    -0.218 N 
ATOM     30  N   UNL     1      -2.008  -1.703   0.654  0.00  0.00    -0.169 NA
BRANCH  26  32
ATOM     31  C   UNL     1       0.051   1.119  -0.302  0.00  0.00    +0.018 C 
ATOM     32  C   UNL     1      -0.070  -0.406  -0.269  0.00  0.00    +0.012 C 
ATOM     33  C   UNL     1       0.510  -0.992  -1.557  0.00  0.00    +0.013 C 
ATOM     34  C   UNL     1       1.984  -0.600  -1.677  0.00  0.00    +0.001 C 
ATOM     35  C   UNL     1       2.757  -1.147  -0.475  0.00  0.00    +0.000 C 
ATOM     36  C   UNL     1       2.176  -0.560   0.814  0.00  0.00    +0.001 C 
ATOM     37  C   UNL     1       0.702  -0.953   0.934  0.00  0.00    +0.013 C 
ENDBRANCH  26  32
BRANCH  29  38
ATOM     38  C   UNL     1      -4.284  -2.609   1.145  0.00  0.00    +0.067 A 
ATOM     39  C   UNL     1      -5.566  -2.172   1.450  0.00  0.00    +0.028 A 
ATOM     40  C   UNL     1      -6.439  -3.009   2.117  0.00  0.00    +0.002 A 
ATOM     41  C   UNL     1      -6.037  -4.281   2.482  0.00  0.00    +0.000 A 
ATOM     42  C   UNL     1      -4.761  -4.719   2.180  0.00  0.00    +0.002 A 
ATOM     43  C   UNL     1      -3.885  -3.889   1.507  0.00  0.00    +0.028 A 
ENDBRANCH  29  38
ENDBRANCH   1  28
TORSDOF 8
