REMARK  Name = CHEMBL355790
REMARK  7 active torsions:
REMARK  status: ('A' for Active; 'I' for Inactive)
REMARK    1  A    between atoms: C_1  and  C_2
REMARK    2  A    between atoms: C_2  and  N_3
REMARK    3  A    between atoms: C_7  and  C_15
REMARK    4  A    between atoms: N_10  and  C_13
REMARK    5  A    between atoms: C_13  and  C_14
REMARK    6  A    between atoms: C_16  and  C_26
REMARK    7  A    between atoms: N_19  and  C_20
REMARK                            x       y       z     vdW  Elec       q    Type
REMARK                         _______ _______ _______ _____ _____    ______ ____
ROOT
ATOM      1  C   UNL     1      -0.843  -1.791  -6.445  0.00  0.00    +0.075 A 
ATOM      2  C   UNL     1      -0.149  -1.423  -7.584  0.00  0.00    +0.072 A 
ATOM      3  N   UNL     1      -0.785  -1.967  -8.639  0.00  0.00    -0.345 N 
ATOM      4  C   UNL     1      -1.820  -2.643  -8.224  0.00  0.00    +0.175 A 
ATOM      5  N   UNL     1      -1.895  -2.569  -6.871  0.00  0.00    -0.328 N 
ATOM      6  H   UNL     1      -0.515  -1.870  -9.565  0.00  0.00    +0.167 HD
ENDROOT
BRANCH   1  11
ATOM      7  N   UNL     1       0.688  -0.476  -1.203  0.00  0.00    -0.292 N 
ATOM      8  C   UNL     1       0.086  -0.744  -2.431  0.00  0.00    +0.070 A 
ATOM      9  C   UNL     1      -1.224  -0.665  -2.883  0.00  0.00    +0.028 A 
ATOM     10  C   UNL     1      -1.526  -1.004  -4.184  0.00  0.00    +0.012 A 
ATOM     11  C   UNL     1      -0.516  -1.428  -5.052  0.00  0.00    +0.003 A 
ATOM     12  C   UNL     1       0.802  -1.508  -4.601  0.00  0.00    +0.038 A 
ATOM     13  C   UNL     1       1.102  -1.167  -3.293  0.00  0.00    +0.070 A 
ATOM     14  N   UNL     1       2.287  -1.143  -2.561  0.00  0.00    -0.292 N 
ATOM     15  C   UNL     1       2.007  -0.720  -1.314  0.00  0.00    +0.330 A 
ATOM     16  O   UNL     1       2.823  -0.581  -0.422  0.00  0.00    -0.246 OA
BRANCH   7  18
ATOM     17  C   UNL     1      -0.019   1.526   0.010  0.00  0.00    +0.027 C 
ATOM     18  C   UNL     1       0.002  -0.004   0.002  0.00  0.00    +0.123 C 
ENDBRANCH   7  18
BRANCH  14  19
ATOM     19  C   UNL     1       3.613  -1.510  -3.065  0.00  0.00    +0.123 C 
ATOM     20  C   UNL     1       4.298  -0.272  -3.647  0.00  0.00    +0.027 C 
ENDBRANCH  14  19
ENDBRANCH   1  11
BRANCH   5  21
ATOM     21  C   UNL     1      -2.910  -3.197  -6.022  0.00  0.00    +0.085 C 
ATOM     22  C   UNL     1      -2.874  -4.716  -6.219  0.00  0.00    +0.006 C 
ATOM     23  C   UNL     1      -3.988  -5.359  -5.390  0.00  0.00    -0.081 C 
ATOM     24  N   UNL     1      -5.289  -4.838  -5.825  0.00  0.00    +0.379 N 
ATOM     25  C   UNL     1      -5.357  -3.394  -5.572  0.00  0.00    -0.081 C 
ATOM     26  C   UNL     1      -4.296  -2.675  -6.408  0.00  0.00    +0.006 C 
ATOM     27  H   UNL     1      -5.407  -5.011  -6.812  0.00  0.00    -0.086 HD
ATOM     28  H   UNL     1      -6.024  -5.303  -5.314  0.00  0.00    -0.086 HD
ENDBRANCH   5  21
BRANCH   2  29
ATOM     29  C   UNL     1       1.070  -0.584  -7.633  0.00  0.00    +0.001 A 
ATOM     30  C   UNL     1       1.149   0.582  -6.871  0.00  0.00    +0.013 A 
ATOM     31  C   UNL     1       2.287   1.360  -6.921  0.00  0.00    +0.039 A 
ATOM     32  C   UNL     1       3.351   0.986  -7.726  0.00  0.00    +0.123 A 
ATOM     33  C   UNL     1       3.277  -0.171  -8.485  0.00  0.00    +0.039 A 
ATOM     34  C   UNL     1       2.146  -0.959  -8.438  0.00  0.00    +0.013 A 
ATOM     35  F   UNL     1       4.463   1.751  -7.771  0.00  0.00    -0.205 F 
ENDBRANCH   2  29
TORSDOF 5
