REMARK  Name = CHEMBL63442
REMARK  3 active torsions:
REMARK  status: ('A' for Active; 'I' for Inactive)
REMARK    1  A    between atoms: C_6  and  C_7
REMARK    2  A    between atoms: C_8  and  C_23
REMARK    3  A    between atoms: C_10  and  C_13
REMARK                            x       y       z     vdW  Elec       q    Type
REMARK                         _______ _______ _______ _____ _____    ______ ____
ROOT
ATOM      1  C   UNL     1      -1.270  -0.765   0.011  0.00  0.00    +0.097 A 
ATOM      2  C   UNL     1      -1.505  -1.970  -0.631  0.00  0.00    +0.074 A 
ATOM      3  N   UNL     1      -2.810  -2.309  -0.354  0.00  0.00    -0.337 N 
ATOM      4  C   UNL     1      -3.324  -1.320   0.433  0.00  0.00    +0.145 A 
ATOM      5  N   UNL     1      -2.398  -0.413   0.645  0.00  0.00    -0.227 NA
ATOM      6  H   UNL     1      -3.277  -3.101  -0.661  0.00  0.00    +0.167 HD
ENDROOT
BRANCH   4   7
ATOM      7  C   UNL     1      -4.702  -1.279   0.966  0.00  0.00    +0.096 A 
ATOM      8  C   UNL     1      -5.613  -2.306   0.687  0.00  0.00    +0.191 A 
ATOM      9  C   UNL     1      -6.893  -2.227   1.207  0.00  0.00    +0.252 A 
ATOM     10  N   UNL     1      -7.260  -1.202   1.955  0.00  0.00    -0.186 NA
ATOM     11  C   UNL     1      -6.433  -0.212   2.242  0.00  0.00    +0.252 A 
ATOM     12  C   UNL     1      -5.132  -0.213   1.768  0.00  0.00    +0.191 A 
ATOM     13  F   UNL     1      -4.291   0.800   2.070  0.00  0.00    -0.200 F 
ATOM     14  F   UNL     1      -6.861   0.812   3.012  0.00  0.00    -0.181 F 
ATOM     15  F   UNL     1      -7.781  -3.212   0.945  0.00  0.00    -0.181 F 
ATOM     16  F   UNL     1      -5.247  -3.358  -0.077  0.00  0.00    -0.200 F 
ENDBRANCH   4   7
BRANCH   1  22
ATOM     17  C   UNL     1      -0.017   1.390   0.010  0.00  0.00    +0.013 A 
ATOM     18  C   UNL     1       1.170   2.094   0.002  0.00  0.00    +0.039 A 
ATOM     19  C   UNL     1       2.379   1.418  -0.013  0.00  0.00    +0.123 A 
ATOM     20  C   UNL     1       2.403   0.032  -0.021  0.00  0.00    +0.039 A 
ATOM     21  C   UNL     1       1.222  -0.680  -0.013  0.00  0.00    +0.013 A 
ATOM     22  C   UNL     1       0.002  -0.004   0.002  0.00  0.00    +0.003 A 
ATOM     23  F   UNL     1       3.538   2.111  -0.021  0.00  0.00    -0.205 F 
ENDBRANCH   1  22
BRANCH   2  24
ATOM     24  C   UNL     1      -0.547  -2.738  -1.448  0.00  0.00    +0.003 A 
ATOM     25  C   UNL     1       0.263  -2.101  -2.398  0.00  0.00    +0.030 A 
ATOM     26  C   UNL     1       1.144  -2.858  -3.140  0.00  0.00    +0.111 A 
ATOM     27  N   UNL     1       1.231  -4.163  -2.965  0.00  0.00    -0.263 NA
ATOM     28  C   UNL     1       0.488  -4.803  -2.082  0.00  0.00    +0.111 A 
ATOM     29  C   UNL     1      -0.417  -4.125  -1.293  0.00  0.00    +0.030 A 
ENDBRANCH   2  24
TORSDOF 3
