REMARK  Name = CHEMBL119952
REMARK  6 active torsions:
REMARK  status: ('A' for Active; 'I' for Inactive)
REMARK    1  A    between atoms: C_1  and  C_2
REMARK    2  A    between atoms: C_2  and  C_4
REMARK    3  A    between atoms: C_2  and  N_10
REMARK    4  A    between atoms: C_15  and  N_17
REMARK    5  A    between atoms: C_25  and  C_26
REMARK    6  A    between atoms: N_36  and  C_39
REMARK                            x       y       z     vdW  Elec       q    Type
REMARK                         _______ _______ _______ _____ _____    ______ ____
ROOT
ATOM      1  N   UNL     1       0.713  -1.861   5.704  0.00  0.00    -0.275 N 
ATOM      2  C   UNL     1       2.051  -2.217   5.750  0.00  0.00    +0.094 A 
ATOM      3  C   UNL     1       3.025  -2.440   4.783  0.00  0.00    +0.033 A 
ATOM      4  C   UNL     1       4.295  -2.790   5.200  0.00  0.00    +0.046 A 
ATOM      5  C   UNL     1       4.559  -2.907   6.565  0.00  0.00    +0.124 A 
ATOM      6  N   UNL     1       3.619  -2.691   7.465  0.00  0.00    -0.211 NA
ATOM      7  C   UNL     1       2.378  -2.351   7.109  0.00  0.00    +0.181 A 
ATOM      8  N   UNL     1       1.262  -2.080   7.816  0.00  0.00    -0.208 NA
ATOM      9  C   UNL     1       0.277  -1.785   7.002  0.00  0.00    +0.149 A 
ATOM     10  N   UNL     1       5.838  -3.260   6.984  0.00  0.00    -0.319 N 
ATOM     11  C   UNL     1       6.102  -3.618   8.386  0.00  0.00    +0.088 C 
ATOM     12  C   UNL     1       6.862  -4.948   8.413  0.00  0.00    -0.060 C 
ATOM     13  N   UNL     1       8.065  -4.841   7.578  0.00  0.00    +0.380 N 
ATOM     14  C   UNL     1       7.683  -4.632   6.176  0.00  0.00    -0.060 C 
ATOM     15  C   UNL     1       6.963  -3.291   6.037  0.00  0.00    +0.088 C 
ATOM     16  C   UNL     1       8.849  -6.077   7.691  0.00  0.00    -0.096 C 
ATOM     17  H   UNL     1       8.623  -4.061   7.894  0.00  0.00    -0.082 HD
ENDROOT
BRANCH   1  23
ATOM     18  N   UNL     1      -3.076  -2.758   3.076  0.00  0.00    -0.307 N 
ATOM     19  C   UNL     1      -1.899  -2.054   3.264  0.00  0.00    +0.217 A 
ATOM     20  N   UNL     1      -1.522  -1.171   2.350  0.00  0.00    -0.223 NA
ATOM     21  C   UNL     1      -0.402  -0.479   2.495  0.00  0.00    +0.118 A 
ATOM     22  C   UNL     1       0.380  -0.685   3.616  0.00  0.00    +0.066 A 
ATOM     23  C   UNL     1      -0.043  -1.621   4.560  0.00  0.00    +0.145 A 
ATOM     24  N   UNL     1      -1.180  -2.276   4.353  0.00  0.00    -0.197 NA
ATOM     25  H   UNL     1      -3.365  -3.404   3.739  0.00  0.00    +0.149 HD
BRANCH  18  27
ATOM     26  C   UNL     1      -3.357  -3.392   0.731  0.00  0.00    +0.033 C 
ATOM     27  C   UNL     1      -3.885  -2.526   1.877  0.00  0.00    +0.100 C 
BRANCH  27  28
ATOM     28  C   UNL     1      -5.319  -2.889   2.162  0.00  0.00    -0.027 A 
ATOM     29  C   UNL     1      -5.612  -4.005   2.923  0.00  0.00    +0.005 A 
ATOM     30  C   UNL     1      -6.928  -4.338   3.183  0.00  0.00    +0.000 A 
ATOM     31  C   UNL     1      -7.952  -3.555   2.683  0.00  0.00    +0.000 A 
ATOM     32  C   UNL     1      -7.659  -2.438   1.923  0.00  0.00    +0.000 A 
ATOM     33  C   UNL     1      -6.343  -2.103   1.666  0.00  0.00    +0.005 A 
ENDBRANCH  27  28
ENDBRANCH  18  27
ENDBRANCH   1  23
BRANCH   9  34
ATOM     34  C   UNL     1      -1.095  -1.429   7.419  0.00  0.00    +0.018 A 
ATOM     35  C   UNL     1      -1.944  -0.757   6.537  0.00  0.00    +0.014 A 
ATOM     36  C   UNL     1      -3.223  -0.427   6.932  0.00  0.00    +0.039 A 
ATOM     37  C   UNL     1      -3.667  -0.761   8.202  0.00  0.00    +0.123 A 
ATOM     38  C   UNL     1      -2.829  -1.428   9.082  0.00  0.00    +0.039 A 
ATOM     39  C   UNL     1      -1.550  -1.769   8.695  0.00  0.00    +0.014 A 
ATOM     40  F   UNL     1      -4.921  -0.435   8.584  0.00  0.00    -0.205 F 
ENDBRANCH   9  34
TORSDOF 4
