REMARK  Name = CHEMBL377979
REMARK  6 active torsions:
REMARK  status: ('A' for Active; 'I' for Inactive)
REMARK    1  A    between atoms: C_1  and  C_2
REMARK    2  A    between atoms: C_2  and  C_3
REMARK    3  A    between atoms: C_2  and  N_4
REMARK    4  A    between atoms: C_7  and  N_10
REMARK    5  A    between atoms: C_13  and  C_30
REMARK    6  A    between atoms: N_17  and  C_22
REMARK                            x       y       z     vdW  Elec       q    Type
REMARK                         _______ _______ _______ _____ _____    ______ ____
ROOT
ATOM      1  N   UNL     1      -5.209  -1.933  -0.959  0.00  0.00    -0.311 N 
ATOM      2  C   UNL     1      -5.875  -2.346  -2.100  0.00  0.00    +0.218 A 
ATOM      3  N   UNL     1      -5.343  -2.077  -3.282  0.00  0.00    -0.214 NA
ATOM      4  C   UNL     1      -5.955  -2.459  -4.407  0.00  0.00    +0.084 A 
ATOM      5  C   UNL     1      -7.156  -3.141  -4.305  0.00  0.00    +0.036 A 
ATOM      6  C   UNL     1      -7.688  -3.408  -3.045  0.00  0.00    +0.144 A 
ATOM      7  N   UNL     1      -7.020  -3.002  -1.972  0.00  0.00    -0.198 NA
ATOM      8  N   UNL     1      -8.890  -4.090  -2.935  0.00  0.00    -0.205 N 
ATOM      9  C   UNL     1      -9.586  -4.517  -3.996  0.00  0.00    +0.312 C 
ATOM     10  O   UNL     1     -10.632  -5.106  -3.803  0.00  0.00    -0.252 OA
ATOM     11  N   UNL     1      -9.186  -4.325  -5.266  0.00  0.00    -0.294 N 
ATOM     12  C   UNL     1      -7.920  -3.612  -5.518  0.00  0.00    +0.146 C 
ATOM     13  H   UNL     1      -5.582  -2.125  -0.084  0.00  0.00    +0.149 HD
ATOM     14  H   UNL     1      -9.721  -4.652  -6.006  0.00  0.00    +0.151 HD
ENDROOT
BRANCH   8  15
ATOM     15  C   UNL     1      -9.400  -4.343  -1.654  0.00  0.00    +0.081 A 
ATOM     16  C   UNL     1      -9.053  -5.511  -0.986  0.00  0.00    +0.064 A 
ATOM     17  C   UNL     1      -9.558  -5.758   0.277  0.00  0.00    +0.022 A 
ATOM     18  C   UNL     1     -10.406  -4.845   0.876  0.00  0.00    +0.003 A 
ATOM     19  C   UNL     1     -10.754  -3.682   0.213  0.00  0.00    +0.022 A 
ATOM     20  C   UNL     1     -10.248  -3.425  -1.047  0.00  0.00    +0.064 A 
ATOM     21 CL   UNL     1     -10.677  -1.961  -1.874  0.00  0.00    -0.082 Cl
ATOM     22 CL   UNL     1      -7.989  -6.659  -1.736  0.00  0.00    -0.082 Cl
ENDBRANCH   8  15
BRANCH   1  26
ATOM     23  N   UNL     1      -2.173   0.841  -0.037  0.00  0.00    +0.381 N 
ATOM     24  C   UNL     1      -1.837  -0.580   0.115  0.00  0.00    -0.077 C 
ATOM     25  C   UNL     1      -3.122  -1.405   0.206  0.00  0.00    +0.004 C 
ATOM     26  C   UNL     1      -3.942  -1.206  -1.072  0.00  0.00    +0.070 C 
ATOM     27  C   UNL     1      -4.223   0.287  -1.259  0.00  0.00    +0.004 C 
ATOM     28  C   UNL     1      -2.897   1.049  -1.297  0.00  0.00    -0.077 C 
ATOM     29  H   UNL     1      -2.753   1.131   0.735  0.00  0.00    -0.081 HD
BRANCH  23  31
ATOM     30  C   UNL     1      -1.287   3.118  -0.196  0.00  0.00    -0.014 C 
ATOM     31  C   UNL     1      -0.938   1.636  -0.047  0.00  0.00    -0.075 C 
ATOM     32  C   UNL     1      -0.181   1.419   1.266  0.00  0.00    -0.014 C 
ENDBRANCH  23  31
ENDBRANCH   1  26
BRANCH   4  33
ATOM     33  C   UNL     1      -5.363  -2.159  -5.733  0.00  0.00    +0.019 A 
ATOM     34  C   UNL     1      -6.111  -1.486  -6.698  0.00  0.00    +0.011 A 
ATOM     35  C   UNL     1      -5.555  -1.210  -7.930  0.00  0.00    +0.001 A 
ATOM     36  C   UNL     1      -4.257  -1.599  -8.210  0.00  0.00    +0.001 A 
ATOM     37  C   UNL     1      -3.509  -2.267  -7.258  0.00  0.00    +0.020 A 
ATOM     38  C   UNL     1      -4.053  -2.544  -6.018  0.00  0.00    +0.050 A 
ATOM     39 CL   UNL     1      -3.110  -3.376  -4.821  0.00  0.00    -0.083 Cl
ENDBRANCH   4  33
TORSDOF 4
