REMARK  Name = CHEMBL383348
REMARK  11 active torsions:
REMARK  status: ('A' for Active; 'I' for Inactive)
REMARK    1  A    between atoms: C_1  and  C_2
REMARK    2  A    between atoms: C_2  and  C_3
REMARK    3  A    between atoms: C_3  and  N_4
REMARK    4  A    between atoms: C_9  and  C_11
REMARK    5  A    between atoms: C_12  and  C_31
REMARK    6  A    between atoms: C_16  and  C_20
REMARK    7  A    between atoms: C_20  and  O_21
REMARK    8  A    between atoms: O_21  and  C_22
REMARK    9  A    between atoms: C_22  and  C_23
REMARK   10  A    between atoms: C_26  and  O_29
REMARK   11  A    between atoms: O_29  and  C_30
REMARK                            x       y       z     vdW  Elec       q    Type
REMARK                         _______ _______ _______ _____ _____    ______ ____
ROOT
ATOM      1  C   UNL     1       1.913  -6.120  -3.292  0.00  0.00    +0.096 A 
ATOM      2  C   UNL     1       1.820  -6.945  -2.186  0.00  0.00    +0.099 A 
ATOM      3  N   UNL     1       1.860  -8.213  -2.627  0.00  0.00    -0.232 NA
ATOM      4  C   UNL     1       1.969  -8.223  -3.933  0.00  0.00    +0.111 A 
ATOM      5  N   UNL     1       2.003  -6.956  -4.388  0.00  0.00    -0.321 N 
ATOM      6  C   UNL     1       2.124  -6.919  -5.853  0.00  0.00    +0.115 C 
ATOM      7  C   UNL     1       1.726  -8.330  -6.336  0.00  0.00    +0.035 C 
ATOM      8  C   UNL     1       2.065  -9.192  -5.096  0.00  0.00    +0.076 C 
ENDROOT
BRANCH   1  14
ATOM      9  N   UNL     1       0.738  -1.962  -1.265  0.00  0.00    -0.313 N 
ATOM     10  C   UNL     1       1.337  -2.641  -2.312  0.00  0.00    +0.216 A 
ATOM     11  N   UNL     1       1.892  -1.948  -3.297  0.00  0.00    -0.223 NA
ATOM     12  C   UNL     1       2.475  -2.558  -4.318  0.00  0.00    +0.116 A 
ATOM     13  C   UNL     1       2.504  -3.939  -4.354  0.00  0.00    +0.050 A 
ATOM     14  C   UNL     1       1.909  -4.646  -3.300  0.00  0.00    +0.094 A 
ATOM     15  N   UNL     1       1.345  -3.964  -2.302  0.00  0.00    -0.213 NA
ATOM     16  H   UNL     1       0.332  -2.457  -0.536  0.00  0.00    +0.149 HD
BRANCH   9  17
ATOM     17  C   UNL     1       0.718  -0.497  -1.257  0.00  0.00    +0.104 C 
BRANCH  17  19
ATOM     18  C   UNL     1      -0.019   1.526   0.010  0.00  0.00    +0.005 C 
ATOM     19  C   UNL     1       0.002  -0.004   0.002  0.00  0.00    +0.015 C 
ENDBRANCH  17  19
ENDBRANCH   9  17
ENDBRANCH   1  14
BRANCH   2  20
ATOM     20  C   UNL     1       1.700  -6.510  -0.775  0.00  0.00    +0.003 A 
ATOM     21  C   UNL     1       2.351  -5.356  -0.340  0.00  0.00    +0.013 A 
ATOM     22  C   UNL     1       2.236  -4.955   0.975  0.00  0.00    +0.039 A 
ATOM     23  C   UNL     1       1.475  -5.698   1.863  0.00  0.00    +0.123 A 
ATOM     24  C   UNL     1       0.827  -6.846   1.437  0.00  0.00    +0.039 A 
ATOM     25  C   UNL     1       0.930  -7.251   0.122  0.00  0.00    +0.013 A 
ATOM     26  F   UNL     1       1.366  -5.302   3.150  0.00  0.00    -0.205 F 
ENDBRANCH   2  20
BRANCH   6  27
ATOM     27  C   UNL     1       1.176  -5.870  -6.436  0.00  0.00    +0.185 C 
BRANCH  27  28
ATOM     28  O   UNL     1       1.390  -5.765  -7.845  0.00  0.00    -0.373 OA
BRANCH  28  29
ATOM     29  C   UNL     1       0.549  -4.807  -8.491  0.00  0.00    +0.195 C 
BRANCH  29  30
ATOM     30  C   UNL     1       0.859  -4.780  -9.966  0.00  0.00    -0.022 A 
ATOM     31  C   UNL     1       1.828  -3.922 -10.452  0.00  0.00    +0.009 A 
ATOM     32  C   UNL     1       2.114  -3.896 -11.804  0.00  0.00    +0.046 A 
ATOM     33  C   UNL     1       1.427  -4.731 -12.673  0.00  0.00    +0.120 A 
ATOM     34  C   UNL     1       0.455  -5.591 -12.182  0.00  0.00    +0.046 A 
ATOM     35  C   UNL     1       0.177  -5.617 -10.830  0.00  0.00    +0.009 A 
BRANCH  33  36
ATOM     36  O   UNL     1       1.706  -4.706 -14.003  0.00  0.00    -0.495 OA
ATOM     37  C   UNL     1       0.960  -5.593 -14.839  0.00  0.00    +0.277 C 
ENDBRANCH  33  36
ENDBRANCH  29  30
ENDBRANCH  28  29
ENDBRANCH  27  28
ENDBRANCH   6  27
TORSDOF 9
