REMARK  Name = CHEMBL522877
REMARK  4 active torsions:
REMARK  status: ('A' for Active; 'I' for Inactive)
REMARK    1  A    between atoms: C_1  and  C_2
REMARK    2  A    between atoms: C_7  and  C_8
REMARK    3  A    between atoms: C_23  and  C_25
REMARK    4  A    between atoms: N_29  and  C_30
REMARK                            x       y       z     vdW  Elec       q    Type
REMARK                         _______ _______ _______ _____ _____    ______ ____
ROOT
ATOM      1  C   UNL     1       0.656   0.540   2.496  0.00  0.00    -0.013 A 
ATOM      2  C   UNL     1      -0.495   1.293   2.772  0.00  0.00    +0.009 A 
ATOM      3  C   UNL     1      -0.697   1.838   4.003  0.00  0.00    +0.012 A 
ATOM      4  C   UNL     1       0.256   1.646   5.011  0.00  0.00    +0.025 A 
ATOM      5  C   UNL     1       1.425   0.886   4.744  0.00  0.00    +0.003 A 
ATOM      6  C   UNL     1       1.613   0.330   3.475  0.00  0.00    +0.018 A 
ATOM      7  C   UNL     1       2.353   0.721   5.791  0.00  0.00    +0.112 A 
ATOM      8  N   UNL     1       2.104   1.269   6.957  0.00  0.00    -0.282 N 
ATOM      9  N   UNL     1       1.051   1.956   7.205  0.00  0.00    -0.158 NA
ATOM     10  C   UNL     1       0.107   2.184   6.310  0.00  0.00    +0.150 A 
ATOM     11  N   UNL     1      -1.010   2.935   6.638  0.00  0.00    -0.306 N 
ATOM     12  C   UNL     1      -1.043   4.387   6.401  0.00  0.00    +0.135 C 
ATOM     13  C   UNL     1      -1.490   5.078   7.694  0.00  0.00    +0.179 C 
ATOM     14  O   UNL     1      -2.707   4.481   8.151  0.00  0.00    -0.376 OA
ATOM     15  C   UNL     1      -2.589   3.097   8.487  0.00  0.00    +0.182 C 
ATOM     16  C   UNL     1      -2.200   2.303   7.229  0.00  0.00    +0.097 C 
ATOM     17  C   UNL     1      -1.881   0.856   7.609  0.00  0.00    +0.030 C 
ATOM     18  H   UNL     1       2.751   1.147   7.669  0.00  0.00    +0.188 HD
ENDROOT
BRANCH   1  25
ATOM     19  C   UNL     1       0.995   2.289   0.228  0.00  0.00    +0.044 C 
ATOM     20  C   UNL     1       1.012   0.793   0.044  0.00  0.00    -0.039 A 
ATOM     21  C   UNL     1       1.197   0.257  -1.219  0.00  0.00    +0.005 A 
ATOM     22  C   UNL     1       1.214  -1.108  -1.404  0.00  0.00    +0.015 A 
ATOM     23  C   UNL     1       1.046  -1.962  -0.312  0.00  0.00    +0.063 A 
ATOM     24  C   UNL     1       0.859  -1.429   0.971  0.00  0.00    +0.177 A 
ATOM     25  C   UNL     1       0.848  -0.040   1.145  0.00  0.00    +0.031 A 
ATOM     26  O   UNL     1       0.726  -2.468   1.820  0.00  0.00    -0.352 OA
ATOM     27  N   UNL     1       0.824  -3.680   1.101  0.00  0.00    -0.062 NA
ATOM     28  C   UNL     1       1.014  -3.425  -0.163  0.00  0.00    +0.170 A 
ATOM     29  N   UNL     1       1.158  -4.359  -1.179  0.00  0.00    -0.323 N 
ATOM     30  H   UNL     1       1.296  -4.064  -2.093  0.00  0.00    +0.148 HD
BRANCH  29  31
ATOM     31  C   UNL     1       1.102  -5.790  -0.872  0.00  0.00    +0.072 C 
ATOM     32  C   UNL     1       2.141  -6.696  -1.536  0.00  0.00    +0.024 C 
ATOM     33  C   UNL     1       0.682  -6.739  -1.997  0.00  0.00    +0.024 C 
ENDBRANCH  29  31
ENDBRANCH   1  25
TORSDOF 2
