REMARK  Name = CHEMBL334215
REMARK  3 active torsions:
REMARK  status: ('A' for Active; 'I' for Inactive)
REMARK    1  A    between atoms: C_8  and  C_25
REMARK    2  A    between atoms: C_9  and  C_10
REMARK    3  A    between atoms: N_12  and  C_17
REMARK                            x       y       z     vdW  Elec       q    Type
REMARK                         _______ _______ _______ _____ _____    ______ ____
ROOT
ATOM      1  C   UNL     1      -0.016   1.357   0.009  0.00  0.00    +0.005 A 
ATOM      2  C   UNL     1       1.193   2.069   0.002  0.00  0.00    +0.018 A 
ATOM      3  C   UNL     1       2.371   1.408  -0.013  0.00  0.00    +0.093 A 
ATOM      4  N   UNL     1       2.402   0.045  -0.021  0.00  0.00    -0.298 N 
ATOM      5  C   UNL     1       1.239  -0.679  -0.014  0.00  0.00    +0.139 A 
ATOM      6  C   UNL     1       0.002  -0.004   0.002  0.00  0.00    +0.047 A 
ATOM      7  N   UNL     1       1.538  -1.972  -0.025  0.00  0.00    -0.227 NA
ATOM      8  C   UNL     1       2.865  -2.127  -0.040  0.00  0.00    +0.102 A 
ATOM      9  C   UNL     1       3.445  -0.859  -0.038  0.00  0.00    +0.097 A 
ENDROOT
BRANCH   8  10
ATOM     10  C   UNL     1       3.592  -3.417  -0.055  0.00  0.00    +0.038 A 
ATOM     11  C   UNL     1       4.987  -3.435  -0.063  0.00  0.00    +0.016 A 
ATOM     12  C   UNL     1       5.660  -4.639  -0.077  0.00  0.00    +0.039 A 
ATOM     13  C   UNL     1       4.953  -5.831  -0.084  0.00  0.00    +0.126 A 
ATOM     14  C   UNL     1       3.568  -5.822  -0.076  0.00  0.00    +0.077 A 
ATOM     15  C   UNL     1       2.884  -4.621  -0.055  0.00  0.00    +0.135 A 
ATOM     16  F   UNL     1       1.533  -4.612  -0.041  0.00  0.00    -0.205 F 
ATOM     17  F   UNL     1       5.618  -7.007  -0.098  0.00  0.00    -0.205 F 
ENDBRANCH   8  10
BRANCH   9  18
ATOM     18  C   UNL     1       4.830  -0.558  -0.050  0.00  0.00    +0.086 C 
ATOM     19  N   UNL     1       5.467  -0.435   1.075  0.00  0.00    -0.175 NA
ATOM     20  N   UNL     1       6.822  -0.096   1.113  0.00  0.00    -0.158 N 
ATOM     21  C   UNL     1       7.437   0.394   0.020  0.00  0.00    +0.240 C 
ATOM     22  O   UNL     1       8.630   0.612   0.038  0.00  0.00    -0.273 OA
ATOM     23  C   UNL     1       6.636   0.671  -1.228  0.00  0.00    +0.104 C 
ATOM     24  C   UNL     1       5.540  -0.392  -1.367  0.00  0.00    +0.068 C 
BRANCH  20  25
ATOM     25  C   UNL     1       7.547  -0.268   2.298  0.00  0.00    +0.097 A 
ATOM     26  C   UNL     1       7.615   0.761   3.229  0.00  0.00    +0.066 A 
ATOM     27  C   UNL     1       8.332   0.588   4.398  0.00  0.00    +0.022 A 
ATOM     28  C   UNL     1       8.981  -0.608   4.641  0.00  0.00    +0.003 A 
ATOM     29  C   UNL     1       8.916  -1.635   3.717  0.00  0.00    +0.022 A 
ATOM     30  C   UNL     1       8.196  -1.471   2.549  0.00  0.00    +0.066 A 
ATOM     31 CL   UNL     1       8.109  -2.764   1.393  0.00  0.00    -0.082 Cl
ATOM     32 CL   UNL     1       6.801   2.264   2.923  0.00  0.00    -0.082 Cl
ENDBRANCH  20  25
ENDBRANCH   9  18
TORSDOF 3
