REMARK  Name = CHEMBL514509
REMARK  8 active torsions:
REMARK  status: ('A' for Active; 'I' for Inactive)
REMARK    1  A    between atoms: C_1  and  C_2
REMARK    2  A    between atoms: C_5  and  C_25
REMARK    3  A    between atoms: C_7  and  C_8
REMARK    4  A    between atoms: C_11  and  C_14
REMARK    5  A    between atoms: N_16  and  C_17
REMARK    6  A    between atoms: C_21  and  C_23
REMARK    7  A    between atoms: N_27  and  C_28
REMARK    8  A    between atoms: C_32  and  C_34
REMARK                            x       y       z     vdW  Elec       q    Type
REMARK                         _______ _______ _______ _____ _____    ______ ____
ROOT
ATOM      1  C   UNL     1      -0.831   1.233  -0.443  0.00  0.00    +0.044 C 
ATOM      2  C   UNL     1      -0.737  -0.189   0.048  0.00  0.00    -0.043 A 
ATOM      3  C   UNL     1      -1.106  -1.230  -0.782  0.00  0.00    +0.005 A 
ATOM      4  C   UNL     1      -1.023  -2.535  -0.340  0.00  0.00    +0.013 A 
ATOM      5  C   UNL     1      -0.564  -2.810   0.950  0.00  0.00    +0.038 A 
ATOM      6  C   UNL     1      -0.190  -1.763   1.791  0.00  0.00    +0.021 A 
ATOM      7  C   UNL     1      -0.272  -0.450   1.337  0.00  0.00    -0.014 A 
ENDROOT
BRANCH   7   8
ATOM      8  C   UNL     1       0.129   0.669   2.223  0.00  0.00    -0.018 A 
ATOM      9  C   UNL     1       1.001   1.651   1.754  0.00  0.00    +0.009 A 
ATOM     10  C   UNL     1       1.373   2.691   2.576  0.00  0.00    +0.013 A 
ATOM     11  C   UNL     1       0.877   2.762   3.880  0.00  0.00    +0.037 A 
ATOM     12  C   UNL     1       0.004   1.777   4.349  0.00  0.00    +0.013 A 
ATOM     13  C   UNL     1      -0.371   0.741   3.523  0.00  0.00    +0.009 A 
BRANCH  11  14
ATOM     14  C   UNL     1       1.277   3.877   4.763  0.00  0.00    +0.248 C 
ATOM     15  O   UNL     1       2.037   4.733   4.355  0.00  0.00    -0.270 OA
ATOM     16  N   UNL     1       0.798   3.944   6.021  0.00  0.00    -0.281 N 
ATOM     17  H   UNL     1       0.135   3.304   6.323  0.00  0.00    +0.155 HD
BRANCH  16  18
ATOM     18  C   UNL     1       1.258   4.938   6.892  0.00  0.00    +0.035 A 
ATOM     19  C   UNL     1       0.404   5.474   7.848  0.00  0.00    +0.023 A 
ATOM     20  C   UNL     1       0.853   6.456   8.711  0.00  0.00    +0.003 A 
ATOM     21  C   UNL     1       2.154   6.910   8.629  0.00  0.00    +0.019 A 
ATOM     22  C   UNL     1       3.020   6.378   7.672  0.00  0.00    +0.054 A 
ATOM     23  C   UNL     1       2.568   5.383   6.805  0.00  0.00    +0.042 A 
BRANCH  22  24
ATOM     24  C   UNL     1       4.370   6.848   7.585  0.00  0.00    +0.099 C 
ATOM     25  N   UNL     1       5.441   7.221   7.516  0.00  0.00    -0.191 NA
ENDBRANCH  22  24
ENDBRANCH  16  18
ENDBRANCH  11  14
ENDBRANCH   7   8
BRANCH   5  26
ATOM     26  C   UNL     1      -0.475  -4.208   1.423  0.00  0.00    +0.248 C 
ATOM     27  O   UNL     1      -0.076  -4.445   2.546  0.00  0.00    -0.270 OA
ATOM     28  N   UNL     1      -0.837  -5.219   0.608  0.00  0.00    -0.281 N 
ATOM     29  H   UNL     1      -1.085  -5.036  -0.311  0.00  0.00    +0.155 HD
BRANCH  28  30
ATOM     30  C   UNL     1      -0.856  -6.532   1.089  0.00  0.00    +0.034 A 
ATOM     31  C   UNL     1      -0.538  -7.587   0.243  0.00  0.00    +0.023 A 
ATOM     32  C   UNL     1      -0.555  -8.886   0.714  0.00  0.00    +0.002 A 
ATOM     33  C   UNL     1      -0.889  -9.143   2.030  0.00  0.00    +0.010 A 
ATOM     34  C   UNL     1      -1.209  -8.091   2.886  0.00  0.00    +0.002 A 
ATOM     35  C   UNL     1      -1.186  -6.781   2.413  0.00  0.00    +0.033 A 
BRANCH  34  36
ATOM     36  C   UNL     1      -1.568  -8.365   4.299  0.00  0.00    +0.071 A 
ATOM     37  C   UNL     1      -1.477  -9.664   4.795  0.00  0.00    +0.028 A 
ATOM     38  C   UNL     1      -1.815  -9.904   6.116  0.00  0.00    +0.004 A 
ATOM     39  C   UNL     1      -2.234  -8.837   6.897  0.00  0.00    +0.020 A 
ATOM     40  C   UNL     1      -2.301  -7.573   6.340  0.00  0.00    +0.111 A 
ATOM     41  N   UNL     1      -1.968  -7.371   5.081  0.00  0.00    -0.255 NA
ENDBRANCH  34  36
ENDBRANCH  28  30
ENDBRANCH   5  26
TORSDOF 7
