REMARK  Name = CHEMBL515466
REMARK  11 active torsions:
REMARK  status: ('A' for Active; 'I' for Inactive)
REMARK    1  A    between atoms: C_1  and  C_2
REMARK    2  A    between atoms: C_5  and  C_21
REMARK    3  A    between atoms: C_7  and  C_8
REMARK    4  A    between atoms: C_11  and  C_14
REMARK    5  A    between atoms: N_16  and  C_17
REMARK    6  A    between atoms: C_17  and  C_18
REMARK    7  A    between atoms: N_23  and  C_24
REMARK    8  A    between atoms: C_28  and  C_30
REMARK    9  A    between atoms: C_30  and  C_31
REMARK   10  A    between atoms: C_30  and  C_32
REMARK   11  A    between atoms: C_30  and  C_33
REMARK                            x       y       z     vdW  Elec       q    Type
REMARK                         _______ _______ _______ _____ _____    ______ ____
ROOT
ATOM      1  C   UNL     1      -0.048   1.502   0.010  0.00  0.00    +0.044 C 
ATOM      2  C   UNL     1      -0.019  -0.004   0.002  0.00  0.00    -0.043 A 
ATOM      3  C   UNL     1      -0.017  -0.687  -1.199  0.00  0.00    +0.005 A 
ATOM      4  C   UNL     1       0.009  -2.067  -1.216  0.00  0.00    +0.013 A 
ATOM      5  C   UNL     1       0.032  -2.781  -0.016  0.00  0.00    +0.038 A 
ATOM      6  C   UNL     1       0.031  -2.098   1.199  0.00  0.00    +0.021 A 
ATOM      7  C   UNL     1       0.011  -0.706   1.207  0.00  0.00    -0.014 A 
ENDROOT
BRANCH   7   8
ATOM      8  C   UNL     1       0.015   0.029   2.495  0.00  0.00    -0.018 A 
ATOM      9  C   UNL     1       0.920   1.070   2.700  0.00  0.00    +0.009 A 
ATOM     10  C   UNL     1       0.925   1.754   3.895  0.00  0.00    +0.013 A 
ATOM     11  C   UNL     1       0.022   1.405   4.902  0.00  0.00    +0.037 A 
ATOM     12  C   UNL     1      -0.885   0.362   4.695  0.00  0.00    +0.013 A 
ATOM     13  C   UNL     1      -0.891  -0.317   3.498  0.00  0.00    +0.009 A 
BRANCH  11  14
ATOM     14  C   UNL     1       0.026   2.137   6.185  0.00  0.00    +0.244 C 
ATOM     15  O   UNL     1       0.815   3.044   6.364  0.00  0.00    -0.270 OA
ATOM     16  N   UNL     1      -0.845   1.800   7.156  0.00  0.00    -0.311 N 
ATOM     17  H   UNL     1      -1.475   1.076   7.013  0.00  0.00    +0.149 HD
BRANCH  16  18
ATOM     18  C   UNL     1      -0.841   2.526   8.428  0.00  0.00    +0.108 C 
BRANCH  18  19
ATOM     19  C   UNL     1      -1.919   1.949   9.349  0.00  0.00    +0.006 C 
ATOM     20  C   UNL     1      -3.071   2.871   9.752  0.00  0.00    +0.005 C 
ATOM     21  C   UNL     1      -1.997   2.497  10.775  0.00  0.00    +0.005 C 
ENDBRANCH  18  19
ENDBRANCH  16  18
ENDBRANCH  11  14
ENDBRANCH   7   8
BRANCH   5  22
ATOM     22  C   UNL     1       0.059  -4.259  -0.034  0.00  0.00    +0.248 C 
ATOM     23  O   UNL     1       0.079  -4.880   1.011  0.00  0.00    -0.270 OA
ATOM     24  N   UNL     1       0.060  -4.919  -1.209  0.00  0.00    -0.281 N 
ATOM     25  H   UNL     1      -0.025  -4.428  -2.041  0.00  0.00    +0.155 HD
BRANCH  24  26
ATOM     26  C   UNL     1       0.183  -6.312  -1.229  0.00  0.00    +0.034 A 
ATOM     27  C   UNL     1      -0.399  -7.077  -0.226  0.00  0.00    +0.023 A 
ATOM     28  C   UNL     1      -0.276  -8.452  -0.249  0.00  0.00    +0.002 A 
ATOM     29  C   UNL     1       0.425  -9.068  -1.269  0.00  0.00    +0.004 A 
ATOM     30  C   UNL     1       1.006  -8.310  -2.269  0.00  0.00    -0.040 A 
ATOM     31  C   UNL     1       0.882  -6.934  -2.255  0.00  0.00    +0.027 A 
BRANCH  30  32
ATOM     32  C   UNL     1       1.770  -8.985  -3.379  0.00  0.00    -0.013 C 
ATOM     33  C   UNL     1       1.751 -10.500  -3.162  0.00  0.00    +0.015 C 
ATOM     34  C   UNL     1       1.117  -8.654  -4.723  0.00  0.00    +0.015 C 
ATOM     35  C   UNL     1       3.216  -8.488  -3.378  0.00  0.00    +0.015 C 
ENDBRANCH  30  32
ENDBRANCH  24  26
ENDBRANCH   5  22
TORSDOF 7
