REMARK  Name = CHEMBL1209342
REMARK  13 active torsions:
REMARK  status: ('A' for Active; 'I' for Inactive)
REMARK    1  A    between atoms: C_1  and  C_2
REMARK    2  A    between atoms: C_4  and  C_7
REMARK    3  A    between atoms: N_9  and  C_10
REMARK    4  A    between atoms: C_10  and  C_11
REMARK    5  A    between atoms: N_13  and  C_14
REMARK    6  A    between atoms: C_14  and  C_15
REMARK    7  A    between atoms: C_19  and  N_21
REMARK    8  A    between atoms: C_22  and  N_30
REMARK    9  A    between atoms: C_24  and  C_26
REMARK   10  A    between atoms: C_26  and  C_27
REMARK   11  A    between atoms: C_26  and  C_28
REMARK   12  A    between atoms: C_26  and  C_29
REMARK   13  A    between atoms: N_33  and  C_34
REMARK                            x       y       z     vdW  Elec       q    Type
REMARK                         _______ _______ _______ _____ _____    ______ ____
ROOT
ATOM      1  C   UNL     1      -1.450 -10.666  -0.067  0.00  0.00    -0.028 A 
ATOM      2  C   UNL     1      -1.842 -11.232   1.133  0.00  0.00    +0.005 A 
ATOM      3  C   UNL     1      -2.644 -12.358   1.140  0.00  0.00    +0.002 A 
ATOM      4  C   UNL     1      -3.057 -12.921  -0.052  0.00  0.00    +0.028 A 
ATOM      5  C   UNL     1      -2.665 -12.356  -1.258  0.00  0.00    +0.068 A 
ATOM      6  C   UNL     1      -1.863 -11.222  -1.261  0.00  0.00    +0.033 A 
ENDROOT
BRANCH   5   7
ATOM      7  N   UNL     1      -3.082 -12.925  -2.468  0.00  0.00    -0.218 N 
ATOM      8  C   UNL     1      -3.260 -14.252  -2.711  0.00  0.00    +0.130 A 
ATOM      9  C   UNL     1      -3.668 -14.380  -4.003  0.00  0.00    +0.069 A 
ATOM     10  C   UNL     1      -3.738 -13.099  -4.559  0.00  0.00    +0.071 A 
ATOM     11  N   UNL     1      -3.394 -12.230  -3.643  0.00  0.00    -0.169 NA
BRANCH   8  12
ATOM     12  N   UNL     1      -3.062 -15.291  -1.802  0.00  0.00    -0.254 N 
ATOM     13  C   UNL     1      -3.278 -16.567  -2.179  0.00  0.00    +0.309 C 
ATOM     14  O   UNL     1      -3.646 -16.812  -3.312  0.00  0.00    -0.252 OA
ATOM     15  N   UNL     1      -3.087 -17.571  -1.301  0.00  0.00    -0.269 N 
ATOM     16  H   UNL     1      -2.769 -15.096  -0.899  0.00  0.00    +0.158 HD
ATOM     17  H   UNL     1      -2.729 -17.383  -0.419  0.00  0.00    +0.156 HD
BRANCH  15  18
ATOM     18  C   UNL     1      -3.403 -18.886  -1.661  0.00  0.00    +0.035 A 
ATOM     19  C   UNL     1      -3.204 -19.317  -2.966  0.00  0.00    +0.023 A 
ATOM     20  C   UNL     1      -3.518 -20.615  -3.319  0.00  0.00    +0.002 A 
ATOM     21  C   UNL     1      -4.029 -21.485  -2.373  0.00  0.00    +0.000 A 
ATOM     22  C   UNL     1      -4.228 -21.059  -1.073  0.00  0.00    +0.002 A 
ATOM     23  C   UNL     1      -3.912 -19.764  -0.713  0.00  0.00    +0.023 A 
ENDBRANCH  15  18
ENDBRANCH   8  12
BRANCH  10  24
ATOM     24  C   UNL     1      -4.147 -12.774  -5.973  0.00  0.00    +0.006 C 
ATOM     25  C   UNL     1      -5.664 -12.923  -6.112  0.00  0.00    +0.017 C 
ATOM     26  C   UNL     1      -3.744 -11.335  -6.302  0.00  0.00    +0.017 C 
ATOM     27  C   UNL     1      -3.450 -13.733  -6.939  0.00  0.00    +0.017 C 
ENDBRANCH  10  24
ENDBRANCH   5   7
BRANCH   1  28
ATOM     28  C   UNL     1      -0.575  -9.440  -0.070  0.00  0.00    +0.139 C 
BRANCH  28  31
ATOM     29  C   UNL     1      -0.847  -7.018  -0.054  0.00  0.00    +0.230 C 
ATOM     30  O   UNL     1       0.361  -6.912  -0.067  0.00  0.00    -0.274 OA
ATOM     31  N   UNL     1      -1.415  -8.240  -0.054  0.00  0.00    -0.310 N 
ATOM     32  H   UNL     1      -2.382  -8.325  -0.044  0.00  0.00    +0.149 HD
BRANCH  29  33
ATOM     33  C   UNL     1      -1.712  -5.784  -0.038  0.00  0.00    +0.200 C 
BRANCH  33  36
ATOM     34  C   UNL     1      -1.420  -3.365  -0.029  0.00  0.00    +0.266 C 
ATOM     35  O   UNL     1      -2.629  -3.249  -0.015  0.00  0.00    -0.268 OA
ATOM     36  N   UNL     1      -0.861  -4.591  -0.041  0.00  0.00    -0.301 N 
ATOM     37  H   UNL     1       0.105  -4.684  -0.053  0.00  0.00    +0.150 HD
BRANCH  34  41
ATOM     38  C   UNL     1       0.063   1.492  -0.020  0.00  0.00    +0.089 C 
ATOM     39  C   UNL     1       0.077  -0.015  -0.028  0.00  0.00    +0.135 A 
ATOM     40  C   UNL     1      -1.005  -0.814  -0.020  0.00  0.00    +0.080 A 
ATOM     41  C   UNL     1      -0.558  -2.157  -0.032  0.00  0.00    +0.168 A 
ATOM     42  N   UNL     1       0.752  -2.143  -0.046  0.00  0.00    -0.073 NA
ATOM     43  O   UNL     1       1.172  -0.791  -0.049  0.00  0.00    -0.359 OA
ENDBRANCH  34  41
ENDBRANCH  33  36
ENDBRANCH  29  33
ENDBRANCH  28  31
ENDBRANCH   1  28
TORSDOF 9
