REMARK  Name = CHEMBL331215
REMARK  4 active torsions:
REMARK  status: ('A' for Active; 'I' for Inactive)
REMARK    1  A    between atoms: C_4  and  C_7
REMARK    2  A    between atoms: C_7  and  C_8
REMARK    3  A    between atoms: C_17  and  C_28
REMARK    4  A    between atoms: C_18  and  C_21
REMARK                            x       y       z     vdW  Elec       q    Type
REMARK                         _______ _______ _______ _____ _____    ______ ____
ROOT
ATOM      1  C   UNL     1       4.164  -0.959   1.377  0.00  0.00    +0.113 A 
ATOM      2  N   UNL     1       4.309  -0.043   2.290  0.00  0.00    -0.232 NA
ATOM      3  C   UNL     1       4.730  -0.615   3.447  0.00  0.00    +0.090 A 
ATOM      4  C   UNL     1       5.036  -0.106   4.718  0.00  0.00    +0.032 A 
ATOM      5  C   UNL     1       5.446  -0.935   5.717  0.00  0.00    +0.028 A 
ATOM      6  C   UNL     1       5.569  -2.309   5.498  0.00  0.00    +0.050 A 
ATOM      7  C   UNL     1       5.268  -2.841   4.236  0.00  0.00    +0.033 A 
ATOM      8  C   UNL     1       4.846  -1.990   3.205  0.00  0.00    +0.076 A 
ATOM      9  N   UNL     1       4.477  -2.180   1.891  0.00  0.00    -0.341 N 
ATOM     10  C   UNL     1       5.494  -4.289   4.330  0.00  0.00    +0.017 A 
ATOM     11  C   UNL     1       5.911  -4.536   5.623  0.00  0.00    +0.055 A 
ATOM     12  N   UNL     1       5.954  -3.353   6.315  0.00  0.00    -0.354 N 
ATOM     13  H   UNL     1       6.218  -3.262   7.244  0.00  0.00    +0.166 HD
ATOM     14  H   UNL     1       4.448  -3.026   1.419  0.00  0.00    +0.167 HD
ENDROOT
BRANCH  11  15
ATOM     15  C   UNL     1       6.256  -5.862   6.173  0.00  0.00    -0.001 A 
ATOM     16  C   UNL     1       5.436  -6.963   5.915  0.00  0.00    +0.013 A 
ATOM     17  C   UNL     1       5.763  -8.199   6.431  0.00  0.00    +0.039 A 
ATOM     18  C   UNL     1       6.903  -8.351   7.205  0.00  0.00    +0.123 A 
ATOM     19  C   UNL     1       7.720  -7.262   7.465  0.00  0.00    +0.039 A 
ATOM     20  C   UNL     1       7.406  -6.022   6.949  0.00  0.00    +0.013 A 
ATOM     21  F   UNL     1       7.218  -9.564   7.708  0.00  0.00    -0.205 F 
ENDBRANCH  11  15
BRANCH  10  22
ATOM     22  C   UNL     1       5.311  -5.285   3.253  0.00  0.00    -0.012 A 
ATOM     23  C   UNL     1       4.044  -5.539   2.715  0.00  0.00    +0.028 A 
ATOM     24  C   UNL     1       3.919  -6.476   1.712  0.00  0.00    +0.111 A 
ATOM     25  N   UNL     1       4.973  -7.130   1.260  0.00  0.00    -0.263 NA
ATOM     26  C   UNL     1       6.186  -6.921   1.739  0.00  0.00    +0.111 A 
ATOM     27  C   UNL     1       6.402  -5.998   2.740  0.00  0.00    +0.028 A 
ENDBRANCH  10  22
BRANCH   1  28
ATOM     28  C   UNL     1       3.711  -0.707  -0.038  0.00  0.00    +0.109 C 
BRANCH  28  32
ATOM     29  C   UNL     1      -0.017   1.378   0.010  0.00  0.00    +0.000 A 
ATOM     30  C   UNL     1       1.171   2.086   0.002  0.00  0.00    +0.000 A 
ATOM     31  C   UNL     1       2.377   1.411  -0.013  0.00  0.00    +0.004 A 
ATOM     32  C   UNL     1       2.396   0.029  -0.020  0.00  0.00    -0.040 A 
ATOM     33  C   UNL     1       1.208  -0.679  -0.012  0.00  0.00    +0.004 A 
ATOM     34  C   UNL     1       0.002  -0.004   0.002  0.00  0.00    +0.000 A 
ENDBRANCH  28  32
ENDBRANCH   1  28
TORSDOF 4
