REMARK  Name = CHEMBL197267
REMARK  9 active torsions:
REMARK  status: ('A' for Active; 'I' for Inactive)
REMARK    1  A    between atoms: C_4  and  C_7
REMARK    2  A    between atoms: C_7  and  C_8
REMARK    3  A    between atoms: C_8  and  C_10
REMARK    4  A    between atoms: C_8  and  N_34
REMARK    5  A    between atoms: C_10  and  N_11
REMARK    6  A    between atoms: N_11  and  C_12
REMARK    7  A    between atoms: C_14  and  C_28
REMARK    8  A    between atoms: C_15  and  C_18
REMARK    9  A    between atoms: C_22  and  C_24
REMARK                            x       y       z     vdW  Elec       q    Type
REMARK                         _______ _______ _______ _____ _____    ______ ____
ROOT
ATOM      1  C   UNL     1       6.991  -3.163   3.707  0.00  0.00    +0.113 A 
ATOM      2  C   UNL     1       7.177  -4.213   2.811  0.00  0.00    +0.055 A 
ATOM      3  C   UNL     1       8.467  -4.437   2.326  0.00  0.00    +0.031 A 
ATOM      4  C   UNL     1       9.493  -3.583   2.777  0.00  0.00    +0.100 A 
ATOM      5  N   UNL     1       9.209  -2.611   3.632  0.00  0.00    -0.172 NA
ATOM      6  N   UNL     1       8.020  -2.409   4.069  0.00  0.00    -0.264 N 
ATOM      7  H   UNL     1       7.868  -1.680   4.690  0.00  0.00    +0.190 HD
ENDROOT
BRANCH   4   8
ATOM      8  C   UNL     1      10.883  -3.771   2.298  0.00  0.00    +0.003 A 
ATOM      9  C   UNL     1      11.130  -4.029   0.950  0.00  0.00    +0.010 A 
ATOM     10  C   UNL     1      12.425  -4.204   0.509  0.00  0.00    +0.001 A 
ATOM     11  C   UNL     1      13.479  -4.123   1.403  0.00  0.00    +0.012 A 
ATOM     12  C   UNL     1      13.241  -3.868   2.741  0.00  0.00    +0.055 A 
ATOM     13  C   UNL     1      11.949  -3.686   3.192  0.00  0.00    +0.022 A 
BRANCH  12  14
ATOM     14  C   UNL     1      14.394  -3.783   3.708  0.00  0.00    +0.417 C 
ATOM     15  F   UNL     1      15.594  -3.994   3.021  0.00  0.00    -0.166 F 
ATOM     16  F   UNL     1      14.412  -2.516   4.301  0.00  0.00    -0.166 F 
ATOM     17  F   UNL     1      14.245  -4.759   4.698  0.00  0.00    -0.166 F 
ENDBRANCH  12  14
ENDBRANCH   4   8
BRANCH   3  18
ATOM     18  C   UNL     1       8.747  -5.535   1.371  0.00  0.00    +0.076 A 
ATOM     19  C   UNL     1       7.952  -5.708   0.234  0.00  0.00    +0.048 A 
ATOM     20  C   UNL     1       8.257  -6.749  -0.626  0.00  0.00    +0.114 A 
ATOM     21  N   UNL     1       9.282  -7.539  -0.347  0.00  0.00    -0.244 NA
ATOM     22  C   UNL     1      10.013  -7.349   0.734  0.00  0.00    +0.221 A 
ATOM     23  N   UNL     1       9.764  -6.370   1.578  0.00  0.00    -0.235 NA
ENDBRANCH   3  18
BRANCH   1  24
ATOM     24  N   UNL     1       5.724  -2.900   4.217  0.00  0.00    -0.331 N 
ATOM     25  H   UNL     1       5.594  -2.169   4.840  0.00  0.00    +0.147 HD
BRANCH  24  26
ATOM     26  C   UNL     1       4.586  -3.729   3.812  0.00  0.00    +0.087 C 
BRANCH  26  27
ATOM     27  C   UNL     1       3.319  -3.233   4.512  0.00  0.00    -0.053 C 
BRANCH  27  28
ATOM     28  N   UNL     1       3.132  -1.803   4.230  0.00  0.00    +0.381 N 
ATOM     29  H   UNL     1       3.042  -1.665   3.235  0.00  0.00    -0.090 HD
ATOM     30  H   UNL     1       2.297  -1.476   4.692  0.00  0.00    -0.090 HD
ATOM     31  H   UNL     1       3.929  -1.286   4.571  0.00  0.00    -0.090 HD
ENDBRANCH  27  28
BRANCH  27  32
ATOM     32  C   UNL     1       2.111  -4.016   3.996  0.00  0.00    +0.020 C 
BRANCH  32  36
ATOM     33  C   UNL     1      -1.371  -2.878   6.194  0.00  0.00    +0.000 A 
ATOM     34  C   UNL     1      -1.028  -2.196   5.041  0.00  0.00    +0.000 A 
ATOM     35  C   UNL     1       0.099  -2.565   4.330  0.00  0.00    +0.003 A 
ATOM     36  C   UNL     1       0.883  -3.614   4.772  0.00  0.00    -0.049 A 
ATOM     37  C   UNL     1       0.540  -4.295   5.925  0.00  0.00    +0.003 A 
ATOM     38  C   UNL     1      -0.588  -3.928   6.635  0.00  0.00    +0.000 A 
ENDBRANCH  32  36
ENDBRANCH  27  32
ENDBRANCH  26  27
ENDBRANCH  24  26
ENDBRANCH   1  24
TORSDOF 9
