REMARK  Name = CHEMBL478656
REMARK  8 active torsions:
REMARK  status: ('A' for Active; 'I' for Inactive)
REMARK    1  A    between atoms: C_1  and  C_2
REMARK    2  A    between atoms: C_5  and  N_21
REMARK    3  A    between atoms: C_7  and  C_8
REMARK    4  A    between atoms: C_11  and  C_14
REMARK    5  A    between atoms: N_16  and  C_17
REMARK    6  A    between atoms: C_17  and  C_18
REMARK    7  A    between atoms: C_22  and  C_24
REMARK    8  A    between atoms: N_30  and  C_31
REMARK                            x       y       z     vdW  Elec       q    Type
REMARK                         _______ _______ _______ _____ _____    ______ ____
ROOT
ATOM      1  C   UNL     1       0.097   1.515  -0.046  0.00  0.00    +0.044 C 
ATOM      2  C   UNL     1       0.109   0.008  -0.052  0.00  0.00    -0.043 A 
ATOM      3  C   UNL     1       0.123  -0.678  -1.250  0.00  0.00    +0.006 A 
ATOM      4  C   UNL     1       0.134  -2.060  -1.260  0.00  0.00    +0.023 A 
ATOM      5  C   UNL     1       0.130  -2.768  -0.064  0.00  0.00    +0.034 A 
ATOM      6  C   UNL     1       0.115  -2.087   1.144  0.00  0.00    +0.032 A 
ATOM      7  C   UNL     1       0.110  -0.694   1.153  0.00  0.00    -0.013 A 
ENDROOT
BRANCH   7   8
ATOM      8  C   UNL     1       0.101   0.041   2.441  0.00  0.00    -0.018 A 
ATOM      9  C   UNL     1       1.014   1.072   2.662  0.00  0.00    +0.009 A 
ATOM     10  C   UNL     1       1.006   1.754   3.858  0.00  0.00    +0.013 A 
ATOM     11  C   UNL     1       0.083   1.414   4.850  0.00  0.00    +0.037 A 
ATOM     12  C   UNL     1      -0.832   0.382   4.627  0.00  0.00    +0.013 A 
ATOM     13  C   UNL     1      -0.826  -0.295   3.429  0.00  0.00    +0.009 A 
BRANCH  11  14
ATOM     14  C   UNL     1       0.074   2.146   6.133  0.00  0.00    +0.244 C 
ATOM     15  O   UNL     1       0.870   3.044   6.327  0.00  0.00    -0.270 OA
ATOM     16  N   UNL     1      -0.817   1.817   7.090  0.00  0.00    -0.311 N 
ATOM     17  H   UNL     1      -1.452   1.101   6.935  0.00  0.00    +0.149 HD
BRANCH  16  18
ATOM     18  C   UNL     1      -0.826   2.543   8.362  0.00  0.00    +0.108 C 
BRANCH  18  19
ATOM     19  C   UNL     1      -1.925   1.977   9.264  0.00  0.00    +0.006 C 
ATOM     20  C   UNL     1      -3.074   2.912   9.649  0.00  0.00    +0.005 C 
ATOM     21  C   UNL     1      -2.021   2.525  10.689  0.00  0.00    +0.005 C 
ENDBRANCH  18  19
ENDBRANCH  16  18
ENDBRANCH  11  14
ENDBRANCH   7   8
BRANCH   5  22
ATOM     22  N   UNL     1       0.140  -4.166  -0.079  0.00  0.00    -0.281 N 
ATOM     23  C   UNL     1       0.811  -4.845   0.873  0.00  0.00    +0.248 C 
ATOM     24  O   UNL     1       1.342  -4.245   1.786  0.00  0.00    -0.270 OA
ATOM     25  H   UNL     1      -0.335  -4.647  -0.774  0.00  0.00    +0.155 HD
BRANCH  23  26
ATOM     26  C   UNL     1       0.901  -6.322   0.804  0.00  0.00    +0.042 A 
ATOM     27  C   UNL     1       0.300  -7.031  -0.243  0.00  0.00    +0.033 A 
ATOM     28  C   UNL     1       0.406  -8.406  -0.272  0.00  0.00    +0.113 A 
ATOM     29  N   UNL     1       1.061  -9.057   0.670  0.00  0.00    -0.240 NA
ATOM     30  C   UNL     1       1.644  -8.430   1.679  0.00  0.00    +0.120 A 
ATOM     31  C   UNL     1       1.590  -7.043   1.780  0.00  0.00    +0.056 A 
ATOM     32  N   UNL     1       2.322  -9.164   2.645  0.00  0.00    -0.326 N 
ATOM     33  H   UNL     1       2.430 -10.122   2.539  0.00  0.00    +0.148 HD
BRANCH  32  34
ATOM     34  C   UNL     1       2.873  -8.490   3.824  0.00  0.00    +0.072 C 
ATOM     35  C   UNL     1       4.242  -8.953   4.327  0.00  0.00    +0.024 C 
ATOM     36  C   UNL     1       2.978  -9.302   5.117  0.00  0.00    +0.024 C 
ENDBRANCH  32  34
ENDBRANCH  23  26
ENDBRANCH   5  22
TORSDOF 7
