REMARK  Name = CHEMBL324977
REMARK  8 active torsions:
REMARK  status: ('A' for Active; 'I' for Inactive)
REMARK    1  A    between atoms: C_1  and  C_2
REMARK    2  A    between atoms: C_2  and  C_3
REMARK    3  A    between atoms: C_2  and  N_9
REMARK    4  A    between atoms: C_12  and  C_16
REMARK    5  A    between atoms: C_17  and  C_24
REMARK    6  A    between atoms: C_19  and  S_22
REMARK    7  A    between atoms: N_20  and  C_21
REMARK    8  A    between atoms: S_22  and  C_23
REMARK                            x       y       z     vdW  Elec       q    Type
REMARK                         _______ _______ _______ _____ _____    ______ ____
ROOT
ATOM      1  N   UNL     1       0.711  -0.489   1.189  0.00  0.00    -0.322 N 
ATOM      2  C   UNL     1       2.096  -0.603   1.173  0.00  0.00    +0.120 A 
ATOM      3  C   UNL     1       2.801  -0.250   0.031  0.00  0.00    +0.053 A 
ATOM      4  C   UNL     1       4.195  -0.371   0.032  0.00  0.00    +0.005 A 
ATOM      5  C   UNL     1       4.819  -0.847   1.197  0.00  0.00    +0.030 A 
ATOM      6  C   UNL     1       4.044  -1.175   2.286  0.00  0.00    +0.113 A 
ATOM      7  N   UNL     1       2.730  -1.043   2.251  0.00  0.00    -0.240 NA
ATOM      8  H   UNL     1       0.213  -0.731   1.986  0.00  0.00    +0.148 HD
ENDROOT
BRANCH   4   9
ATOM      9  C   UNL     1       4.987  -0.008  -1.157  0.00  0.00    +0.077 A 
ATOM     10  C   UNL     1       4.709  -0.338  -2.470  0.00  0.00    +0.098 A 
ATOM     11  N   UNL     1       5.681   0.188  -3.238  0.00  0.00    -0.221 NA
ATOM     12  C   UNL     1       6.545   0.825  -2.482  0.00  0.00    +0.169 A 
ATOM     13  N   UNL     1       6.154   0.736  -1.182  0.00  0.00    -0.321 N 
ATOM     14  C   UNL     1       6.841   1.316  -0.025  0.00  0.00    +0.151 C 
BRANCH  10  15
ATOM     15  C   UNL     1       3.551  -1.130  -2.946  0.00  0.00    +0.003 A 
ATOM     16  C   UNL     1       3.051  -2.175  -2.169  0.00  0.00    +0.013 A 
ATOM     17  C   UNL     1       1.972  -2.909  -2.616  0.00  0.00    +0.039 A 
ATOM     18  C   UNL     1       1.385  -2.610  -3.835  0.00  0.00    +0.123 A 
ATOM     19  C   UNL     1       1.879  -1.573  -4.611  0.00  0.00    +0.039 A 
ATOM     20  C   UNL     1       2.954  -0.829  -4.169  0.00  0.00    +0.013 A 
ATOM     21  F   UNL     1       0.329  -3.331  -4.269  0.00  0.00    -0.205 F 
ENDBRANCH  10  15
BRANCH  12  22
ATOM     22  S   UNL     1       7.980   1.668  -3.061  0.00  0.00    -0.091 S 
ATOM     23  C   UNL     1       7.935   1.429  -4.859  0.00  0.00    +0.093 C 
ENDBRANCH  12  22
ENDBRANCH   4   9
BRANCH   1  25
ATOM     24  C   UNL     1      -0.019   1.526   0.010  0.00  0.00    +0.033 C 
ATOM     25  C   UNL     1       0.002  -0.004   0.002  0.00  0.00    +0.099 C 
BRANCH  25  26
ATOM     26  C   UNL     1      -1.412  -0.526   0.013  0.00  0.00    -0.028 A 
ATOM     27  C   UNL     1      -2.123  -0.571   1.197  0.00  0.00    +0.005 A 
ATOM     28  C   UNL     1      -3.420  -1.049   1.207  0.00  0.00    +0.000 A 
ATOM     29  C   UNL     1      -4.006  -1.482   0.032  0.00  0.00    +0.000 A 
ATOM     30  C   UNL     1      -3.295  -1.436  -1.153  0.00  0.00    +0.000 A 
ATOM     31  C   UNL     1      -2.000  -0.954  -1.163  0.00  0.00    +0.005 A 
ENDBRANCH  25  26
ENDBRANCH   1  25
TORSDOF 5
