REMARK  Name = CHEMBL265710
REMARK  6 active torsions:
REMARK  status: ('A' for Active; 'I' for Inactive)
REMARK    1  A    between atoms: C_1  and  C_2
REMARK    2  A    between atoms: C_5  and  C_32
REMARK    3  A    between atoms: C_7  and  N_8
REMARK    4  A    between atoms: N_13  and  C_26
REMARK    5  A    between atoms: N_22  and  C_25
REMARK    6  A    between atoms: N_34  and  C_35
REMARK                            x       y       z     vdW  Elec       q    Type
REMARK                         _______ _______ _______ _____ _____    ______ ____
ROOT
ATOM      1  N   UNL     1      -0.095  -0.012   1.618  0.00  0.00    -0.299 N 
ATOM      2  C   UNL     1       0.050  -0.751   2.776  0.00  0.00    +0.139 A 
ATOM      3  C   UNL     1       0.085  -0.118   4.035  0.00  0.00    +0.079 A 
ATOM      4  C   UNL     1       0.001   1.221   4.474  0.00  0.00    +0.148 A 
ATOM      5  N   UNL     1       0.091   1.238   5.773  0.00  0.00    -0.172 NA
ATOM      6  N   UNL     1       0.237  -0.070   6.253  0.00  0.00    -0.214 N 
ATOM      7  C   UNL     1       0.235  -0.920   5.183  0.00  0.00    +0.170 A 
ATOM      8  N   UNL     1       0.338  -2.239   5.039  0.00  0.00    -0.194 NA
ATOM      9  C   UNL     1       0.301  -2.790   3.837  0.00  0.00    +0.221 A 
ATOM     10  N   UNL     1       0.155  -2.073   2.729  0.00  0.00    -0.198 NA
ATOM     11  N   UNL     1       0.412  -4.166   3.731  0.00  0.00    -0.298 N 
ATOM     12  C   UNL     1       0.331  -4.783   2.393  0.00  0.00    +0.109 C 
ATOM     13  C   UNL     1       1.375  -5.901   2.229  0.00  0.00    +0.034 C 
ATOM     14  C   UNL     1       2.678  -5.477   2.872  0.00  0.00    +0.085 C 
ATOM     15  N   UNL     1       2.705  -5.951   4.255  0.00  0.00    -0.304 NA
ATOM     16  C   UNL     1       2.118  -5.102   5.221  0.00  0.00    +0.103 C 
ATOM     17  C   UNL     1       0.610  -4.944   4.937  0.00  0.00    +0.123 C 
ATOM     18  C   UNL     1       4.065  -6.340   4.651  0.00  0.00    +0.104 C 
ATOM     19  H   UNL     1      -0.086   0.958   1.657  0.00  0.00    +0.154 HD
ENDROOT
BRANCH   1  26
ATOM     20  C   UNL     1       0.711   1.362  -0.736  0.00  0.00    +0.045 C 
ATOM     21  C   UNL     1       0.127  -0.026  -0.787  0.00  0.00    -0.029 A 
ATOM     22  C   UNL     1      -0.024  -0.666  -2.003  0.00  0.00    +0.006 A 
ATOM     23  C   UNL     1      -0.558  -1.937  -2.058  0.00  0.00    +0.013 A 
ATOM     24  C   UNL     1      -0.949  -2.581  -0.882  0.00  0.00    +0.038 A 
ATOM     25  C   UNL     1      -0.798  -1.936   0.345  0.00  0.00    +0.036 A 
ATOM     26  C   UNL     1      -0.255  -0.661   0.390  0.00  0.00    +0.036 A 
BRANCH  24  27
ATOM     27  C   UNL     1      -1.523  -3.943  -0.938  0.00  0.00    +0.244 C 
ATOM     28  O   UNL     1      -1.801  -4.528   0.090  0.00  0.00    -0.270 OA
ATOM     29  N   UNL     1      -1.736  -4.536  -2.130  0.00  0.00    -0.314 N 
ATOM     30  C   UNL     1      -2.304  -5.885  -2.185  0.00  0.00    +0.128 C 
ATOM     31  H   UNL     1      -1.514  -4.069  -2.950  0.00  0.00    +0.149 HD
ENDBRANCH  24  27
ENDBRANCH   1  26
BRANCH   6  32
ATOM     32  C   UNL     1       0.365  -0.442   7.597  0.00  0.00    +0.068 A 
ATOM     33  C   UNL     1      -0.189  -1.634   8.045  0.00  0.00    +0.028 A 
ATOM     34  C   UNL     1      -0.062  -1.998   9.371  0.00  0.00    +0.002 A 
ATOM     35  C   UNL     1       0.617  -1.177  10.253  0.00  0.00    +0.000 A 
ATOM     36  C   UNL     1       1.170   0.010   9.810  0.00  0.00    +0.002 A 
ATOM     37  C   UNL     1       1.051   0.377   8.484  0.00  0.00    +0.028 A 
ENDBRANCH   6  32
TORSDOF 3
