REMARK  Name = CHEMBL1082158
REMARK  4 active torsions:
REMARK  status: ('A' for Active; 'I' for Inactive)
REMARK    1  A    between atoms: C_4  and  N_8
REMARK    2  A    between atoms: N_17  and  C_18
REMARK    3  A    between atoms: C_20  and  C_25
REMARK    4  A    between atoms: N_27  and  C_28
REMARK                            x       y       z     vdW  Elec       q    Type
REMARK                         _______ _______ _______ _____ _____    ______ ____
ROOT
ATOM      1  N   UNL     1       3.749  -0.600  -0.674  0.00  0.00    -0.225 N 
ATOM      2  C   UNL     1       3.886  -1.960  -0.634  0.00  0.00    +0.098 A 
ATOM      3  C   UNL     1       3.034  -3.051  -0.799  0.00  0.00    +0.163 A 
ATOM      4  N   UNL     1       3.516  -4.271  -0.692  0.00  0.00    -0.154 NA
ATOM      5  N   UNL     1       4.748  -4.518  -0.439  0.00  0.00    -0.133 NA
ATOM      6  C   UNL     1       5.649  -3.565  -0.263  0.00  0.00    +0.156 A 
ATOM      7  C   UNL     1       5.246  -2.220  -0.356  0.00  0.00    +0.063 A 
ATOM      8  C   UNL     1       5.887  -0.970  -0.236  0.00  0.00    +0.146 A 
ATOM      9  N   UNL     1       5.005  -0.029  -0.429  0.00  0.00    -0.173 NA
ATOM     10  N   UNL     1       6.971  -3.887   0.008  0.00  0.00    -0.296 N 
ATOM     11  H   UNL     1       7.606  -3.186   0.225  0.00  0.00    +0.154 HD
ENDROOT
BRANCH   1  15
ATOM     12  C   UNL     1       0.212   1.485  -1.411  0.00  0.00    +0.006 A 
ATOM     13  C   UNL     1       0.233   0.474  -0.468  0.00  0.00    +0.041 A 
ATOM     14  C   UNL     1       1.403  -0.220  -0.221  0.00  0.00    +0.151 A 
ATOM     15  C   UNL     1       2.560   0.100  -0.922  0.00  0.00    +0.136 A 
ATOM     16  C   UNL     1       2.535   1.117  -1.869  0.00  0.00    +0.151 A 
ATOM     17  C   UNL     1       1.360   1.806  -2.110  0.00  0.00    +0.041 A 
ATOM     18  F   UNL     1       3.657   1.432  -2.553  0.00  0.00    -0.203 F 
ATOM     19  F   UNL     1       1.423  -1.208   0.702  0.00  0.00    -0.203 F 
ENDBRANCH   1  15
BRANCH  10  20
ATOM     20  C   UNL     1       7.388  -5.221  -0.030  0.00  0.00    +0.052 A 
ATOM     21  C   UNL     1       6.634  -6.163  -0.713  0.00  0.00    +0.037 A 
ATOM     22  C   UNL     1       7.054  -7.493  -0.748  0.00  0.00    +0.039 A 
ATOM     23  C   UNL     1       8.231  -7.867  -0.095  0.00  0.00    +0.014 A 
ATOM     24  C   UNL     1       8.974  -6.923   0.582  0.00  0.00    +0.022 A 
ATOM     25  C   UNL     1       8.561  -5.602   0.612  0.00  0.00    +0.062 A 
ATOM     26 CL   UNL     1       9.507  -4.419   1.461  0.00  0.00    -0.082 Cl
BRANCH  22  27
ATOM     27  C   UNL     1       6.256  -8.504  -1.474  0.00  0.00    +0.244 C 
ATOM     28  O   UNL     1       5.232  -8.176  -2.041  0.00  0.00    -0.270 OA
ATOM     29  N   UNL     1       6.664  -9.788  -1.507  0.00  0.00    -0.308 N 
ATOM     30  H   UNL     1       7.481 -10.049  -1.054  0.00  0.00    +0.149 HD
BRANCH  29  31
ATOM     31  C   UNL     1       5.873 -10.789  -2.226  0.00  0.00    +0.073 C 
ATOM     32  C   UNL     1       5.653 -12.140  -1.542  0.00  0.00    +0.024 C 
ATOM     33  C   UNL     1       6.603 -12.033  -2.736  0.00  0.00    +0.024 C 
ENDBRANCH  29  31
ENDBRANCH  22  27
ENDBRANCH  10  20
TORSDOF 4
