REMARK  Name = CHEMBL424418
REMARK  4 active torsions:
REMARK  status: ('A' for Active; 'I' for Inactive)
REMARK    1  A    between atoms: C_3  and  C_11
REMARK    2  A    between atoms: C_5  and  C_7
REMARK    3  A    between atoms: C_12  and  C_23
REMARK    4  A    between atoms: C_15  and  C_17
REMARK                            x       y       z     vdW  Elec       q    Type
REMARK                         _______ _______ _______ _____ _____    ______ ____
ROOT
ATOM      1  C   UNL     1       3.659   2.162  -0.022  0.00  0.00    +0.073 A 
ATOM      2  C   UNL     1       3.953   3.266  -0.804  0.00  0.00    +0.091 A 
ATOM      3  N   UNL     1       5.240   3.633  -0.480  0.00  0.00    -0.341 N 
ATOM      4  H   UNL     1       5.739   4.374  -0.857  0.00  0.00    +0.167 HD
ATOM      5  C   UNL     1       5.680   2.770   0.460  0.00  0.00    +0.088 A 
ATOM      6  N   UNL     1       4.742   1.906   0.733  0.00  0.00    -0.343 N 
ATOM      7  H   UNL     1       4.815   1.187   1.379  0.00  0.00    +0.167 HD
ENDROOT
BRANCH   2   8
ATOM      8  C   UNL     1       3.067   3.918  -1.786  0.00  0.00    +0.094 A 
ATOM      9  C   UNL     1       3.248   5.266  -2.124  0.00  0.00    +0.050 A 
ATOM     10  C   UNL     1       2.393   5.832  -3.049  0.00  0.00    +0.116 A 
ATOM     11  N   UNL     1       1.434   5.091  -3.586  0.00  0.00    -0.223 NA
ATOM     12  C   UNL     1       1.284   3.818  -3.248  0.00  0.00    +0.213 A 
ATOM     13  N   UNL     1       2.083   3.232  -2.370  0.00  0.00    -0.213 NA
ATOM     14  N   UNL     1       0.270   3.080  -3.833  0.00  0.00    -0.327 N 
ATOM     15  H   UNL     1      -0.320   3.496  -4.481  0.00  0.00    +0.145 HD
ATOM     16  H   UNL     1       0.149   2.148  -3.596  0.00  0.00    +0.145 HD
ENDBRANCH   2   8
BRANCH   5  17
ATOM     17  C   UNL     1       7.044   2.804   1.100  0.00  0.00    +0.050 C 
ATOM     18  C   UNL     1       7.034   3.788   2.273  0.00  0.00    -0.008 C 
ATOM     19  C   UNL     1       8.441   3.877   2.869  0.00  0.00    -0.082 C 
ATOM     20  N   UNL     1       9.381   4.345   1.843  0.00  0.00    +0.379 N 
ATOM     21  C   UNL     1       9.449   3.370   0.748  0.00  0.00    -0.082 C 
ATOM     22  C   UNL     1       8.081   3.262   0.071  0.00  0.00    -0.008 C 
ATOM     23  H   UNL     1       9.069   5.234   1.482  0.00  0.00    -0.086 HD
ATOM     24  H   UNL     1      10.297   4.454   2.253  0.00  0.00    -0.086 HD
ENDBRANCH   5  17
BRANCH   1  27
ATOM     25  C   UNL     1      -0.017   1.379   0.010  0.00  0.00    +0.001 A 
ATOM     26  C   UNL     1       1.167   2.088   0.002  0.00  0.00    +0.010 A 
ATOM     27  C   UNL     1       2.384   1.407  -0.013  0.00  0.00    +0.001 A 
ATOM     28  C   UNL     1       2.397   0.013  -0.021  0.00  0.00    +0.022 A 
ATOM     29  C   UNL     1       1.206  -0.685  -0.013  0.00  0.00    +0.055 A 
ATOM     30  C   UNL     1       0.002  -0.004   0.002  0.00  0.00    +0.012 A 
BRANCH  29  31
ATOM     31  C   UNL     1       1.218  -2.192  -0.022  0.00  0.00    +0.417 C 
ATOM     32  F   UNL     1       1.234  -2.666   1.294  0.00  0.00    -0.166 F 
ATOM     33  F   UNL     1       0.073  -2.663  -0.673  0.00  0.00    -0.166 F 
ATOM     34  F   UNL     1       2.357  -2.646  -0.695  0.00  0.00    -0.166 F 
ENDBRANCH  29  31
ENDBRANCH   1  27
TORSDOF 4
