REMARK  Name = CHEMBL327632
REMARK  5 active torsions:
REMARK  status: ('A' for Active; 'I' for Inactive)
REMARK    1  A    between atoms: C_4  and  N_8
REMARK    2  A    between atoms: C_11  and  N_28
REMARK    3  A    between atoms: C_12  and  S_19
REMARK    4  A    between atoms: S_19  and  C_20
REMARK    5  A    between atoms: N_34  and  C_35
REMARK                            x       y       z     vdW  Elec       q    Type
REMARK                         _______ _______ _______ _____ _____    ______ ____
ROOT
ATOM      1  N   UNL     1       3.306  -1.248   0.020  0.00  0.00    -0.220 N 
ATOM      2  C   UNL     1       3.936  -1.473  -1.207  0.00  0.00    +0.067 A 
ATOM      3  C   UNL     1       3.372  -1.009  -2.392  0.00  0.00    +0.051 A 
ATOM      4  C   UNL     1       4.041  -1.261  -3.582  0.00  0.00    +0.064 A 
ATOM      5  C   UNL     1       5.248  -1.964  -3.549  0.00  0.00    +0.123 A 
ATOM      6  N   UNL     1       5.752  -2.388  -2.400  0.00  0.00    -0.240 NA
ATOM      7  C   UNL     1       5.139  -2.164  -1.256  0.00  0.00    +0.081 A 
ATOM      8  C   UNL     1       5.725  -2.654   0.050  0.00  0.00    +0.163 C 
ATOM      9  N   UNL     1       4.967  -2.356   1.276  0.00  0.00    -0.293 N 
ATOM     10  C   UNL     1       3.813  -1.670   1.186  0.00  0.00    +0.311 C 
ATOM     11  O   UNL     1       3.201  -1.426   2.208  0.00  0.00    -0.252 OA
ATOM     12  H   UNL     1       5.298  -2.647   2.140  0.00  0.00    +0.151 HD
ENDROOT
BRANCH   1  16
ATOM     13  C   UNL     1      -0.303   0.840   0.054  0.00  0.00    +0.003 A 
ATOM     14  C   UNL     1       0.892   1.526   0.162  0.00  0.00    +0.022 A 
ATOM     15  C   UNL     1       2.091   0.838   0.151  0.00  0.00    +0.064 A 
ATOM     16  C   UNL     1       2.093  -0.547   0.032  0.00  0.00    +0.079 A 
ATOM     17  C   UNL     1       0.890  -1.234  -0.076  0.00  0.00    +0.064 A 
ATOM     18  C   UNL     1      -0.304  -0.538  -0.065  0.00  0.00    +0.022 A 
ATOM     19 CL   UNL     1       0.888  -2.963  -0.225  0.00  0.00    -0.082 Cl
ATOM     20 CL   UNL     1       3.591   1.701   0.285  0.00  0.00    -0.082 Cl
ENDBRANCH   1  16
BRANCH   4  21
ATOM     21  N   UNL     1       3.514  -0.815  -4.800  0.00  0.00    -0.328 N 
ATOM     22  C   UNL     1       2.584  -1.548  -5.686  0.00  0.00    +0.090 C 
ATOM     23  C   UNL     1       2.369  -0.610  -6.914  0.00  0.00    -0.049 C 
ATOM     24  C   UNL     1       3.784   0.069  -6.976  0.00  0.00    +0.007 C 
ATOM     25  C   UNL     1       3.771   0.497  -5.462  0.00  0.00    +0.055 C 
ATOM     26  C   UNL     1       2.394   1.229  -5.406  0.00  0.00    -0.055 C 
ATOM     27  N   UNL     1       1.537   0.512  -6.374  0.00  0.00    +0.386 N 
ATOM     28  H   UNL     1       1.261   1.131  -7.121  0.00  0.00    -0.081 HD
BRANCH  27  29
ATOM     29  C   UNL     1       0.350  -0.021  -5.691  0.00  0.00    -0.068 C 
ATOM     30  C   UNL     1      -0.992   0.089  -6.418  0.00  0.00    -0.017 C 
ATOM     31  C   UNL     1      -0.699   0.983  -5.211  0.00  0.00    -0.017 C 
ENDBRANCH  27  29
ENDBRANCH   4  21
BRANCH   5  32
ATOM     32  S   UNL     1       6.109  -2.291  -5.052  0.00  0.00    -0.065 S 
BRANCH  32  33
ATOM     33  C   UNL     1       7.612  -3.047  -4.527  0.00  0.00    +0.050 A 
ATOM     34  C   UNL     1       7.793  -4.415  -4.681  0.00  0.00    +0.021 A 
ATOM     35  C   UNL     1       8.972  -5.005  -4.269  0.00  0.00    +0.039 A 
ATOM     36  C   UNL     1       9.973  -4.235  -3.702  0.00  0.00    +0.126 A 
ATOM     37  C   UNL     1       9.796  -2.870  -3.546  0.00  0.00    +0.077 A 
ATOM     38  C   UNL     1       8.620  -2.273  -3.962  0.00  0.00    +0.140 A 
ATOM     39  F   UNL     1       8.450  -0.941  -3.816  0.00  0.00    -0.204 F 
ATOM     40  F   UNL     1      11.124  -4.816  -3.299  0.00  0.00    -0.205 F 
ENDBRANCH  32  33
ENDBRANCH   5  32
TORSDOF 5
