REMARK  Name = CHEMBL309802
REMARK  9 active torsions:
REMARK  status: ('A' for Active; 'I' for Inactive)
REMARK    1  A    between atoms: C_1  and  C_2
REMARK    2  A    between atoms: C_2  and  C_35
REMARK    3  A    between atoms: C_5  and  C_8
REMARK    4  A    between atoms: C_11  and  C_21
REMARK    5  A    between atoms: C_12  and  C_14
REMARK    6  A    between atoms: N_27  and  C_28
REMARK    7  A    between atoms: C_28  and  C_29
REMARK    8  A    between atoms: N_37  and  C_38
REMARK    9  A    between atoms: N_37  and  C_39
REMARK                            x       y       z     vdW  Elec       q    Type
REMARK                         _______ _______ _______ _____ _____    ______ ____
ROOT
ATOM      1  C   UNL     1      -0.620  -4.419   0.949  0.00  0.00    +0.165 A 
ATOM      2  N   UNL     1       0.411  -5.129   1.452  0.00  0.00    -0.336 N 
ATOM      3  H   UNL     1       1.171  -4.772   1.939  0.00  0.00    +0.167 HD
ATOM      4  C   UNL     1       0.187  -6.453   1.145  0.00  0.00    +0.093 A 
ATOM      5  C   UNL     1      -1.008  -6.489   0.448  0.00  0.00    +0.098 A 
ATOM      6  N   UNL     1      -1.460  -5.225   0.361  0.00  0.00    -0.227 NA
ENDROOT
BRANCH   4   7
ATOM      7  C   UNL     1       1.046  -7.600   1.490  0.00  0.00    +0.094 A 
ATOM      8  C   UNL     1       2.417  -7.419   1.722  0.00  0.00    +0.050 A 
ATOM      9  C   UNL     1       3.181  -8.524   2.042  0.00  0.00    +0.116 A 
ATOM     10  N   UNL     1       2.602  -9.713   2.121  0.00  0.00    -0.223 NA
ATOM     11  C   UNL     1       1.303  -9.857   1.897  0.00  0.00    +0.216 A 
ATOM     12  N   UNL     1       0.531  -8.826   1.593  0.00  0.00    -0.213 NA
ATOM     13  N   UNL     1       0.739 -11.118   1.990  0.00  0.00    -0.308 N 
ATOM     14  H   UNL     1      -0.210 -11.237   1.829  0.00  0.00    +0.149 HD
BRANCH  13  15
ATOM     15  C   UNL     1       1.575 -12.271   2.332  0.00  0.00    +0.160 C 
BRANCH  15  16
ATOM     16  C   UNL     1       0.725 -13.515   2.368  0.00  0.00    +0.058 A 
ATOM     17  C   UNL     1       0.649 -14.323   1.249  0.00  0.00    +0.025 A 
ATOM     18  C   UNL     1      -0.136 -15.465   1.293  0.00  0.00    +0.003 A 
ATOM     19  C   UNL     1      -0.818 -15.752   2.466  0.00  0.00    +0.020 A 
ATOM     20  C   UNL     1      -0.693 -14.897   3.544  0.00  0.00    +0.111 A 
ATOM     21  N   UNL     1       0.067 -13.822   3.468  0.00  0.00    -0.258 NA
ENDBRANCH  15  16
ENDBRANCH  13  15
ENDBRANCH   4   7
BRANCH   1  26
ATOM     22  C   UNL     1      -0.492   1.169   0.099  0.00  0.00    +0.025 C 
ATOM     23  C   UNL     1      -0.313  -0.344  -0.038  0.00  0.00    +0.091 C 
ATOM     24  C   UNL     1      -1.687  -1.021  -0.083  0.00  0.00    +0.181 C 
ATOM     25  O   UNL     1      -1.505  -2.441  -0.077  0.00  0.00    -0.344 OA
ATOM     26  C   UNL     1      -0.780  -2.925   1.056  0.00  0.00    +0.318 C 
ATOM     27  O   UNL     1       0.510  -2.309   1.095  0.00  0.00    -0.344 OA
ATOM     28  C   UNL     1       0.465  -0.880   1.169  0.00  0.00    +0.181 C 
BRANCH  23  29
ATOM     29  C   UNL     1       0.446  -0.650  -1.304  0.00  0.00    +0.225 C 
ATOM     30  O   UNL     1       1.398  -1.401  -1.274  0.00  0.00    -0.275 OA
ATOM     31  N   UNL     1       0.066  -0.089  -2.469  0.00  0.00    -0.307 N 
ATOM     32  C   UNL     1       0.724  -0.480  -3.719  0.00  0.00    +0.131 C 
ATOM     33  C   UNL     1      -1.006   0.910  -2.487  0.00  0.00    +0.131 C 
ENDBRANCH  23  29
ENDBRANCH   1  26
BRANCH   5  34
ATOM     34  C   UNL     1      -1.670  -7.697  -0.097  0.00  0.00    +0.003 A 
ATOM     35  C   UNL     1      -0.904  -8.751  -0.594  0.00  0.00    +0.013 A 
ATOM     36  C   UNL     1      -1.525  -9.874  -1.100  0.00  0.00    +0.039 A 
ATOM     37  C   UNL     1      -2.908  -9.955  -1.117  0.00  0.00    +0.123 A 
ATOM     38  C   UNL     1      -3.674  -8.911  -0.625  0.00  0.00    +0.039 A 
ATOM     39  C   UNL     1      -3.062  -7.787  -0.110  0.00  0.00    +0.013 A 
ATOM     40  F   UNL     1      -3.511 -11.057  -1.615  0.00  0.00    -0.205 F 
ENDBRANCH   5  34
TORSDOF 6
