REMARK  Name = CHEMBL172232
REMARK  6 active torsions:
REMARK  status: ('A' for Active; 'I' for Inactive)
REMARK    1  A    between atoms: C_1  and  C_2
REMARK    2  A    between atoms: C_6  and  C_8
REMARK    3  A    between atoms: C_9  and  C_20
REMARK    4  A    between atoms: C_12  and  C_14
REMARK    5  A    between atoms: N_26  and  C_31
REMARK    6  A    between atoms: N_29  and  C_30
REMARK                            x       y       z     vdW  Elec       q    Type
REMARK                         _______ _______ _______ _____ _____    ______ ____
ROOT
ATOM      1  C   UNL     1       0.096  -2.814   2.475  0.00  0.00    +0.074 A 
ATOM      2  C   UNL     1       0.780  -3.987   2.737  0.00  0.00    +0.097 A 
ATOM      3  N   UNL     1       0.459  -4.369   3.987  0.00  0.00    -0.232 NA
ATOM      4  H   UNL     1      -1.205  -1.763   3.747  0.00  0.00    +0.167 HD
ATOM      5  C   UNL     1      -0.373  -3.509   4.506  0.00  0.00    +0.111 A 
ATOM      6  N   UNL     1      -0.624  -2.528   3.612  0.00  0.00    -0.341 N 
ENDROOT
BRANCH   2   7
ATOM      7  C   UNL     1       1.696  -4.694   1.812  0.00  0.00    +0.005 A 
ATOM      8  C   UNL     1       2.612  -3.969   1.047  0.00  0.00    +0.012 A 
ATOM      9  C   UNL     1       3.466  -4.624   0.186  0.00  0.00    +0.028 A 
ATOM     10  C   UNL     1       3.417  -6.007   0.076  0.00  0.00    +0.070 A 
ATOM     11  C   UNL     1       2.502  -6.738   0.839  0.00  0.00    +0.070 A 
ATOM     12  C   UNL     1       1.647  -6.083   1.709  0.00  0.00    +0.038 A 
ATOM     13  N   UNL     1       2.690  -8.080   0.515  0.00  0.00    -0.295 N 
ATOM     14  C   UNL     1       3.673  -8.161  -0.401  0.00  0.00    +0.330 A 
ATOM     15  O   UNL     1       4.085  -9.194  -0.896  0.00  0.00    -0.246 OA
ATOM     16  N   UNL     1       4.131  -6.928  -0.686  0.00  0.00    -0.295 N 
ATOM     17  C   UNL     1       5.200  -6.609  -1.636  0.00  0.00    +0.154 C 
ATOM     18  C   UNL     1       1.945  -9.210   1.077  0.00  0.00    +0.154 C 
ENDBRANCH   2   7
BRANCH   5  19
ATOM     19  C   UNL     1      -0.960  -3.595   5.891  0.00  0.00    +0.051 C 
ATOM     20  C   UNL     1      -2.391  -3.051   5.875  0.00  0.00    -0.008 C 
ATOM     21  C   UNL     1      -2.953  -3.067   7.299  0.00  0.00    -0.082 C 
ATOM     22  N   UNL     1      -2.119  -2.227   8.167  0.00  0.00    +0.379 N 
ATOM     23  C   UNL     1      -0.763  -2.783   8.244  0.00  0.00    -0.082 C 
ATOM     24  C   UNL     1      -0.117  -2.757   6.857  0.00  0.00    -0.008 C 
ATOM     25  H   UNL     1      -2.077  -1.292   7.790  0.00  0.00    -0.086 HD
ATOM     26  H   UNL     1      -2.522  -2.197   9.091  0.00  0.00    -0.086 HD
ENDBRANCH   5  19
BRANCH   1  32
ATOM     27  C   UNL     1      -0.121  -2.597  -2.505  0.00  0.00    +0.044 C 
ATOM     28  C   UNL     1       0.032  -1.915  -1.169  0.00  0.00    -0.050 A 
ATOM     29  C   UNL     1       0.209  -0.543  -1.111  0.00  0.00    +0.003 A 
ATOM     30  C   UNL     1       0.350   0.091   0.110  0.00  0.00    +0.001 A 
ATOM     31  C   UNL     1       0.315  -0.641   1.279  0.00  0.00    +0.010 A 
ATOM     32  C   UNL     1       0.135  -2.025   1.228  0.00  0.00    +0.001 A 
ATOM     33  C   UNL     1      -0.012  -2.658  -0.009  0.00  0.00    +0.013 A 
ENDBRANCH   1  32
TORSDOF 3
