REMARK  Name = CHEMBL339699
REMARK  7 active torsions:
REMARK  status: ('A' for Active; 'I' for Inactive)
REMARK    1  A    between atoms: C_4  and  O_7
REMARK    2  A    between atoms: O_7  and  C_8
REMARK    3  A    between atoms: C_8  and  C_9
REMARK    4  A    between atoms: C_9  and  C_10
REMARK    5  A    between atoms: C_10  and  N_11
REMARK    6  A    between atoms: C_14  and  C_22
REMARK    7  A    between atoms: C_15  and  C_16
REMARK                            x       y       z     vdW  Elec       q    Type
REMARK                         _______ _______ _______ _____ _____    ______ ____
ROOT
ATOM      1  N   UNL     1       6.306  -4.568  -0.237  0.00  0.00    -0.331 N 
ATOM      2  C   UNL     1       6.979  -4.849  -1.373  0.00  0.00    +0.174 A 
ATOM      3  N   UNL     1       8.084  -5.478  -1.082  0.00  0.00    -0.345 N 
ATOM      4  C   UNL     1       8.177  -5.632   0.251  0.00  0.00    +0.072 A 
ATOM      5  C   UNL     1       7.053  -5.053   0.813  0.00  0.00    +0.074 A 
ATOM      6  H   UNL     1       8.738  -5.787  -1.728  0.00  0.00    +0.167 HD
ENDROOT
BRANCH   4   7
ATOM      7  C   UNL     1       9.281  -6.296   0.983  0.00  0.00    +0.001 A 
ATOM      8  C   UNL     1       8.998  -7.226   1.983  0.00  0.00    +0.013 A 
ATOM      9  C   UNL     1      10.029  -7.841   2.661  0.00  0.00    +0.039 A 
ATOM     10  C   UNL     1      11.345  -7.536   2.351  0.00  0.00    +0.123 A 
ATOM     11  C   UNL     1      11.631  -6.613   1.359  0.00  0.00    +0.039 A 
ATOM     12  C   UNL     1      10.606  -5.996   0.670  0.00  0.00    +0.013 A 
ATOM     13  F   UNL     1      12.351  -8.141   3.019  0.00  0.00    -0.205 F 
ENDBRANCH   4   7
BRANCH   5  14
ATOM     14  C   UNL     1       6.720  -4.974   2.248  0.00  0.00    +0.003 A 
ATOM     15  C   UNL     1       7.620  -4.418   3.167  0.00  0.00    +0.030 A 
ATOM     16  C   UNL     1       7.267  -4.365   4.499  0.00  0.00    +0.111 A 
ATOM     17  N   UNL     1       6.102  -4.828   4.911  0.00  0.00    -0.263 NA
ATOM     18  C   UNL     1       5.225  -5.359   4.079  0.00  0.00    +0.111 A 
ATOM     19  C   UNL     1       5.492  -5.448   2.730  0.00  0.00    +0.030 A 
ENDBRANCH   5  14
BRANCH   1  20
ATOM     20  C   UNL     1       5.021  -3.871  -0.140  0.00  0.00    +0.126 C 
BRANCH  20  21
ATOM     21  C   UNL     1       5.265  -2.400   0.203  0.00  0.00    +0.062 C 
BRANCH  21  22
ATOM     22  C   UNL     1       3.934  -1.645   0.188  0.00  0.00    +0.231 C 
BRANCH  22  23
ATOM     23  O   UNL     1       4.161  -0.271   0.508  0.00  0.00    -0.492 OA
BRANCH  23  27
ATOM     24  C   UNL     1       0.860   2.202   0.596  0.00  0.00    +0.000 A 
ATOM     25  C   UNL     1       2.115   2.715   0.870  0.00  0.00    +0.004 A 
ATOM     26  C   UNL     1       3.221   1.889   0.841  0.00  0.00    +0.045 A 
ATOM     27  C   UNL     1       3.074   0.543   0.537  0.00  0.00    +0.121 A 
ATOM     28  C   UNL     1       1.814   0.031   0.263  0.00  0.00    +0.045 A 
ATOM     29  C   UNL     1       0.710   0.861   0.293  0.00  0.00    +0.004 A 
ENDBRANCH  23  27
ENDBRANCH  22  23
ENDBRANCH  21  22
ENDBRANCH  20  21
ENDBRANCH   1  20
TORSDOF 7
