REMARK  Name = CHEMBL559462
REMARK  9 active torsions:
REMARK  status: ('A' for Active; 'I' for Inactive)
REMARK    1  A    between atoms: C_1  and  C_2
REMARK    2  A    between atoms: C_4  and  C_26
REMARK    3  A    between atoms: C_7  and  C_8
REMARK    4  A    between atoms: C_9  and  N_25
REMARK    5  A    between atoms: C_10  and  C_15
REMARK    6  A    between atoms: C_15  and  C_17
REMARK    7  A    between atoms: N_28  and  C_29
REMARK    8  A    between atoms: C_29  and  C_30
REMARK    9  A    between atoms: C_30  and  N_31
REMARK                            x       y       z     vdW  Elec       q    Type
REMARK                         _______ _______ _______ _____ _____    ______ ____
ROOT
ATOM      1  C   UNL     1       0.027  -0.051   2.536  0.00  0.00    +0.113 A 
ATOM      2  C   UNL     1      -1.188   0.271   3.156  0.00  0.00    +0.063 A 
ATOM      3  C   UNL     1      -1.163   1.045   4.331  0.00  0.00    +0.047 A 
ATOM      4  C   UNL     1       0.083   1.458   4.823  0.00  0.00    +0.035 A 
ATOM      5  C   UNL     1       1.229   1.095   4.148  0.00  0.00    +0.135 A 
ATOM      6  N   UNL     1       1.177   0.364   3.051  0.00  0.00    -0.137 N 
ATOM      7  O   UNL     1       2.385   0.015   2.401  0.00  0.00    -0.164 OA
ENDROOT
BRANCH   1  14
ATOM      8  C   UNL     1      -0.110   1.264  -0.033  0.00  0.00    +0.044 C 
ATOM      9  C   UNL     1      -0.038  -0.239   0.053  0.00  0.00    -0.040 A 
ATOM     10  C   UNL     1      -0.032  -0.995  -1.098  0.00  0.00    +0.017 A 
ATOM     11  C   UNL     1       0.035  -2.388  -1.018  0.00  0.00    +0.037 A 
ATOM     12  C   UNL     1       0.095  -3.013   0.230  0.00  0.00    +0.014 A 
ATOM     13  C   UNL     1       0.088  -2.257   1.379  0.00  0.00    +0.011 A 
ATOM     14  C   UNL     1       0.028  -0.864   1.299  0.00  0.00    +0.007 A 
BRANCH  11  15
ATOM     15  C   UNL     1       0.041  -3.199  -2.252  0.00  0.00    +0.244 C 
ATOM     16  O   UNL     1      -0.012  -2.655  -3.338  0.00  0.00    -0.270 OA
ATOM     17  N   UNL     1       0.105  -4.543  -2.175  0.00  0.00    -0.310 N 
ATOM     18  H   UNL     1       0.147  -4.978  -1.308  0.00  0.00    +0.149 HD
BRANCH  17  19
ATOM     19  C   UNL     1       0.111  -5.348  -3.399  0.00  0.00    +0.120 C 
BRANCH  19  20
ATOM     20  C   UNL     1       0.189  -6.832  -3.034  0.00  0.00    +0.103 C 
BRANCH  20  21
ATOM     21  N   UNL     1       0.195  -7.639  -4.261  0.00  0.00    -0.297 NA
ATOM     22  C   UNL     1      -1.087  -7.527  -4.971  0.00  0.00    +0.112 C 
ATOM     23  C   UNL     1      -1.016  -8.333  -6.271  0.00  0.00    +0.175 C 
ATOM     24  O   UNL     1      -0.682  -9.690  -5.966  0.00  0.00    -0.377 OA
ATOM     25  C   UNL     1       0.561  -9.836  -5.275  0.00  0.00    +0.175 C 
ATOM     26  C   UNL     1       0.506  -9.045  -3.966  0.00  0.00    +0.112 C 
ENDBRANCH  20  21
ENDBRANCH  19  20
ENDBRANCH  17  19
ENDBRANCH  11  15
ENDBRANCH   1  14
BRANCH   2  27
ATOM     27  N   UNL     1      -2.390  -0.165   2.623  0.00  0.00    -0.356 N 
ATOM     28  H   UNL     1      -2.403  -0.635   1.775  0.00  0.00    +0.142 HD
ATOM     29  H   UNL     1      -3.220   0.000   3.099  0.00  0.00    +0.142 HD
ENDBRANCH   2  27
BRANCH   3  30
ATOM     30  C   UNL     1      -2.412   1.413   5.024  0.00  0.00    +0.198 C 
ATOM     31  O   UNL     1      -2.850   2.543   4.930  0.00  0.00    -0.286 OA
BRANCH  30  32
ATOM     32  C   UNL     1      -3.131   0.408   5.831  0.00  0.00    +0.058 A 
ATOM     33  C   UNL     1      -2.575  -0.859   6.033  0.00  0.00    +0.017 A 
ATOM     34  C   UNL     1      -3.250  -1.792   6.788  0.00  0.00    +0.039 A 
ATOM     35  C   UNL     1      -4.480  -1.479   7.348  0.00  0.00    +0.126 A 
ATOM     36  C   UNL     1      -5.039  -0.226   7.153  0.00  0.00    +0.077 A 
ATOM     37  C   UNL     1      -4.369   0.722   6.403  0.00  0.00    +0.137 A 
ATOM     38  F   UNL     1      -4.912   1.945   6.217  0.00  0.00    -0.205 F 
ATOM     39  F   UNL     1      -5.136  -2.400   8.087  0.00  0.00    -0.205 F 
ENDBRANCH  30  32
ENDBRANCH   3  30
TORSDOF 8
