REMARK  Name = CHEMBL197267
REMARK  8 active torsions:
REMARK  status: ('A' for Active; 'I' for Inactive)
REMARK    1  A    between atoms: C_4  and  C_7
REMARK    2  A    between atoms: C_7  and  C_8
REMARK    3  A    between atoms: C_8  and  C_10
REMARK    4  A    between atoms: C_8  and  N_34
REMARK    5  A    between atoms: C_10  and  N_11
REMARK    6  A    between atoms: C_14  and  C_28
REMARK    7  A    between atoms: C_15  and  C_18
REMARK    8  A    between atoms: C_22  and  C_24
REMARK                            x       y       z     vdW  Elec       q    Type
REMARK                         _______ _______ _______ _____ _____    ______ ____
ROOT
ATOM      1  N   UNL     1       5.722  -2.363   2.840  0.00  0.00    -0.329 N 
ATOM      2  C   UNL     1       6.990  -2.899   3.032  0.00  0.00    +0.140 A 
ATOM      3  C   UNL     1       7.603  -3.623   2.011  0.00  0.00    +0.057 A 
ATOM      4  C   UNL     1       8.876  -4.141   2.252  0.00  0.00    +0.029 A 
ATOM      5  C   UNL     1       9.456  -3.895   3.513  0.00  0.00    +0.074 A 
ATOM      6  N   UNL     1       8.787  -3.193   4.416  0.00  0.00    -0.275 N 
ATOM      7  N   UNL     1       7.619  -2.716   4.185  0.00  0.00    -0.158 NA
ATOM      8  H   UNL     1       5.297  -1.856   3.549  0.00  0.00    +0.147 HD
ATOM      9  H   UNL     1       9.196  -3.031   5.280  0.00  0.00    +0.189 HD
ENDROOT
BRANCH   5  10
ATOM     10  C   UNL     1      10.805  -4.420   3.827  0.00  0.00    +0.001 A 
ATOM     11  C   UNL     1      11.889  -4.099   3.010  0.00  0.00    +0.010 A 
ATOM     12  C   UNL     1      13.144  -4.590   3.308  0.00  0.00    +0.001 A 
ATOM     13  C   UNL     1      13.327  -5.400   4.415  0.00  0.00    +0.012 A 
ATOM     14  C   UNL     1      12.256  -5.723   5.228  0.00  0.00    +0.055 A 
ATOM     15  C   UNL     1      10.998  -5.232   4.944  0.00  0.00    +0.022 A 
BRANCH  14  16
ATOM     16  C   UNL     1      12.465  -6.606   6.431  0.00  0.00    +0.417 C 
ATOM     17  F   UNL     1      13.813  -6.970   6.514  0.00  0.00    -0.166 F 
ATOM     18  F   UNL     1      12.097  -5.913   7.589  0.00  0.00    -0.166 F 
ATOM     19  F   UNL     1      11.678  -7.757   6.307  0.00  0.00    -0.166 F 
ENDBRANCH  14  16
ENDBRANCH   5  10
BRANCH   4  20
ATOM     20  C   UNL     1       9.594  -4.922   1.217  0.00  0.00    +0.076 A 
ATOM     21  C   UNL     1       9.078  -5.030  -0.078  0.00  0.00    +0.048 A 
ATOM     22  C   UNL     1       9.788  -5.771  -1.006  0.00  0.00    +0.114 A 
ATOM     23  N   UNL     1      10.922  -6.348  -0.642  0.00  0.00    -0.244 NA
ATOM     24  C   UNL     1      11.383  -6.227   0.587  0.00  0.00    +0.221 A 
ATOM     25  N   UNL     1      10.745  -5.528   1.503  0.00  0.00    -0.235 NA
ENDBRANCH   4  20
BRANCH   1  26
ATOM     26  C   UNL     1       5.027  -2.565   1.566  0.00  0.00    +0.087 C 
BRANCH  26  27
ATOM     27  C   UNL     1       3.660  -1.879   1.616  0.00  0.00    -0.053 C 
BRANCH  27  28
ATOM     28  N   UNL     1       3.836  -0.464   1.970  0.00  0.00    +0.381 N 
ATOM     29  H   UNL     1       4.413  -0.013   1.276  0.00  0.00    -0.090 HD
ATOM     30  H   UNL     1       2.934  -0.011   2.003  0.00  0.00    -0.090 HD
ATOM     31  H   UNL     1       4.279  -0.396   2.873  0.00  0.00    -0.090 HD
ENDBRANCH  27  28
BRANCH  27  32
ATOM     32  C   UNL     1       2.987  -1.982   0.246  0.00  0.00    +0.020 C 
BRANCH  32  36
ATOM     33  C   UNL     1      -0.965  -0.378   0.474  0.00  0.00    +0.000 A 
ATOM     34  C   UNL     1       0.097   0.445   0.149  0.00  0.00    +0.000 A 
ATOM     35  C   UNL     1       1.376  -0.074   0.075  0.00  0.00    +0.003 A 
ATOM     36  C   UNL     1       1.593  -1.416   0.327  0.00  0.00    -0.049 A 
ATOM     37  C   UNL     1       0.531  -2.238   0.653  0.00  0.00    +0.003 A 
ATOM     38  C   UNL     1      -0.748  -1.719   0.725  0.00  0.00    +0.000 A 
ENDBRANCH  32  36
ENDBRANCH  27  32
ENDBRANCH  26  27
ENDBRANCH   1  26
TORSDOF 8
