REMARK  Name = CHEMBL439238
REMARK  6 active torsions:
REMARK  status: ('A' for Active; 'I' for Inactive)
REMARK    1  A    between atoms: C_1  and  C_2
REMARK    2  A    between atoms: C_2  and  C_3
REMARK    3  A    between atoms: C_3  and  C_5
REMARK    4  A    between atoms: C_3  and  N_6
REMARK    5  A    between atoms: C_12  and  C_16
REMARK    6  A    between atoms: C_17  and  C_22
REMARK                            x       y       z     vdW  Elec       q    Type
REMARK                         _______ _______ _______ _____ _____    ______ ____
ROOT
ATOM      1  N   UNL     1       1.774   0.101   1.418  0.00  0.00    -0.321 N 
ATOM      2  C   UNL     1       2.569   0.209   2.541  0.00  0.00    +0.159 A 
ATOM      3  N   UNL     1       2.223   0.144   3.806  0.00  0.00    -0.225 NA
ATOM      4  C   UNL     1       3.117   0.269   4.811  0.00  0.00    +0.080 A 
ATOM      5  C   UNL     1       2.874   0.218   6.204  0.00  0.00    +0.029 A 
ATOM      6  C   UNL     1       3.886   0.362   7.098  0.00  0.00    +0.012 A 
ATOM      7  C   UNL     1       5.206   0.567   6.680  0.00  0.00    +0.004 A 
ATOM      8  C   UNL     1       5.482   0.622   5.313  0.00  0.00    +0.027 A 
ATOM      9  C   UNL     1       4.459   0.475   4.414  0.00  0.00    +0.041 A 
ATOM     10  S   UNL     1       4.335   0.467   2.642  0.00  0.00    -0.052 S 
ATOM     11  H   UNL     1       2.169   0.165   0.535  0.00  0.00    +0.148 HD
ENDROOT
BRANCH   7  12
ATOM     12  C   UNL     1       6.293   0.723   7.673  0.00  0.00    +0.097 A 
ATOM     13  C   UNL     1       7.337   1.627   7.608  0.00  0.00    +0.077 A 
ATOM     14  N   UNL     1       8.098   1.417   8.735  0.00  0.00    -0.344 N 
ATOM     15  C   UNL     1       7.511   0.415   9.437  0.00  0.00    +0.197 A 
ATOM     16  N   UNL     1       6.442   0.013   8.808  0.00  0.00    -0.235 NA
ATOM     17  H   UNL     1       8.905   1.896   8.982  0.00  0.00    +0.167 HD
BRANCH  13  18
ATOM     18  C   UNL     1       7.585   2.620   6.543  0.00  0.00    +0.036 A 
ATOM     19  C   UNL     1       8.712   2.506   5.727  0.00  0.00    +0.013 A 
ATOM     20  C   UNL     1       8.938   3.436   4.734  0.00  0.00    +0.001 A 
ATOM     21  C   UNL     1       8.050   4.481   4.544  0.00  0.00    +0.003 A 
ATOM     22  C   UNL     1       6.931   4.601   5.347  0.00  0.00    +0.039 A 
ATOM     23  C   UNL     1       6.689   3.674   6.343  0.00  0.00    +0.133 A 
ATOM     24  F   UNL     1       5.592   3.789   7.123  0.00  0.00    -0.205 F 
ENDBRANCH  13  18
ENDBRANCH   7  12
BRANCH   1  25
ATOM     25  C   UNL     1       0.331  -0.112   1.561  0.00  0.00    +0.069 C 
ATOM     26  C   UNL     1       0.049  -1.606   1.726  0.00  0.00    +0.028 C 
BRANCH  25  28
ATOM     27  C   UNL     1      -0.208   1.925   0.218  0.00  0.00    +0.005 C 
ATOM     28  C   UNL     1      -0.387   0.408   0.314  0.00  0.00    +0.018 C 
ENDBRANCH  25  28
ENDBRANCH   1  25
TORSDOF 4
