REMARK  Name = CHEMBL69331
REMARK  3 active torsions:
REMARK  status: ('A' for Active; 'I' for Inactive)
REMARK    1  A    between atoms: C_6  and  C_7
REMARK    2  A    between atoms: C_8  and  C_19
REMARK    3  A    between atoms: C_10  and  C_13
REMARK                            x       y       z     vdW  Elec       q    Type
REMARK                         _______ _______ _______ _____ _____    ______ ____
ROOT
ATOM      1  C   UNL     1      -1.269  -0.765   0.011  0.00  0.00    +0.097 A 
ATOM      2  C   UNL     1      -1.508  -1.968  -0.628  0.00  0.00    +0.074 A 
ATOM      3  N   UNL     1      -2.815  -2.299  -0.346  0.00  0.00    -0.341 N 
ATOM      4  C   UNL     1      -3.319  -1.318   0.432  0.00  0.00    +0.111 A 
ATOM      5  N   UNL     1      -2.403  -0.415   0.646  0.00  0.00    -0.232 NA
ATOM      6  H   UNL     1      -3.286  -3.090  -0.651  0.00  0.00    +0.167 HD
ENDROOT
BRANCH   1  12
ATOM      7  C   UNL     1      -0.017   1.390   0.010  0.00  0.00    +0.013 A 
ATOM      8  C   UNL     1       1.170   2.094   0.002  0.00  0.00    +0.039 A 
ATOM      9  C   UNL     1       2.379   1.418  -0.013  0.00  0.00    +0.123 A 
ATOM     10  C   UNL     1       2.403   0.032  -0.021  0.00  0.00    +0.039 A 
ATOM     11  C   UNL     1       1.222  -0.680  -0.013  0.00  0.00    +0.013 A 
ATOM     12  C   UNL     1       0.002  -0.004   0.002  0.00  0.00    +0.003 A 
ATOM     13  F   UNL     1       3.538   2.111  -0.022  0.00  0.00    -0.205 F 
ENDBRANCH   1  12
BRANCH   4  14
ATOM     14  C   UNL     1      -4.724  -1.276   0.976  0.00  0.00    +0.055 C 
ATOM     15  C   UNL     1      -5.188  -2.697   1.302  0.00  0.00    +0.011 C 
ATOM     16  C   UNL     1      -6.614  -2.654   1.854  0.00  0.00    +0.001 C 
ATOM     17  C   UNL     1      -7.547  -2.041   0.808  0.00  0.00    +0.000 C 
ATOM     18  C   UNL     1      -7.084  -0.619   0.482  0.00  0.00    +0.001 C 
ATOM     19  C   UNL     1      -5.657  -0.662  -0.070  0.00  0.00    +0.011 C 
ENDBRANCH   4  14
BRANCH   2  20
ATOM     20  C   UNL     1      -0.556  -2.742  -1.448  0.00  0.00    +0.003 A 
ATOM     21  C   UNL     1       0.254  -2.109  -2.401  0.00  0.00    +0.030 A 
ATOM     22  C   UNL     1       1.130  -2.871  -3.144  0.00  0.00    +0.111 A 
ATOM     23  N   UNL     1       1.212  -4.176  -2.968  0.00  0.00    -0.263 NA
ATOM     24  C   UNL     1       0.468  -4.812  -2.081  0.00  0.00    +0.111 A 
ATOM     25  C   UNL     1      -0.430  -4.128  -1.290  0.00  0.00    +0.030 A 
ENDBRANCH   2  20
TORSDOF 3
