REMARK  Name = CHEMBL195188
REMARK  7 active torsions:
REMARK  status: ('A' for Active; 'I' for Inactive)
REMARK    1  A    between atoms: C_4  and  C_7
REMARK    2  A    between atoms: C_7  and  C_8
REMARK    3  A    between atoms: C_8  and  C_10
REMARK    4  A    between atoms: C_8  and  N_34
REMARK    5  A    between atoms: C_10  and  N_11
REMARK    6  A    between atoms: C_14  and  C_28
REMARK    7  A    between atoms: C_15  and  C_18
REMARK                            x       y       z     vdW  Elec       q    Type
REMARK                         _______ _______ _______ _____ _____    ______ ____
ROOT
ATOM      1  N   UNL     1       5.816  -1.679   3.275  0.00  0.00    -0.329 N 
ATOM      2  C   UNL     1       6.819  -2.512   3.759  0.00  0.00    +0.140 A 
ATOM      3  C   UNL     1       7.857  -2.914   2.920  0.00  0.00    +0.055 A 
ATOM      4  C   UNL     1       8.840  -3.749   3.451  0.00  0.00    +0.011 A 
ATOM      5  C   UNL     1       8.716  -4.129   4.804  0.00  0.00    +0.073 A 
ATOM      6  N   UNL     1       7.687  -3.690   5.517  0.00  0.00    -0.275 N 
ATOM      7  N   UNL     1       6.791  -2.918   5.021  0.00  0.00    -0.158 NA
ATOM      8  H   UNL     1       5.096  -1.396   3.860  0.00  0.00    +0.147 HD
ATOM      9  H   UNL     1       7.612  -3.959   6.446  0.00  0.00    +0.189 HD
ENDROOT
BRANCH   5  10
ATOM     10  C   UNL     1       9.727  -5.014   5.423  0.00  0.00    +0.008 A 
ATOM     11  C   UNL     1      10.555  -4.535   6.425  0.00  0.00    +0.010 A 
ATOM     12  C   UNL     1      11.508  -5.361   7.011  0.00  0.00    +0.001 A 
ATOM     13  C   UNL     1      11.653  -6.658   6.620  0.00  0.00    +0.008 A 
ATOM     14  C   UNL     1      10.834  -7.184   5.607  0.00  0.00    -0.017 A 
ATOM     15  C   UNL     1       9.854  -6.360   5.003  0.00  0.00    -0.009 A 
ATOM     16  C   UNL     1       9.033  -6.888   3.997  0.00  0.00    +0.009 A 
ATOM     17  C   UNL     1       9.183  -8.188   3.617  0.00  0.00    +0.001 A 
ATOM     18  C   UNL     1      10.142  -9.003   4.215  0.00  0.00    +0.001 A 
ATOM     19  C   UNL     1      10.965  -8.519   5.186  0.00  0.00    +0.008 A 
ENDBRANCH   5  10
BRANCH   4  20
ATOM     20  C   UNL     1       9.975  -4.220   2.623  0.00  0.00    -0.013 A 
ATOM     21  C   UNL     1      11.295  -4.052   3.052  0.00  0.00    +0.028 A 
ATOM     22  C   UNL     1      12.322  -4.506   2.250  0.00  0.00    +0.111 A 
ATOM     23  N   UNL     1      12.071  -5.091   1.094  0.00  0.00    -0.263 NA
ATOM     24  C   UNL     1      10.841  -5.268   0.653  0.00  0.00    +0.111 A 
ATOM     25  C   UNL     1       9.755  -4.850   1.394  0.00  0.00    +0.028 A 
ENDBRANCH   4  20
BRANCH   1  26
ATOM     26  C   UNL     1       5.848  -1.230   1.881  0.00  0.00    +0.088 C 
BRANCH  26  27
ATOM     27  C   UNL     1       4.713  -0.232   1.641  0.00  0.00    -0.047 C 
BRANCH  27  28
ATOM     28  N   UNL     1       4.839   0.889   2.583  0.00  0.00    +0.383 N 
ATOM     29  C   UNL     1       5.883   1.836   2.114  0.00  0.00    -0.078 C 
ATOM     30  C   UNL     1       5.512   3.156   2.835  0.00  0.00    -0.020 C 
ATOM     31  C   UNL     1       3.967   3.143   2.809  0.00  0.00    -0.020 C 
ATOM     32  C   UNL     1       3.580   1.664   2.625  0.00  0.00    -0.078 C 
ATOM     33  H   UNL     1       5.068   0.546   3.504  0.00  0.00    -0.081 HD
ENDBRANCH  27  28
BRANCH  27  34
ATOM     34  C   UNL     1       4.791   0.295   0.207  0.00  0.00    +0.021 C 
BRANCH  34  38
ATOM     35  C   UNL     1       1.357   2.698  -0.619  0.00  0.00    +0.000 A 
ATOM     36  C   UNL     1       2.547   3.297  -0.251  0.00  0.00    +0.000 A 
ATOM     37  C   UNL     1       3.659   2.519   0.016  0.00  0.00    +0.003 A 
ATOM     38  C   UNL     1       3.580   1.143  -0.083  0.00  0.00    -0.049 A 
ATOM     39  C   UNL     1       2.389   0.544  -0.450  0.00  0.00    +0.003 A 
ATOM     40  C   UNL     1       1.278   1.321  -0.719  0.00  0.00    +0.000 A 
ENDBRANCH  34  38
ENDBRANCH  27  34
ENDBRANCH  26  27
ENDBRANCH   1  26
TORSDOF 7
