REMARK  Name = CHEMBL378717
REMARK  2 active torsions:
REMARK  status: ('A' for Active; 'I' for Inactive)
REMARK    1  A    between atoms: C_5  and  C_7
REMARK    2  A    between atoms: N_19  and  C_24
REMARK                            x       y       z     vdW  Elec       q    Type
REMARK                         _______ _______ _______ _____ _____    ______ ____
ROOT
ATOM      1  C   UNL     1       1.246  -2.165  -0.023  0.00  0.00    +0.084 A 
ATOM      2  C   UNL     1       0.074  -2.896   0.082  0.00  0.00    +0.036 A 
ATOM      3  C   UNL     1       0.131  -4.288   0.070  0.00  0.00    +0.144 A 
ATOM      4  N   UNL     1       1.316  -4.877  -0.043  0.00  0.00    -0.198 NA
ATOM      5  C   UNL     1       2.421  -4.152  -0.142  0.00  0.00    +0.220 A 
ATOM      6  N   UNL     1       2.401  -2.828  -0.138  0.00  0.00    -0.214 NA
ATOM      7  N   UNL     1       3.638  -4.801  -0.258  0.00  0.00    -0.295 N 
ATOM      8  C   UNL     1       3.714  -6.270  -0.278  0.00  0.00    +0.136 C 
ATOM      9  C   UNL     1       4.557  -6.694  -1.486  0.00  0.00    +0.179 C 
ATOM     10  O   UNL     1       5.803  -5.995  -1.460  0.00  0.00    -0.377 OA
ATOM     11  C   UNL     1       5.680  -4.575  -1.570  0.00  0.00    +0.179 C 
ATOM     12  C   UNL     1       4.894  -4.042  -0.371  0.00  0.00    +0.136 C 
ATOM     13  N   UNL     1      -1.037  -5.026   0.176  0.00  0.00    -0.205 N 
ATOM     14  C   UNL     1      -2.248  -4.464   0.292  0.00  0.00    +0.312 C 
ATOM     15  O   UNL     1      -3.217  -5.192   0.380  0.00  0.00    -0.252 OA
ATOM     16  N   UNL     1      -2.442  -3.133   0.317  0.00  0.00    -0.294 N 
ATOM     17  C   UNL     1      -1.276  -2.237   0.211  0.00  0.00    +0.146 C 
ATOM     18  H   UNL     1      -3.337  -2.768   0.402  0.00  0.00    +0.151 HD
ENDROOT
BRANCH  13  19
ATOM     19  C   UNL     1      -0.948  -6.425   0.161  0.00  0.00    +0.081 A 
ATOM     20  C   UNL     1      -1.011  -7.113  -1.045  0.00  0.00    +0.064 A 
ATOM     21  C   UNL     1      -0.922  -8.493  -1.056  0.00  0.00    +0.022 A 
ATOM     22  C   UNL     1      -0.773  -9.188   0.130  0.00  0.00    +0.003 A 
ATOM     23  C   UNL     1      -0.711  -8.506   1.331  0.00  0.00    +0.022 A 
ATOM     24  C   UNL     1      -0.792  -7.126   1.350  0.00  0.00    +0.064 A 
ATOM     25 CL   UNL     1      -0.706  -6.271   2.858  0.00  0.00    -0.082 Cl
ATOM     26 CL   UNL     1      -1.199  -6.242  -2.534  0.00  0.00    -0.082 Cl
ENDBRANCH  13  19
BRANCH   1  31
ATOM     27  C   UNL     1       0.574   1.380   1.033  0.00  0.00    +0.001 A 
ATOM     28  C   UNL     1       1.169   2.087   0.003  0.00  0.00    +0.001 A 
ATOM     29  C   UNL     1       1.790   1.417  -1.035  0.00  0.00    +0.020 A 
ATOM     30  C   UNL     1       1.818   0.035  -1.049  0.00  0.00    +0.050 A 
ATOM     31  C   UNL     1       1.220  -0.682  -0.014  0.00  0.00    +0.019 A 
ATOM     32  C   UNL     1       0.596   0.000   1.030  0.00  0.00    +0.011 A 
ATOM     33 CL   UNL     1       2.597  -0.805  -2.353  0.00  0.00    -0.083 Cl
ENDBRANCH   1  31
TORSDOF 2
