REMARK  Name = CHEMBL191113
REMARK  7 active torsions:
REMARK  status: ('A' for Active; 'I' for Inactive)
REMARK    1  A    between atoms: C_1  and  C_2
REMARK    2  A    between atoms: C_2  and  C_3
REMARK    3  A    between atoms: C_2  and  S_4
REMARK    4  A    between atoms: S_4  and  N_7
REMARK    5  A    between atoms: C_10  and  C_17
REMARK    6  A    between atoms: C_18  and  C_29
REMARK    7  A    between atoms: C_20  and  C_23
REMARK                            x       y       z     vdW  Elec       q    Type
REMARK                         _______ _______ _______ _____ _____    ______ ____
ROOT
ATOM      1  C   UNL     1      -1.290  -4.053  -4.554  0.00  0.00    +0.097 A 
ATOM      2  C   UNL     1      -0.562  -4.829  -5.437  0.00  0.00    +0.074 A 
ATOM      3  N   UNL     1      -0.856  -4.355  -6.696  0.00  0.00    -0.341 N 
ATOM      4  C   UNL     1      -1.728  -3.334  -6.548  0.00  0.00    +0.111 A 
ATOM      5  N   UNL     1      -1.988  -3.161  -5.282  0.00  0.00    -0.232 NA
ATOM      6  H   UNL     1      -0.501  -4.692  -7.533  0.00  0.00    +0.167 HD
ENDROOT
BRANCH   1  10
ATOM      7  N   UNL     1      -1.546  -2.276   0.144  0.00  0.00    -0.183 N 
ATOM      8  C   UNL     1      -1.441  -3.176  -0.904  0.00  0.00    +0.094 A 
ATOM      9  C   UNL     1      -1.428  -3.047  -2.282  0.00  0.00    +0.040 A 
ATOM     10  C   UNL     1      -1.305  -4.183  -3.078  0.00  0.00    +0.005 A 
ATOM     11  C   UNL     1      -1.195  -5.446  -2.488  0.00  0.00    +0.012 A 
ATOM     12  C   UNL     1      -1.208  -5.579  -1.130  0.00  0.00    +0.030 A 
ATOM     13  C   UNL     1      -1.330  -4.449  -0.316  0.00  0.00    +0.093 A 
ATOM     14  N   UNL     1      -1.371  -4.271   1.030  0.00  0.00    -0.213 NA
ATOM     15  C   UNL     1      -1.493  -2.996   1.303  0.00  0.00    +0.214 A 
ATOM     16  N   UNL     1      -1.561  -2.460   2.572  0.00  0.00    -0.328 N 
ATOM     17  H   UNL     1      -1.653  -1.502   2.690  0.00  0.00    +0.145 HD
ATOM     18  H   UNL     1      -1.516  -3.042   3.347  0.00  0.00    +0.145 HD
BRANCH   7  19
ATOM     19  S   UNL     1      -1.700  -0.632   0.015  0.00  0.00    +0.060 S 
ATOM     20  O   UNL     1      -2.359  -0.234   1.209  0.00  0.00    -0.153 OA
ATOM     21  O   UNL     1      -2.308  -0.423  -1.252  0.00  0.00    -0.153 OA
BRANCH  19  23
ATOM     22  C   UNL     1      -0.019   1.526   0.010  0.00  0.00    +0.033 C 
ATOM     23  C   UNL     1       0.002  -0.004   0.002  0.00  0.00    +0.148 C 
ATOM     24  C   UNL     1       0.742  -0.511   1.242  0.00  0.00    +0.033 C 
ENDBRANCH  19  23
ENDBRANCH   7  19
ENDBRANCH   1  10
BRANCH   4  25
ATOM     25  C   UNL     1      -2.316  -2.524  -7.675  0.00  0.00    +0.051 C 
ATOM     26  C   UNL     1      -1.278  -2.369  -8.790  0.00  0.00    -0.008 C 
ATOM     27  C   UNL     1      -1.907  -1.614  -9.963  0.00  0.00    -0.082 C 
ATOM     28  N   UNL     1      -3.063  -2.364 -10.469  0.00  0.00    +0.379 N 
ATOM     29  C   UNL     1      -4.093  -2.454  -9.427  0.00  0.00    -0.082 C 
ATOM     30  C   UNL     1      -3.548  -3.242  -8.234  0.00  0.00    -0.008 C 
ATOM     31  H   UNL     1      -3.442  -1.891 -11.276  0.00  0.00    -0.086 HD
ATOM     32  H   UNL     1      -2.770  -3.293 -10.733  0.00  0.00    -0.086 HD
ENDBRANCH   4  25
BRANCH   2  33
ATOM     33  C   UNL     1       0.347  -5.942  -5.098  0.00  0.00    +0.000 A 
ATOM     34  C   UNL     1       1.260  -5.808  -4.050  0.00  0.00    +0.010 A 
ATOM     35  C   UNL     1       2.107  -6.851  -3.739  0.00  0.00    +0.001 A 
ATOM     36  C   UNL     1       2.053  -8.029  -4.463  0.00  0.00    +0.000 A 
ATOM     37  C   UNL     1       1.152  -8.169  -5.503  0.00  0.00    +0.001 A 
ATOM     38  C   UNL     1       0.295  -7.136  -5.821  0.00  0.00    +0.010 A 
ENDBRANCH   2  33
TORSDOF 5
