REMARK  Name = CHEMBL525916
REMARK  6 active torsions:
REMARK  status: ('A' for Active; 'I' for Inactive)
REMARK    1  A    between atoms: C_1  and  C_2
REMARK    2  A    between atoms: C_5  and  C_20
REMARK    3  A    between atoms: C_7  and  C_8
REMARK    4  A    between atoms: C_11  and  C_14
REMARK    5  A    between atoms: N_22  and  C_23
REMARK    6  A    between atoms: C_27  and  N_29
REMARK                            x       y       z     vdW  Elec       q    Type
REMARK                         _______ _______ _______ _____ _____    ______ ____
ROOT
ATOM      1  C   UNL     1      -0.109   1.505  -0.025  0.00  0.00    +0.044 C 
ATOM      2  C   UNL     1      -0.068  -0.002  -0.028  0.00  0.00    -0.043 A 
ATOM      3  C   UNL     1      -0.067  -0.689  -1.226  0.00  0.00    +0.005 A 
ATOM      4  C   UNL     1      -0.030  -2.069  -1.237  0.00  0.00    +0.013 A 
ATOM      5  C   UNL     1       0.007  -2.778  -0.034  0.00  0.00    +0.038 A 
ATOM      6  C   UNL     1       0.006  -2.089   1.177  0.00  0.00    +0.021 A 
ATOM      7  C   UNL     1      -0.026  -0.698   1.180  0.00  0.00    -0.014 A 
ENDROOT
BRANCH   7   8
ATOM      8  C   UNL     1      -0.021   0.043   2.465  0.00  0.00    -0.018 A 
ATOM      9  C   UNL     1       0.876   1.092   2.661  0.00  0.00    +0.009 A 
ATOM     10  C   UNL     1       0.881   1.780   3.854  0.00  0.00    +0.010 A 
ATOM     11  C   UNL     1      -0.012   1.427   4.867  0.00  0.00    +0.001 A 
ATOM     12  C   UNL     1      -0.910   0.377   4.670  0.00  0.00    +0.010 A 
ATOM     13  C   UNL     1      -0.918  -0.307   3.474  0.00  0.00    +0.009 A 
BRANCH  11  14
ATOM     14  C   UNL     1      -0.006   2.166   6.151  0.00  0.00    +0.080 A 
ATOM     15  C   UNL     1      -0.874   1.823   7.149  0.00  0.00    +0.076 A 
ATOM     16  S   UNL     1      -0.424   3.013   8.406  0.00  0.00    -0.060 S 
ATOM     17  C   UNL     1       0.863   3.840   7.483  0.00  0.00    +0.156 A 
ATOM     18  N   UNL     1       0.849   3.168   6.347  0.00  0.00    -0.225 NA
ATOM     19  N   UNL     1       1.668   4.902   7.862  0.00  0.00    -0.338 N 
ATOM     20  H   UNL     1       1.567   5.298   8.742  0.00  0.00    +0.144 HD
ATOM     21  H   UNL     1       2.333   5.251   7.248  0.00  0.00    +0.144 HD
ENDBRANCH  11  14
ENDBRANCH   7   8
BRANCH   5  22
ATOM     22  C   UNL     1       0.046  -4.256  -0.047  0.00  0.00    +0.248 C 
ATOM     23  O   UNL     1       0.078  -4.872   1.001  0.00  0.00    -0.270 OA
ATOM     24  N   UNL     1       0.046  -4.920  -1.219  0.00  0.00    -0.281 N 
ATOM     25  H   UNL     1      -0.045  -4.433  -2.053  0.00  0.00    +0.155 HD
BRANCH  24  26
ATOM     26  C   UNL     1       0.178  -6.312  -1.234  0.00  0.00    +0.035 A 
ATOM     27  C   UNL     1      -0.396  -7.076  -0.225  0.00  0.00    +0.023 A 
ATOM     28  C   UNL     1      -0.266  -8.451  -0.239  0.00  0.00    +0.004 A 
ATOM     29  C   UNL     1       0.435  -9.072  -1.255  0.00  0.00    +0.023 A 
ATOM     30  C   UNL     1       1.012  -8.314  -2.267  0.00  0.00    +0.032 A 
ATOM     31  C   UNL     1       0.877  -6.933  -2.259  0.00  0.00    +0.046 A 
BRANCH  30  32
ATOM     32  N   UNL     1       1.721  -8.942  -3.293  0.00  0.00    -0.325 N 
ATOM     33  C   UNL     1       2.444  -8.156  -4.305  0.00  0.00    +0.133 C 
ATOM     34  C   UNL     1       3.876  -8.695  -4.403  0.00  0.00    +0.178 C 
ATOM     35  O   UNL     1       3.833 -10.110  -4.609  0.00  0.00    -0.377 OA
ATOM     36  C   UNL     1       3.231 -10.839  -3.537  0.00  0.00    +0.178 C 
ATOM     37  C   UNL     1       1.771 -10.410  -3.391  0.00  0.00    +0.133 C 
ENDBRANCH  30  32
ENDBRANCH  24  26
ENDBRANCH   5  22
TORSDOF 5
