REMARK  Name = CHEMBL338820
REMARK  5 active torsions:
REMARK  status: ('A' for Active; 'I' for Inactive)
REMARK    1  A    between atoms: C_1  and  S_2
REMARK    2  A    between atoms: S_2  and  C_3
REMARK    3  A    between atoms: C_8  and  N_9
REMARK    4  A    between atoms: C_12  and  C_20
REMARK    5  A    between atoms: C_13  and  C_14
REMARK                            x       y       z     vdW  Elec       q    Type
REMARK                         _______ _______ _______ _____ _____    ______ ____
ROOT
ATOM      1  N   UNL     1      -1.224  -2.980   0.139  0.00  0.00    -0.297 N 
ATOM      2  C   UNL     1      -0.998  -3.852  -0.877  0.00  0.00    +0.205 A 
ATOM      3  N   UNL     1       0.179  -4.395  -0.729  0.00  0.00    -0.235 NA
ATOM      4  C   UNL     1       0.766  -3.906   0.379  0.00  0.00    +0.097 A 
ATOM      5  C   UNL     1      -0.108  -2.997   0.947  0.00  0.00    +0.081 A 
ENDROOT
BRANCH   4   6
ATOM      6  C   UNL     1       2.107  -4.272   0.892  0.00  0.00    +0.003 A 
ATOM      7  C   UNL     1       2.900  -3.313   1.524  0.00  0.00    +0.013 A 
ATOM      8  C   UNL     1       4.147  -3.659   2.000  0.00  0.00    +0.039 A 
ATOM      9  C   UNL     1       4.613  -4.955   1.853  0.00  0.00    +0.123 A 
ATOM     10  C   UNL     1       3.829  -5.911   1.227  0.00  0.00    +0.039 A 
ATOM     11  C   UNL     1       2.578  -5.577   0.752  0.00  0.00    +0.013 A 
ATOM     12  F   UNL     1       5.836  -5.288   2.322  0.00  0.00    -0.205 F 
ENDBRANCH   4   6
BRANCH   1  18
ATOM     13  C   UNL     1      -3.216  -2.448   1.413  0.00  0.00    +0.031 A 
ATOM     14  C   UNL     1      -4.351  -1.670   1.597  0.00  0.00    +0.017 A 
ATOM     15  C   UNL     1      -4.649  -0.661   0.702  0.00  0.00    +0.001 A 
ATOM     16  C   UNL     1      -3.819  -0.422  -0.379  0.00  0.00    +0.002 A 
ATOM     17  C   UNL     1      -2.687  -1.191  -0.570  0.00  0.00    +0.027 A 
ATOM     18  C   UNL     1      -2.376  -2.202   0.327  0.00  0.00    +0.061 A 
BRANCH  13  20
ATOM     19  C   UNL     1      -4.184  -3.668   3.762  0.00  0.00    +0.090 C 
ATOM     20  S   UNL     1      -2.833  -3.736   2.553  0.00  0.00    -0.127 S 
ENDBRANCH  13  20
ENDBRANCH   1  18
BRANCH   5  21
ATOM     21  C   UNL     1       0.111  -2.205   2.173  0.00  0.00    +0.004 A 
ATOM     22  C   UNL     1      -0.031  -0.811   2.165  0.00  0.00    +0.030 A 
ATOM     23  C   UNL     1       0.182  -0.112   3.333  0.00  0.00    +0.111 A 
ATOM     24  N   UNL     1       0.515  -0.737   4.447  0.00  0.00    -0.263 NA
ATOM     25  C   UNL     1       0.659  -2.048   4.499  0.00  0.00    +0.111 A 
ATOM     26  C   UNL     1       0.460  -2.827   3.379  0.00  0.00    +0.030 A 
ENDBRANCH   5  21
TORSDOF 4
