REMARK  Name = CHEMBL609275
REMARK  6 active torsions:
REMARK  status: ('A' for Active; 'I' for Inactive)
REMARK    1  A    between atoms: C_1  and  C_2
REMARK    2  A    between atoms: C_2  and  C_3
REMARK    3  A    between atoms: C_2  and  C_4
REMARK    4  A    between atoms: C_2  and  C_5
REMARK    5  A    between atoms: C_11  and  S_14
REMARK    6  A    between atoms: S_14  and  C_15
REMARK                            x       y       z     vdW  Elec       q    Type
REMARK                         _______ _______ _______ _____ _____    ______ ____
ROOT
ATOM      1  C   UNL     1       0.670  -0.357  -1.407  0.00  0.00    +0.143 A 
ATOM      2  N   UNL     1       0.190  -1.166  -2.316  0.00  0.00    -0.133 NA
ATOM      3  N   UNL     1       1.112  -1.498  -3.149  0.00  0.00    -0.129 NA
ATOM      4  C   UNL     1       2.248  -0.908  -2.808  0.00  0.00    +0.161 A 
ATOM      5  N   UNL     1       1.986  -0.160  -1.688  0.00  0.00    -0.285 N 
ATOM      6  C   UNL     1       2.975   0.576  -1.099  0.00  0.00    +0.109 A 
ATOM      7  C   UNL     1       4.228   0.580  -1.617  0.00  0.00    +0.029 A 
ATOM      8  C   UNL     1       4.522  -0.177  -2.770  0.00  0.00    +0.020 A 
ATOM      9  C   UNL     1       3.545  -0.919  -3.356  0.00  0.00    +0.050 A 
ENDROOT
BRANCH   1  11
ATOM     10  C   UNL     1      -0.060   1.776  -0.374  0.00  0.00    +0.019 C 
ATOM     11  C   UNL     1      -0.097   0.251  -0.261  0.00  0.00    +0.023 C 
ATOM     12  C   UNL     1       0.540  -0.178   1.063  0.00  0.00    +0.019 C 
ATOM     13  C   UNL     1      -1.549  -0.229  -0.307  0.00  0.00    +0.019 C 
ENDBRANCH   1  11
BRANCH   7  14
ATOM     14  S   UNL     1       5.493   1.535  -0.848  0.00  0.00    -0.085 S 
BRANCH  14  15
ATOM     15  C   UNL     1       5.877   2.774  -2.040  0.00  0.00    +0.048 A 
ATOM     16  C   UNL     1       5.123   2.879  -3.202  0.00  0.00    +0.021 A 
ATOM     17  C   UNL     1       5.425   3.851  -4.136  0.00  0.00    +0.039 A 
ATOM     18  C   UNL     1       6.479   4.722  -3.915  0.00  0.00    +0.126 A 
ATOM     19  C   UNL     1       7.234   4.621  -2.758  0.00  0.00    +0.077 A 
ATOM     20  C   UNL     1       6.931   3.653  -1.817  0.00  0.00    +0.140 A 
ATOM     21  F   UNL     1       7.663   3.559  -0.686  0.00  0.00    -0.204 F 
ATOM     22  F   UNL     1       6.772   5.671  -4.830  0.00  0.00    -0.205 F 
ENDBRANCH  14  15
ENDBRANCH   7  14
TORSDOF 3
