REMARK  Name = CHEMBL215651
REMARK  3 active torsions:
REMARK  status: ('A' for Active; 'I' for Inactive)
REMARK    1  A    between atoms: C_5  and  C_7
REMARK    2  A    between atoms: N_13  and  N_14
REMARK    3  A    between atoms: N_20  and  C_25
REMARK                            x       y       z     vdW  Elec       q    Type
REMARK                         _______ _______ _______ _____ _____    ______ ____
ROOT
ATOM      1  C   UNL     1       1.246  -2.165  -0.023  0.00  0.00    +0.084 A 
ATOM      2  C   UNL     1       0.074  -2.896   0.082  0.00  0.00    +0.036 A 
ATOM      3  C   UNL     1       0.131  -4.288   0.070  0.00  0.00    +0.144 A 
ATOM      4  N   UNL     1       1.316  -4.877  -0.043  0.00  0.00    -0.197 NA
ATOM      5  C   UNL     1       2.421  -4.152  -0.142  0.00  0.00    +0.232 A 
ATOM      6  N   UNL     1       2.401  -2.828  -0.138  0.00  0.00    -0.213 NA
ATOM      7  N   UNL     1       3.638  -4.801  -0.258  0.00  0.00    -0.246 N 
ATOM      8  N   UNL     1      -1.037  -5.026   0.176  0.00  0.00    -0.205 N 
ATOM      9  C   UNL     1      -2.248  -4.464   0.292  0.00  0.00    +0.312 C 
ATOM     10  O   UNL     1      -3.217  -5.192   0.380  0.00  0.00    -0.252 OA
ATOM     11  N   UNL     1      -2.442  -3.133   0.317  0.00  0.00    -0.294 N 
ATOM     12  C   UNL     1      -1.276  -2.237   0.211  0.00  0.00    +0.146 C 
ATOM     13  H   UNL     1       3.672  -5.770  -0.266  0.00  0.00    +0.169 HD
ATOM     14  H   UNL     1      -3.337  -2.768   0.402  0.00  0.00    +0.151 HD
ENDROOT
BRANCH   8  15
ATOM     15  C   UNL     1      -0.948  -6.425   0.161  0.00  0.00    +0.081 A 
ATOM     16  C   UNL     1      -1.011  -7.113  -1.045  0.00  0.00    +0.064 A 
ATOM     17  C   UNL     1      -0.922  -8.493  -1.056  0.00  0.00    +0.022 A 
ATOM     18  C   UNL     1      -0.773  -9.188   0.130  0.00  0.00    +0.003 A 
ATOM     19  C   UNL     1      -0.711  -8.506   1.331  0.00  0.00    +0.022 A 
ATOM     20  C   UNL     1      -0.792  -7.126   1.350  0.00  0.00    +0.064 A 
ATOM     21 CL   UNL     1      -0.706  -6.271   2.858  0.00  0.00    -0.082 Cl
ATOM     22 CL   UNL     1      -1.199  -6.242  -2.534  0.00  0.00    -0.082 Cl
ENDBRANCH   8  15
BRANCH   1  27
ATOM     23  C   UNL     1       0.573   1.380   1.032  0.00  0.00    +0.001 A 
ATOM     24  C   UNL     1       1.169   2.087   0.003  0.00  0.00    +0.001 A 
ATOM     25  C   UNL     1       1.791   1.417  -1.034  0.00  0.00    +0.020 A 
ATOM     26  C   UNL     1       1.819   0.035  -1.049  0.00  0.00    +0.050 A 
ATOM     27  C   UNL     1       1.220  -0.682  -0.014  0.00  0.00    +0.019 A 
ATOM     28  C   UNL     1       0.596   0.000   1.029  0.00  0.00    +0.011 A 
ATOM     29 CL   UNL     1       2.599  -0.805  -2.352  0.00  0.00    -0.083 Cl
ENDBRANCH   1  27
BRANCH   7  30
ATOM     30  N   UNL     1       4.792  -4.076  -0.362  0.00  0.00    -0.223 NA
ATOM     31  C   UNL     1       5.444  -4.308  -1.659  0.00  0.00    +0.133 C 
ATOM     32  C   UNL     1       6.697  -3.434  -1.757  0.00  0.00    +0.177 C 
ATOM     33  O   UNL     1       7.562  -3.725  -0.656  0.00  0.00    -0.377 OA
ATOM     34  C   UNL     1       6.959  -3.509   0.623  0.00  0.00    +0.177 C 
ATOM     35  C   UNL     1       5.709  -4.384   0.745  0.00  0.00    +0.133 C 
ENDBRANCH   7  30
TORSDOF 3
