REMARK  Name = CHEMBL279416
REMARK  3 active torsions:
REMARK  status: ('A' for Active; 'I' for Inactive)
REMARK    1  A    between atoms: C_6  and  C_7
REMARK    2  A    between atoms: C_8  and  C_18
REMARK    3  A    between atoms: N_9  and  C_12
REMARK                            x       y       z     vdW  Elec       q    Type
REMARK                         _______ _______ _______ _____ _____    ______ ____
ROOT
ATOM      1  C   UNL     1      -1.269  -0.765   0.011  0.00  0.00    +0.097 A 
ATOM      2  C   UNL     1      -1.508  -1.968  -0.628  0.00  0.00    +0.077 A 
ATOM      3  N   UNL     1      -2.815  -2.299  -0.346  0.00  0.00    -0.327 N 
ATOM      4  C   UNL     1      -3.319  -1.318   0.432  0.00  0.00    +0.200 A 
ATOM      5  N   UNL     1      -2.403  -0.415   0.646  0.00  0.00    -0.235 NA
ENDROOT
BRANCH   3   6
ATOM      6  C   UNL     1      -3.526  -3.494  -0.807  0.00  0.00    +0.085 C 
ATOM      7  C   UNL     1      -4.749  -3.076  -1.629  0.00  0.00    +0.006 C 
ATOM      8  C   UNL     1      -5.532  -4.326  -2.039  0.00  0.00    -0.081 C 
ATOM      9  N   UNL     1      -5.970  -5.049  -0.839  0.00  0.00    +0.379 N 
ATOM     10  C   UNL     1      -4.801  -5.514  -0.083  0.00  0.00    -0.081 C 
ATOM     11  C   UNL     1      -3.991  -4.311   0.403  0.00  0.00    +0.006 C 
ATOM     12  H   UNL     1      -6.521  -4.434  -0.260  0.00  0.00    -0.086 HD
ATOM     13  H   UNL     1      -6.531  -5.843  -1.112  0.00  0.00    -0.086 HD
ENDBRANCH   3   6
BRANCH   1  19
ATOM     14  C   UNL     1      -0.017   1.390   0.010  0.00  0.00    +0.013 A 
ATOM     15  C   UNL     1       1.170   2.094   0.002  0.00  0.00    +0.039 A 
ATOM     16  C   UNL     1       2.379   1.418  -0.013  0.00  0.00    +0.123 A 
ATOM     17  C   UNL     1       2.403   0.032  -0.021  0.00  0.00    +0.039 A 
ATOM     18  C   UNL     1       1.222  -0.680  -0.013  0.00  0.00    +0.013 A 
ATOM     19  C   UNL     1       0.002  -0.004   0.002  0.00  0.00    +0.003 A 
ATOM     20  F   UNL     1       3.538   2.111  -0.022  0.00  0.00    -0.205 F 
ENDBRANCH   1  19
BRANCH   2  21
ATOM     21  C   UNL     1      -0.556  -2.742  -1.448  0.00  0.00    +0.003 A 
ATOM     22  C   UNL     1      -0.435  -4.129  -1.295  0.00  0.00    +0.030 A 
ATOM     23  C   UNL     1       0.468  -4.812  -2.081  0.00  0.00    +0.111 A 
ATOM     24  N   UNL     1       1.212  -4.176  -2.967  0.00  0.00    -0.263 NA
ATOM     25  C   UNL     1       1.131  -2.870  -3.143  0.00  0.00    +0.111 A 
ATOM     26  C   UNL     1       0.250  -2.110  -2.404  0.00  0.00    +0.030 A 
ENDBRANCH   2  21
TORSDOF 3
