REMARK  Name = CHEMBL104749
REMARK  11 active torsions:
REMARK  status: ('A' for Active; 'I' for Inactive)
REMARK    1  A    between atoms: C_1  and  C_2
REMARK    2  A    between atoms: C_2  and  C_3
REMARK    3  A    between atoms: C_2  and  C_4
REMARK    4  A    between atoms: C_2  and  C_5
REMARK    5  A    between atoms: C_7  and  N_11
REMARK    6  A    between atoms: N_8  and  C_10
REMARK    7  A    between atoms: N_14  and  C_15
REMARK    8  A    between atoms: C_18  and  O_25
REMARK    9  A    between atoms: O_25  and  C_26
REMARK   10  A    between atoms: C_26  and  C_27
REMARK   11  A    between atoms: C_27  and  N_28
REMARK                            x       y       z     vdW  Elec       q    Type
REMARK                         _______ _______ _______ _____ _____    ______ ____
ROOT
ATOM      1  C   UNL     1       7.498  -0.648  -3.007  0.00  0.00    +0.043 A 
ATOM      2  C   UNL     1       7.360  -0.200  -1.711  0.00  0.00    +0.027 A 
ATOM      3  C   UNL     1       8.448   0.324  -1.019  0.00  0.00    +0.048 A 
ATOM      4  C   UNL     1       9.680   0.409  -1.603  0.00  0.00    +0.128 A 
ATOM      5  C   UNL     1       9.860  -0.039  -2.927  0.00  0.00    +0.026 A 
ATOM      6  C   UNL     1       8.758  -0.579  -3.636  0.00  0.00    +0.007 A 
ATOM      7  C   UNL     1       8.940  -1.029  -4.953  0.00  0.00    +0.010 A 
ATOM      8  C   UNL     1      10.171  -0.947  -5.530  0.00  0.00    +0.001 A 
ATOM      9  C   UNL     1      11.256  -0.421  -4.831  0.00  0.00    +0.001 A 
ATOM     10  C   UNL     1      11.114   0.036  -3.556  0.00  0.00    +0.012 A 
ENDROOT
BRANCH   1  14
ATOM     11  N   UNL     1       4.118  -1.112  -4.196  0.00  0.00    -0.254 N 
ATOM     12  C   UNL     1       5.164  -0.672  -3.470  0.00  0.00    +0.309 C 
ATOM     13  O   UNL     1       4.997   0.176  -2.614  0.00  0.00    -0.252 OA
ATOM     14  N   UNL     1       6.396  -1.172  -3.691  0.00  0.00    -0.269 N 
ATOM     15  H   UNL     1       4.251  -1.788  -4.879  0.00  0.00    +0.158 HD
ATOM     16  H   UNL     1       6.519  -1.896  -4.326  0.00  0.00    +0.156 HD
BRANCH  11  19
ATOM     17  C   UNL     1       1.139   0.585  -3.146  0.00  0.00    +0.070 A 
ATOM     18  C   UNL     1       2.513   0.353  -3.047  0.00  0.00    +0.069 A 
ATOM     19  C   UNL     1       2.843  -0.595  -3.967  0.00  0.00    +0.124 A 
ATOM     20  N   UNL     1       1.710  -0.943  -4.618  0.00  0.00    -0.253 N 
ATOM     21  N   UNL     1       0.656  -0.193  -4.081  0.00  0.00    -0.174 NA
ATOM     22  C   UNL     1       1.603  -1.933  -5.692  0.00  0.00    +0.174 C 
BRANCH  17  24
ATOM     23  C   UNL     1       0.620   2.985  -2.798  0.00  0.00    +0.017 C 
ATOM     24  C   UNL     1       0.346   1.560  -2.313  0.00  0.00    +0.006 C 
ATOM     25  C   UNL     1       0.761   1.432  -0.846  0.00  0.00    +0.017 C 
ATOM     26  C   UNL     1      -1.146   1.252  -2.450  0.00  0.00    +0.017 C 
ENDBRANCH  17  24
ENDBRANCH  11  19
ENDBRANCH   1  14
BRANCH   4  27
ATOM     27  O   UNL     1      10.729   0.925  -0.910  0.00  0.00    -0.493 OA
BRANCH  27  28
ATOM     28  C   UNL     1      10.472   1.359   0.427  0.00  0.00    +0.210 C 
BRANCH  28  29
ATOM     29  C   UNL     1      11.762   1.905   1.042  0.00  0.00    -0.037 C 
BRANCH  29  30
ATOM     30  N   UNL     1      12.198   3.092   0.293  0.00  0.00    +0.385 N 
ATOM     31  C   UNL     1      13.509   3.531   0.791  0.00  0.00    -0.050 C 
ATOM     32  C   UNL     1      13.961   4.767   0.009  0.00  0.00    +0.141 C 
ATOM     33  O   UNL     1      12.976   5.796   0.143  0.00  0.00    -0.383 OA
ATOM     34  C   UNL     1      11.675   5.407  -0.306  0.00  0.00    +0.141 C 
ATOM     35  C   UNL     1      11.219   4.173   0.475  0.00  0.00    -0.050 C 
ATOM     36  H   UNL     1      12.269   2.863  -0.687  0.00  0.00    -0.081 HD
ENDBRANCH  29  30
ENDBRANCH  28  29
ENDBRANCH  27  28
ENDBRANCH   4  27
TORSDOF 7
