REMARK  Name = CHEMBL576985
REMARK  7 active torsions:
REMARK  status: ('A' for Active; 'I' for Inactive)
REMARK    1  A    between atoms: C_1  and  C_2
REMARK    2  A    between atoms: C_7  and  C_8
REMARK    3  A    between atoms: N_18  and  C_19
REMARK    4  A    between atoms: C_23  and  N_24
REMARK    5  A    between atoms: N_24  and  C_25
REMARK    6  A    between atoms: C_34  and  C_35
REMARK    7  A    between atoms: C_34  and  C_36
REMARK                            x       y       z     vdW  Elec       q    Type
REMARK                         _______ _______ _______ _____ _____    ______ ____
ROOT
ATOM      1  C   UNL     1      -1.479   1.361  -0.241  0.00  0.00    +0.044 C 
ATOM      2  C   UNL     1      -1.204  -0.120  -0.204  0.00  0.00    -0.042 A 
ATOM      3  C   UNL     1      -0.713  -0.757  -1.337  0.00  0.00    +0.004 A 
ATOM      4  C   UNL     1      -0.453  -2.096  -1.339  0.00  0.00    +0.012 A 
ATOM      5  C   UNL     1      -0.680  -2.854  -0.182  0.00  0.00    +0.021 A 
ATOM      6  C   UNL     1      -1.179  -2.220   0.983  0.00  0.00    -0.005 A 
ATOM      7  C   UNL     1      -1.437  -0.832   0.962  0.00  0.00    -0.007 A 
ATOM      8  C   UNL     1      -1.397  -3.005   2.128  0.00  0.00    +0.026 A 
ATOM      9  C   UNL     1      -1.121  -4.337   2.076  0.00  0.00    +0.085 A 
ATOM     10  N   UNL     1      -0.654  -4.914   0.977  0.00  0.00    -0.349 N 
ATOM     11  C   UNL     1      -0.425  -4.243  -0.136  0.00  0.00    +0.108 A 
ATOM     12  H   UNL     1      -0.473  -5.867   0.992  0.00  0.00    +0.167 HD
ENDROOT
BRANCH   7  13
ATOM     13  C   UNL     1      -1.954  -0.147   2.168  0.00  0.00    -0.016 A 
ATOM     14  C   UNL     1      -1.154  -0.066   3.321  0.00  0.00    +0.010 A 
ATOM     15  C   UNL     1      -1.605   0.557   4.442  0.00  0.00    +0.029 A 
ATOM     16  C   UNL     1      -2.886   1.131   4.457  0.00  0.00    +0.076 A 
ATOM     17  C   UNL     1      -3.702   1.055   3.299  0.00  0.00    +0.019 A 
ATOM     18  C   UNL     1      -3.220   0.414   2.151  0.00  0.00    +0.020 A 
ATOM     19  C   UNL     1      -4.983   1.639   3.343  0.00  0.00    +0.124 A 
ATOM     20  N   UNL     1      -5.366   2.229   4.455  0.00  0.00    -0.222 NA
ATOM     21  C   UNL     1      -4.573   2.282   5.524  0.00  0.00    +0.215 A 
ATOM     22  N   UNL     1      -3.365   1.752   5.542  0.00  0.00    -0.215 NA
ATOM     23  N   UNL     1      -5.036   2.917   6.662  0.00  0.00    -0.317 N 
ATOM     24  C   UNL     1      -6.373   3.515   6.675  0.00  0.00    +0.128 C 
ATOM     25  H   UNL     1      -4.474   2.967   7.452  0.00  0.00    +0.149 HD
ENDBRANCH   7  13
BRANCH  11  26
ATOM     26  N   UNL     1       0.063  -4.898  -1.255  0.00  0.00    -0.300 N 
ATOM     27  H   UNL     1       0.318  -4.390  -2.042  0.00  0.00    +0.154 HD
BRANCH  26  28
ATOM     28  C   UNL     1       0.188  -6.290  -1.251  0.00  0.00    +0.034 A 
ATOM     29  C   UNL     1      -0.814  -7.074  -0.692  0.00  0.00    +0.024 A 
ATOM     30  C   UNL     1      -0.688  -8.450  -0.690  0.00  0.00    +0.008 A 
ATOM     31  C   UNL     1       0.428  -9.041  -1.241  0.00  0.00    -0.012 A 
ATOM     32  C   UNL     1       1.439  -8.271  -1.804  0.00  0.00    +0.039 A 
ATOM     33  C   UNL     1       1.308  -6.885  -1.811  0.00  0.00    +0.047 A 
ATOM     34  N   UNL     1       2.456  -9.092  -2.292  0.00  0.00    -0.284 N 
ATOM     35  C   UNL     1       2.197 -10.395  -2.093  0.00  0.00    +0.227 C 
ATOM     36  O   UNL     1       2.903 -11.327  -2.414  0.00  0.00    -0.275 OA
ATOM     37  C   UNL     1       0.858 -10.482  -1.393  0.00  0.00    +0.068 C 
ATOM     38  C   UNL     1      -0.147 -11.253  -2.251  0.00  0.00    +0.025 C 
ATOM     39  C   UNL     1       1.011 -11.143  -0.021  0.00  0.00    +0.025 C 
ATOM     40  H   UNL     1       3.258  -8.760  -2.725  0.00  0.00    +0.155 HD
ENDBRANCH  26  28
ENDBRANCH  11  26
TORSDOF 3
