REMARK  Name = CHEMBL1209838
REMARK  9 active torsions:
REMARK  status: ('A' for Active; 'I' for Inactive)
REMARK    1  A    between atoms: C_7  and  C_20
REMARK    2  A    between atoms: C_10  and  O_11
REMARK    3  A    between atoms: O_11  and  C_12
REMARK    4  A    between atoms: C_12  and  C_13
REMARK    5  A    between atoms: C_13  and  N_14
REMARK    6  A    between atoms: C_20  and  C_22
REMARK    7  A    between atoms: N_24  and  C_25
REMARK    8  A    between atoms: C_27  and  C_37
REMARK    9  A    between atoms: C_29  and  N_31
REMARK                            x       y       z     vdW  Elec       q    Type
REMARK                         _______ _______ _______ _____ _____    ______ ____
ROOT
ATOM      1  C   UNL     1       0.415  -2.967   0.619  0.00  0.00    +0.248 C 
ATOM      2  O   UNL     1      -0.565  -2.262   0.763  0.00  0.00    -0.282 OA
ENDROOT
BRANCH   1   9
ATOM      3  C   UNL     1       1.022   1.292   0.746  0.00  0.00    +0.001 A 
ATOM      4  C   UNL     1       2.308   1.823   0.759  0.00  0.00    +0.001 A 
ATOM      5  C   UNL     1       3.402   1.010   0.731  0.00  0.00    +0.012 A 
ATOM      6  C   UNL     1       3.231  -0.382   0.690  0.00  0.00    +0.024 A 
ATOM      7  C   UNL     1       1.923  -0.919   0.677  0.00  0.00    -0.003 A 
ATOM      8  C   UNL     1       0.822  -0.058   0.705  0.00  0.00    +0.009 A 
ATOM      9  C   UNL     1       1.753  -2.373   0.633  0.00  0.00    +0.035 A 
ATOM     10  C   UNL     1       2.891  -3.184   0.606  0.00  0.00    +0.016 A 
ATOM     11  C   UNL     1       4.153  -2.625   0.620  0.00  0.00    +0.047 A 
ATOM     12  C   UNL     1       4.340  -1.256   0.661  0.00  0.00    +0.128 A 
BRANCH  12  13
ATOM     13  O   UNL     1       5.596  -0.749   0.672  0.00  0.00    -0.490 OA
BRANCH  13  14
ATOM     14  C   UNL     1       6.674  -1.687   0.642  0.00  0.00    +0.244 C 
BRANCH  14  15
ATOM     15  C   UNL     1       8.005  -0.933   0.660  0.00  0.00    +0.125 C 
BRANCH  15  16
ATOM     16  N   UNL     1       8.155  -0.235   1.944  0.00  0.00    -0.295 NA
ATOM     17  C   UNL     1       9.157   0.837   1.848  0.00  0.00    +0.112 C 
ATOM     18  C   UNL     1       9.237   1.575   3.186  0.00  0.00    +0.175 C 
ATOM     19  O   UNL     1       9.543   0.639   4.223  0.00  0.00    -0.377 OA
ATOM     20  C   UNL     1       8.588  -0.417   4.346  0.00  0.00    +0.175 C 
ATOM     21  C   UNL     1       8.500  -1.176   3.019  0.00  0.00    +0.112 C 
ENDBRANCH  15  16
ENDBRANCH  14  15
ENDBRANCH  13  14
ENDBRANCH  12  13
ENDBRANCH   1   9
BRANCH   1  22
ATOM     22  C   UNL     1       0.253  -4.436   0.429  0.00  0.00    +0.289 C 
ATOM     23  O   UNL     1       1.220  -5.125   0.173  0.00  0.00    -0.266 OA
ATOM     24  N   UNL     1      -0.966  -5.000   0.541  0.00  0.00    -0.279 N 
ATOM     25  H   UNL     1      -1.748  -4.442   0.672  0.00  0.00    +0.155 HD
BRANCH  24  26
ATOM     26  C   UNL     1      -1.102  -6.389   0.467  0.00  0.00    +0.037 A 
ATOM     27  C   UNL     1      -0.111  -7.211   0.984  0.00  0.00    +0.042 A 
ATOM     28  C   UNL     1      -0.249  -8.598   0.911  0.00  0.00    +0.055 A 
ATOM     29  C   UNL     1      -1.383  -9.153   0.317  0.00  0.00    +0.042 A 
ATOM     30  C   UNL     1      -2.370  -8.325  -0.197  0.00  0.00    +0.033 A 
ATOM     31  C   UNL     1      -2.232  -6.945  -0.118  0.00  0.00    +0.046 A 
BRANCH  30  32
ATOM     32  N   UNL     1      -3.506  -8.880  -0.792  0.00  0.00    -0.325 N 
ATOM     33  C   UNL     1      -4.503  -8.028  -1.460  0.00  0.00    +0.133 C 
ATOM     34  C   UNL     1      -4.773  -8.603  -2.855  0.00  0.00    +0.178 C 
ATOM     35  O   UNL     1      -5.098  -9.991  -2.738  0.00  0.00    -0.377 OA
ATOM     36  C   UNL     1      -4.047 -10.795  -2.198  0.00  0.00    +0.178 C 
ATOM     37  C   UNL     1      -3.737 -10.333  -0.774  0.00  0.00    +0.133 C 
ENDBRANCH  30  32
BRANCH  28  38
ATOM     38  C   UNL     1       0.772  -9.449   1.443  0.00  0.00    +0.099 C 
ATOM     39  N   UNL     1       1.582 -10.125   1.865  0.00  0.00    -0.191 NA
ENDBRANCH  28  38
ENDBRANCH  24  26
ENDBRANCH   1  22
TORSDOF 9
