REMARK  Name = CHEMBL485286
REMARK  5 active torsions:
REMARK  status: ('A' for Active; 'I' for Inactive)
REMARK    1  A    between atoms: C_1  and  C_2
REMARK    2  A    between atoms: C_5  and  N_23
REMARK    3  A    between atoms: C_7  and  C_8
REMARK    4  A    between atoms: C_16  and  C_17
REMARK    5  A    between atoms: C_24  and  C_26
REMARK                            x       y       z     vdW  Elec       q    Type
REMARK                         _______ _______ _______ _____ _____    ______ ____
ROOT
ATOM      1  C   UNL     1      -0.044   1.502   0.029  0.00  0.00    +0.044 C 
ATOM      2  C   UNL     1      -0.017  -0.004   0.016  0.00  0.00    -0.043 A 
ATOM      3  C   UNL     1      -0.004  -0.684  -1.186  0.00  0.00    +0.006 A 
ATOM      4  C   UNL     1       0.021  -2.066  -1.204  0.00  0.00    +0.023 A 
ATOM      5  C   UNL     1       0.033  -2.779  -0.011  0.00  0.00    +0.034 A 
ATOM      6  C   UNL     1       0.020  -2.104   1.200  0.00  0.00    +0.032 A 
ATOM      7  C   UNL     1       0.001  -0.712   1.217  0.00  0.00    -0.013 A 
ENDROOT
BRANCH   7   8
ATOM      8  C   UNL     1      -0.007   0.017   2.509  0.00  0.00    -0.014 A 
ATOM      9  C   UNL     1       0.901   1.059   2.726  0.00  0.00    +0.009 A 
ATOM     10  C   UNL     1       0.904   1.736   3.909  0.00  0.00    +0.014 A 
ATOM     11  C   UNL     1      -0.005   1.390   4.914  0.00  0.00    +0.045 A 
ATOM     12  C   UNL     1      -0.921   0.344   4.705  0.00  0.00    +0.168 A 
ATOM     13  C   UNL     1      -0.920  -0.335   3.495  0.00  0.00    +0.058 A 
ATOM     14  O   UNL     1      -1.661   0.235   5.827  0.00  0.00    -0.354 OA
ATOM     15  N   UNL     1      -1.234   1.203   6.765  0.00  0.00    -0.082 NA
ATOM     16  C   UNL     1      -0.261   1.900   6.263  0.00  0.00    +0.094 A 
BRANCH  16  17
ATOM     17  C   UNL     1       0.471   3.027   6.944  0.00  0.00    +0.038 C 
ATOM     18  C   UNL     1       1.122   2.512   8.231  0.00  0.00    -0.009 C 
ATOM     19  C   UNL     1       1.797   3.678   8.958  0.00  0.00    -0.082 C 
ATOM     20  N   UNL     1       0.794   4.698   9.289  0.00  0.00    +0.379 N 
ATOM     21  C   UNL     1       0.217   5.248   8.057  0.00  0.00    -0.082 C 
ATOM     22  C   UNL     1      -0.518   4.143   7.296  0.00  0.00    -0.009 C 
ATOM     23  H   UNL     1       0.063   4.281   9.845  0.00  0.00    -0.086 HD
ATOM     24  H   UNL     1       1.232   5.439   9.815  0.00  0.00    -0.086 HD
ENDBRANCH  16  17
ENDBRANCH   7   8
BRANCH   5  25
ATOM     25  N   UNL     1       0.057  -4.177  -0.032  0.00  0.00    -0.281 N 
ATOM     26  C   UNL     1       0.740  -4.854   0.912  0.00  0.00    +0.248 C 
ATOM     27  O   UNL     1       1.264  -4.254   1.830  0.00  0.00    -0.270 OA
ATOM     28  H   UNL     1      -0.417  -4.660  -0.727  0.00  0.00    +0.155 HD
BRANCH  26  29
ATOM     29  C   UNL     1       0.852  -6.329   0.832  0.00  0.00    +0.042 A 
ATOM     30  C   UNL     1       0.260  -7.038  -0.221  0.00  0.00    +0.033 A 
ATOM     31  C   UNL     1       0.387  -8.411  -0.261  0.00  0.00    +0.113 A 
ATOM     32  N   UNL     1       1.054  -9.060   0.674  0.00  0.00    -0.240 NA
ATOM     33  C   UNL     1       1.629  -8.432   1.687  0.00  0.00    +0.122 A 
ATOM     34  C   UNL     1       1.554  -7.048   1.800  0.00  0.00    +0.056 A 
ATOM     35  N   UNL     1       2.321  -9.164   2.646  0.00  0.00    -0.315 N 
ATOM     36  C   UNL     1       2.581 -10.610   2.597  0.00  0.00    +0.106 C 
ATOM     37  C   UNL     1       3.355 -10.980   3.880  0.00  0.00    +0.020 C 
ATOM     38  C   UNL     1       2.993  -9.823   4.849  0.00  0.00    +0.020 C 
ATOM     39  C   UNL     1       2.920  -8.617   3.877  0.00  0.00    +0.106 C 
ENDBRANCH  26  29
ENDBRANCH   5  25
TORSDOF 4
