REMARK  Name = CHEMBL120587
REMARK  6 active torsions:
REMARK  status: ('A' for Active; 'I' for Inactive)
REMARK    1  A    between atoms: C_1  and  C_2
REMARK    2  A    between atoms: C_2  and  O_3
REMARK    3  A    between atoms: O_3  and  C_4
REMARK    4  A    between atoms: C_8  and  C_14
REMARK    5  A    between atoms: C_18  and  C_19
REMARK    6  A    between atoms: C_23  and  C_25
REMARK                            x       y       z     vdW  Elec       q    Type
REMARK                         _______ _______ _______ _____ _____    ______ ____
ROOT
ATOM      1  C   UNL     1      -0.792  -6.926  -0.021  0.00  0.00    +0.033 A 
ATOM      2  C   UNL     1      -0.146  -7.440   1.071  0.00  0.00    +0.048 A 
ATOM      3  N   UNL     1       0.854  -8.227   0.639  0.00  0.00    -0.267 N 
ATOM      4  N   UNL     1       0.866  -8.224  -0.767  0.00  0.00    -0.169 NA
ATOM      5  C   UNL     1      -0.111  -7.460  -1.200  0.00  0.00    +0.119 A 
ATOM      6  C   UNL     1       1.585  -8.819   1.774  0.00  0.00    +0.144 C 
ATOM      7  C   UNL     1       1.203  -7.966   3.003  0.00  0.00    +0.029 C 
ATOM      8  C   UNL     1      -0.180  -7.417   2.585  0.00  0.00    +0.057 C 
ENDROOT
BRANCH   1  13
ATOM      9  C   UNL     1      -1.498  -1.848   0.006  0.00  0.00    +0.123 A 
ATOM     10  C   UNL     1      -0.372  -2.677  -0.003  0.00  0.00    +0.046 A 
ATOM     11  C   UNL     1      -0.506  -4.031  -0.009  0.00  0.00    +0.014 A 
ATOM     12  C   UNL     1      -1.784  -4.607  -0.005  0.00  0.00    +0.008 A 
ATOM     13  C   UNL     1      -1.956  -6.014  -0.011  0.00  0.00    -0.003 A 
ATOM     14  C   UNL     1      -3.255  -6.509  -0.006  0.00  0.00    +0.029 A 
ATOM     15  C   UNL     1      -4.327  -5.625   0.003  0.00  0.00    +0.112 A 
ATOM     16  N   UNL     1      -4.152  -4.325   0.007  0.00  0.00    -0.255 NA
ATOM     17  C   UNL     1      -2.931  -3.777   0.004  0.00  0.00    +0.075 A 
ATOM     18  C   UNL     1      -2.766  -2.382   0.016  0.00  0.00    +0.074 A 
BRANCH   9  19
ATOM     19  O   UNL     1      -1.339  -0.499   0.012  0.00  0.00    -0.492 OA
BRANCH  19  21
ATOM     20  C   UNL     1      -0.019   1.526   0.010  0.00  0.00    +0.048 C 
ATOM     21  C   UNL     1       0.002  -0.004   0.002  0.00  0.00    +0.225 C 
ENDBRANCH  19  21
ENDBRANCH   9  19
ENDBRANCH   1  13
BRANCH   5  22
ATOM     22  C   UNL     1      -0.455  -7.188  -2.616  0.00  0.00    +0.092 A 
ATOM     23  C   UNL     1       0.523  -7.312  -3.601  0.00  0.00    +0.030 A 
ATOM     24  C   UNL     1       0.187  -7.054  -4.918  0.00  0.00    +0.004 A 
ATOM     25  C   UNL     1      -1.119  -6.681  -5.208  0.00  0.00    +0.023 A 
ATOM     26  C   UNL     1      -2.038  -6.578  -4.181  0.00  0.00    +0.039 A 
ATOM     27  N   UNL     1      -1.693  -6.834  -2.936  0.00  0.00    -0.250 NA
ATOM     28  C   UNL     1      -3.456  -6.172  -4.491  0.00  0.00    +0.065 C 
ENDBRANCH   5  22
TORSDOF 4
