REMARK  Name = CHEMBL84928
REMARK  8 active torsions:
REMARK  status: ('A' for Active; 'I' for Inactive)
REMARK    1  A    between atoms: C_1  and  C_2
REMARK    2  A    between atoms: C_2  and  C_3
REMARK    3  A    between atoms: C_2  and  C_4
REMARK    4  A    between atoms: C_2  and  C_5
REMARK    5  A    between atoms: C_7  and  N_16
REMARK    6  A    between atoms: N_8  and  C_10
REMARK    7  A    between atoms: N_19  and  C_20
REMARK    8  A    between atoms: C_20  and  C_21
REMARK                            x       y       z     vdW  Elec       q    Type
REMARK                         _______ _______ _______ _____ _____    ______ ____
ROOT
ATOM      1  C   UNL     1       0.707  -0.490  -1.238  0.00  0.00    +0.071 A 
ATOM      2  C   UNL     1       2.089  -0.471  -1.452  0.00  0.00    +0.069 A 
ATOM      3  C   UNL     1       2.327  -0.993  -2.687  0.00  0.00    +0.130 A 
ATOM      4  N   UNL     1       1.124  -1.329  -3.227  0.00  0.00    -0.218 N 
ATOM      5  N   UNL     1       0.131  -1.007  -2.293  0.00  0.00    -0.169 NA
ENDROOT
BRANCH   4   6
ATOM      6  C   UNL     1       0.916  -1.901  -4.489  0.00  0.00    +0.067 A 
ATOM      7  C   UNL     1       1.736  -1.552  -5.554  0.00  0.00    +0.028 A 
ATOM      8  C   UNL     1       1.528  -2.117  -6.798  0.00  0.00    +0.002 A 
ATOM      9  C   UNL     1       0.506  -3.030  -6.982  0.00  0.00    +0.000 A 
ATOM     10  C   UNL     1      -0.312  -3.379  -5.923  0.00  0.00    +0.002 A 
ATOM     11  C   UNL     1      -0.106  -2.822  -4.676  0.00  0.00    +0.028 A 
ENDBRANCH   4   6
BRANCH   3  12
ATOM     12  N   UNL     1       3.575  -1.154  -3.288  0.00  0.00    -0.254 N 
ATOM     13  C   UNL     1       4.691  -0.775  -2.634  0.00  0.00    +0.305 C 
ATOM     14  O   UNL     1       4.610  -0.293  -1.521  0.00  0.00    -0.252 OA
ATOM     15  N   UNL     1       5.898  -0.931  -3.215  0.00  0.00    -0.295 N 
ATOM     16  H   UNL     1       3.640  -1.538  -4.176  0.00  0.00    +0.158 HD
ATOM     17  H   UNL     1       5.963  -1.315  -4.103  0.00  0.00    +0.151 HD
BRANCH  15  18
ATOM     18  C   UNL     1       7.111  -0.519  -2.505  0.00  0.00    +0.141 C 
BRANCH  18  19
ATOM     19  C   UNL     1       8.316  -0.798  -3.366  0.00  0.00    -0.030 A 
ATOM     20  C   UNL     1       8.956  -2.021  -3.285  0.00  0.00    +0.005 A 
ATOM     21  C   UNL     1      10.061  -2.276  -4.075  0.00  0.00    +0.000 A 
ATOM     22  C   UNL     1      10.527  -1.309  -4.946  0.00  0.00    +0.000 A 
ATOM     23  C   UNL     1       9.887  -0.086  -5.027  0.00  0.00    +0.000 A 
ATOM     24  C   UNL     1       8.779   0.168  -4.240  0.00  0.00    +0.005 A 
ENDBRANCH  18  19
ENDBRANCH  15  18
ENDBRANCH   3  12
BRANCH   1  26
ATOM     25  C   UNL     1      -0.019   1.526   0.010  0.00  0.00    +0.017 C 
ATOM     26  C   UNL     1       0.002  -0.004   0.002  0.00  0.00    +0.006 C 
ATOM     27  C   UNL     1       0.742  -0.511   1.242  0.00  0.00    +0.017 C 
ATOM     28  C   UNL     1      -1.433  -0.534   0.013  0.00  0.00    +0.017 C 
ENDBRANCH   1  26
TORSDOF 5
