REMARK  Name = CHEMBL497352
REMARK  4 active torsions:
REMARK  status: ('A' for Active; 'I' for Inactive)
REMARK    1  A    between atoms: C_1  and  C_2
REMARK    2  A    between atoms: C_5  and  N_18
REMARK    3  A    between atoms: C_7  and  C_8
REMARK    4  A    between atoms: C_19  and  C_21
REMARK                            x       y       z     vdW  Elec       q    Type
REMARK                         _______ _______ _______ _____ _____    ______ ____
ROOT
ATOM      1  C   UNL     1      -0.044   1.502   0.029  0.00  0.00    +0.044 C 
ATOM      2  C   UNL     1      -0.017  -0.004   0.016  0.00  0.00    -0.043 A 
ATOM      3  C   UNL     1      -0.004  -0.684  -1.186  0.00  0.00    +0.006 A 
ATOM      4  C   UNL     1       0.021  -2.066  -1.204  0.00  0.00    +0.023 A 
ATOM      5  C   UNL     1       0.034  -2.779  -0.011  0.00  0.00    +0.034 A 
ATOM      6  C   UNL     1       0.021  -2.104   1.200  0.00  0.00    +0.032 A 
ATOM      7  C   UNL     1       0.001  -0.712   1.217  0.00  0.00    -0.013 A 
ENDROOT
BRANCH   7   8
ATOM      8  C   UNL     1      -0.007   0.017   2.509  0.00  0.00    -0.014 A 
ATOM      9  C   UNL     1       0.900   1.059   2.726  0.00  0.00    +0.009 A 
ATOM     10  C   UNL     1       0.901   1.736   3.910  0.00  0.00    +0.016 A 
ATOM     11  C   UNL     1      -0.007   1.390   4.913  0.00  0.00    +0.063 A 
ATOM     12  C   UNL     1      -0.922   0.345   4.705  0.00  0.00    +0.170 A 
ATOM     13  C   UNL     1      -0.920  -0.335   3.496  0.00  0.00    +0.058 A 
ATOM     14  O   UNL     1      -1.665   0.234   5.826  0.00  0.00    -0.353 OA
ATOM     15  N   UNL     1      -1.242   1.199   6.768  0.00  0.00    -0.062 NA
ATOM     16  C   UNL     1      -0.265   1.903   6.267  0.00  0.00    +0.167 A 
ATOM     17  N   UNL     1       0.408   2.941   6.896  0.00  0.00    -0.340 N 
ATOM     18  H   UNL     1       1.126   3.404   6.435  0.00  0.00    +0.144 HD
ATOM     19  H   UNL     1       0.161   3.205   7.796  0.00  0.00    +0.144 HD
ENDBRANCH   7   8
BRANCH   5  20
ATOM     20  N   UNL     1       0.059  -4.177  -0.032  0.00  0.00    -0.281 N 
ATOM     21  C   UNL     1       0.742  -4.854   0.912  0.00  0.00    +0.248 C 
ATOM     22  O   UNL     1       1.266  -4.253   1.830  0.00  0.00    -0.270 OA
ATOM     23  H   UNL     1      -0.416  -4.660  -0.727  0.00  0.00    +0.155 HD
BRANCH  21  24
ATOM     24  C   UNL     1       0.854  -6.328   0.832  0.00  0.00    +0.042 A 
ATOM     25  C   UNL     1       0.262  -7.038  -0.221  0.00  0.00    +0.033 A 
ATOM     26  C   UNL     1       0.389  -8.411  -0.261  0.00  0.00    +0.113 A 
ATOM     27  N   UNL     1       1.056  -9.059   0.675  0.00  0.00    -0.240 NA
ATOM     28  C   UNL     1       1.631  -8.432   1.688  0.00  0.00    +0.122 A 
ATOM     29  C   UNL     1       1.556  -7.047   1.800  0.00  0.00    +0.056 A 
ATOM     30  N   UNL     1       2.322  -9.163   2.647  0.00  0.00    -0.315 N 
ATOM     31  C   UNL     1       2.582 -10.609   2.598  0.00  0.00    +0.106 C 
ATOM     32  C   UNL     1       3.355 -10.979   3.882  0.00  0.00    +0.020 C 
ATOM     33  C   UNL     1       2.994  -9.822   4.851  0.00  0.00    +0.020 C 
ATOM     34  C   UNL     1       2.921  -8.616   3.878  0.00  0.00    +0.106 C 
ENDBRANCH  21  24
ENDBRANCH   5  20
TORSDOF 3
