REMARK  Name = CHEMBL376506
REMARK  11 active torsions:
REMARK  status: ('A' for Active; 'I' for Inactive)
REMARK    1  A    between atoms: C_1  and  C_2
REMARK    2  A    between atoms: C_5  and  C_28
REMARK    3  A    between atoms: C_7  and  N_8
REMARK    4  A    between atoms: N_15  and  C_16
REMARK    5  A    between atoms: N_15  and  C_17
REMARK    6  A    between atoms: C_17  and  C_18
REMARK    7  A    between atoms: C_18  and  C_19
REMARK    8  A    between atoms: C_18  and  C_20
REMARK    9  A    between atoms: C_18  and  C_21
REMARK   10  A    between atoms: N_30  and  O_31
REMARK   11  A    between atoms: O_31  and  C_32
REMARK                            x       y       z     vdW  Elec       q    Type
REMARK                         _______ _______ _______ _____ _____    ______ ____
ROOT
ATOM      1  N   UNL     1       0.584  -0.992   3.453  0.00  0.00    -0.283 N 
ATOM      2  C   UNL     1       0.059  -1.660   4.542  0.00  0.00    +0.225 A 
ATOM      3  N   UNL     1      -0.446  -0.973   5.562  0.00  0.00    -0.181 NA
ATOM      4  C   UNL     1      -0.951  -1.616   6.610  0.00  0.00    +0.224 A 
ATOM      5  N   UNL     1      -0.952  -2.945   6.638  0.00  0.00    -0.181 NA
ATOM      6  C   UNL     1      -0.447  -3.632   5.617  0.00  0.00    +0.223 A 
ATOM      7  N   UNL     1       0.053  -2.989   4.567  0.00  0.00    -0.181 NA
ATOM      8  N   UNL     1      -0.448  -5.011   5.646  0.00  0.00    -0.302 N 
ATOM      9  C   UNL     1      -1.083  -5.721   6.759  0.00  0.00    +0.132 C 
ATOM     10  N   UNL     1      -1.475  -0.904   7.670  0.00  0.00    -0.303 N 
ATOM     11  C   UNL     1      -2.047  -1.594   8.837  0.00  0.00    +0.089 C 
ATOM     12  C   UNL     1      -1.424  -1.001  10.105  0.00  0.00    -0.063 C 
ATOM     13  N   UNL     1      -1.615   0.455  10.109  0.00  0.00    +0.381 N 
ATOM     14  C   UNL     1      -0.881   1.058   8.989  0.00  0.00    -0.063 C 
ATOM     15  C   UNL     1      -1.471   0.567   7.668  0.00  0.00    +0.089 C 
ATOM     16  H   UNL     1       0.872  -1.489   2.671  0.00  0.00    +0.155 HD
ATOM     17  H   UNL     1      -2.598   0.664  10.017  0.00  0.00    -0.086 HD
ATOM     18  H   UNL     1      -1.272   0.835  10.978  0.00  0.00    -0.086 HD
ENDROOT
BRANCH   1  25
ATOM     19  C   UNL     1       0.604   0.392   0.971  0.00  0.00    +0.045 C 
ATOM     20  C   UNL     1       0.715   1.119   2.286  0.00  0.00    -0.029 A 
ATOM     21  C   UNL     1       0.824   2.497   2.305  0.00  0.00    +0.006 A 
ATOM     22  C   UNL     1       0.925   3.169   3.505  0.00  0.00    +0.013 A 
ATOM     23  C   UNL     1       0.917   2.458   4.707  0.00  0.00    +0.040 A 
ATOM     24  C   UNL     1       0.807   1.068   4.688  0.00  0.00    +0.036 A 
ATOM     25  C   UNL     1       0.701   0.402   3.477  0.00  0.00    +0.037 A 
BRANCH  23  26
ATOM     26  C   UNL     1       1.026   3.176   5.995  0.00  0.00    +0.267 C 
ATOM     27  O   UNL     1       0.985   2.558   7.040  0.00  0.00    -0.268 OA
ATOM     28  N   UNL     1       1.170   4.516   6.009  0.00  0.00    -0.191 N 
ATOM     29  H   UNL     1       1.203   5.010   5.174  0.00  0.00    +0.183 HD
BRANCH  28  30
ATOM     30  O   UNL     1       1.274   5.204   7.242  0.00  0.00    -0.283 OA
ATOM     31  C   UNL     1       1.423   6.619   7.108  0.00  0.00    +0.226 C 
ENDBRANCH  28  30
ENDBRANCH  23  26
ENDBRANCH   1  25
BRANCH   8  32
ATOM     32  C   UNL     1       0.188  -5.767   4.564  0.00  0.00    +0.113 C 
BRANCH  32  33
ATOM     33  C   UNL     1       1.665  -5.989   4.895  0.00  0.00    -0.022 C 
ATOM     34  C   UNL     1       1.780  -6.849   6.156  0.00  0.00    +0.012 C 
ATOM     35  C   UNL     1       2.348  -6.703   3.727  0.00  0.00    +0.012 C 
ATOM     36  C   UNL     1       2.343  -4.639   5.135  0.00  0.00    +0.012 C 
ENDBRANCH  32  33
ENDBRANCH   8  32
TORSDOF 5
