REMARK  Name = CHEMBL185328
REMARK  4 active torsions:
REMARK  status: ('A' for Active; 'I' for Inactive)
REMARK    1  A    between atoms: C_1  and  C_2
REMARK    2  A    between atoms: C_5  and  N_16
REMARK    3  A    between atoms: C_7  and  N_8
REMARK    4  A    between atoms: C_17  and  C_19
REMARK                            x       y       z     vdW  Elec       q    Type
REMARK                         _______ _______ _______ _____ _____    ______ ____
ROOT
ATOM      1  C   UNL     1      -0.080   1.345  -0.053  0.00  0.00    +0.045 C 
ATOM      2  C   UNL     1       0.117  -0.134  -0.263  0.00  0.00    -0.029 A 
ATOM      3  C   UNL     1      -0.568  -0.785  -1.271  0.00  0.00    +0.007 A 
ATOM      4  C   UNL     1      -0.391  -2.141  -1.466  0.00  0.00    +0.024 A 
ATOM      5  C   UNL     1       0.478  -2.855  -0.649  0.00  0.00    +0.035 A 
ATOM      6  C   UNL     1       1.167  -2.204   0.364  0.00  0.00    +0.046 A 
ATOM      7  C   UNL     1       0.991  -0.841   0.554  0.00  0.00    +0.037 A 
ENDROOT
BRANCH   7   8
ATOM      8  N   UNL     1       1.688  -0.180   1.570  0.00  0.00    -0.299 N 
ATOM      9  C   UNL     1       2.176  -0.894   2.654  0.00  0.00    +0.128 A 
ATOM     10  C   UNL     1       2.992  -0.275   3.602  0.00  0.00    +0.063 A 
ATOM     11  C   UNL     1       3.453  -1.028   4.664  0.00  0.00    +0.117 A 
ATOM     12  N   UNL     1       3.108  -2.305   4.748  0.00  0.00    -0.226 NA
ATOM     13  C   UNL     1       2.335  -2.862   3.836  0.00  0.00    +0.224 A 
ATOM     14  N   UNL     1       1.869  -2.179   2.809  0.00  0.00    -0.202 NA
ATOM     15 CL   UNL     1       1.915  -4.539   3.995  0.00  0.00    -0.041 Cl
ATOM     16  H   UNL     1       1.830   0.778   1.517  0.00  0.00    +0.154 HD
ENDBRANCH   7   8
BRANCH   5  17
ATOM     17  N   UNL     1       0.656  -4.227  -0.848  0.00  0.00    -0.281 N 
ATOM     18  C   UNL     1       0.728  -4.724  -2.099  0.00  0.00    +0.248 C 
ATOM     19  O   UNL     1       0.549  -3.993  -3.054  0.00  0.00    -0.270 OA
ATOM     20  H   UNL     1       0.729  -4.822  -0.085  0.00  0.00    +0.155 HD
BRANCH  18  21
ATOM     21  C   UNL     1       1.024  -6.160  -2.310  0.00  0.00    +0.042 A 
ATOM     22  C   UNL     1       1.227  -7.019  -1.224  0.00  0.00    +0.033 A 
ATOM     23  C   UNL     1       1.500  -8.350  -1.461  0.00  0.00    +0.113 A 
ATOM     24  N   UNL     1       1.572  -8.820  -2.692  0.00  0.00    -0.240 NA
ATOM     25  C   UNL     1       1.388  -8.046  -3.749  0.00  0.00    +0.122 A 
ATOM     26  C   UNL     1       1.102  -6.693  -3.597  0.00  0.00    +0.056 A 
ATOM     27  N   UNL     1       1.475  -8.591  -5.024  0.00  0.00    -0.311 N 
ATOM     28  C   UNL     1       1.554 -10.048  -5.222  0.00  0.00    +0.134 C 
ATOM     29  C   UNL     1       0.497 -10.453  -6.255  0.00  0.00    +0.178 C 
ATOM     30  O   UNL     1       0.647  -9.645  -7.425  0.00  0.00    -0.377 OA
ATOM     31  C   UNL     1       0.437  -8.249  -7.202  0.00  0.00    +0.178 C 
ATOM     32  C   UNL     1       1.485  -7.730  -6.218  0.00  0.00    +0.134 C 
ENDBRANCH  18  21
ENDBRANCH   5  17
TORSDOF 3
