REMARK  Name = CHEMBL442972
REMARK  7 active torsions:
REMARK  status: ('A' for Active; 'I' for Inactive)
REMARK    1  A    between atoms: C_1  and  C_2
REMARK    2  A    between atoms: C_2  and  C_3
REMARK    3  A    between atoms: C_2  and  C_4
REMARK    4  A    between atoms: C_4  and  N_5
REMARK    5  A    between atoms: C_10  and  C_12
REMARK    6  A    between atoms: C_13  and  C_26
REMARK    7  A    between atoms: C_15  and  C_18
REMARK                            x       y       z     vdW  Elec       q    Type
REMARK                         _______ _______ _______ _____ _____    ______ ____
ROOT
ATOM      1  C   UNL     1       2.250   4.322  -3.357  0.00  0.00    +0.115 A 
ATOM      2  C   UNL     1       1.069   4.300  -4.081  0.00  0.00    +0.076 A 
ATOM      3  N   UNL     1       0.864   5.584  -4.529  0.00  0.00    -0.337 N 
ATOM      4  C   UNL     1       1.905   6.341  -4.075  0.00  0.00    +0.145 A 
ATOM      5  N   UNL     1       2.717   5.582  -3.376  0.00  0.00    -0.225 NA
ATOM      6  H   UNL     1       0.118   5.894  -5.067  0.00  0.00    +0.167 HD
ENDROOT
BRANCH   1  12
ATOM      7  N   UNL     1       2.125  -0.091  -1.209  0.00  0.00    -0.297 N 
ATOM      8  C   UNL     1       2.653   1.090  -1.697  0.00  0.00    +0.162 A 
ATOM      9  C   UNL     1       4.033   1.037  -1.429  0.00  0.00    +0.110 A 
ATOM     10  C   UNL     1       4.844   2.111  -1.814  0.00  0.00    +0.034 A 
ATOM     11  C   UNL     1       4.258   3.178  -2.442  0.00  0.00    +0.032 A 
ATOM     12  C   UNL     1       2.881   3.168  -2.679  0.00  0.00    +0.094 A 
ATOM     13  N   UNL     1       2.129   2.139  -2.305  0.00  0.00    -0.226 NA
ATOM     14  N   UNL     1       4.278  -0.143  -0.805  0.00  0.00    -0.213 NA
ATOM     15  C   UNL     1       3.156  -0.807  -0.669  0.00  0.00    +0.195 A 
ATOM     16  N   UNL     1       3.035  -2.044  -0.073  0.00  0.00    -0.329 N 
ATOM     17  H   UNL     1       2.166  -2.471  -0.014  0.00  0.00    +0.145 HD
ATOM     18  H   UNL     1       3.819  -2.488   0.287  0.00  0.00    +0.145 HD
BRANCH   7  19
ATOM     19  C   UNL     1       0.718  -0.497  -1.257  0.00  0.00    +0.129 C 
BRANCH  19  21
ATOM     20  C   UNL     1      -0.019   1.526   0.010  0.00  0.00    +0.009 C 
ATOM     21  C   UNL     1       0.002  -0.004   0.002  0.00  0.00    +0.003 C 
ATOM     22  C   UNL     1      -1.433  -0.534   0.013  0.00  0.00    +0.009 C 
ENDBRANCH  19  21
ENDBRANCH   7  19
ENDBRANCH   1  12
BRANCH   4  23
ATOM     23  C   UNL     1       2.086   7.786  -4.324  0.00  0.00    +0.087 A 
ATOM     24  C   UNL     1       1.143   8.493  -5.076  0.00  0.00    +0.137 A 
ATOM     25  C   UNL     1       1.319   9.845  -5.305  0.00  0.00    +0.039 A 
ATOM     26  C   UNL     1       2.425  10.498  -4.793  0.00  0.00    +0.006 A 
ATOM     27  C   UNL     1       3.363   9.806  -4.047  0.00  0.00    +0.039 A 
ATOM     28  C   UNL     1       3.198   8.455  -3.804  0.00  0.00    +0.137 A 
ATOM     29  F   UNL     1       4.112   7.782  -3.071  0.00  0.00    -0.205 F 
ATOM     30  F   UNL     1       0.062   7.856  -5.579  0.00  0.00    -0.205 F 
ENDBRANCH   4  23
BRANCH   2  31
ATOM     31  C   UNL     1       0.204   3.129  -4.324  0.00  0.00    +0.000 A 
ATOM     32  C   UNL     1       0.767   1.905  -4.693  0.00  0.00    +0.010 A 
ATOM     33  C   UNL     1      -0.048   0.815  -4.919  0.00  0.00    +0.001 A 
ATOM     34  C   UNL     1      -1.420   0.933  -4.781  0.00  0.00    +0.000 A 
ATOM     35  C   UNL     1      -1.984   2.143  -4.417  0.00  0.00    +0.001 A 
ATOM     36  C   UNL     1      -1.181   3.239  -4.181  0.00  0.00    +0.010 A 
ENDBRANCH   2  31
TORSDOF 5
