REMARK  Name = CHEMBL1080052
REMARK  3 active torsions:
REMARK  status: ('A' for Active; 'I' for Inactive)
REMARK    1  A    between atoms: C_4  and  C_8
REMARK    2  A    between atoms: C_12  and  S_19
REMARK    3  A    between atoms: S_19  and  C_20
REMARK                            x       y       z     vdW  Elec       q    Type
REMARK                         _______ _______ _______ _____ _____    ______ ____
ROOT
ATOM      1  C   UNL     1       4.019  -0.213  -0.035  0.00  0.00    +0.060 A 
ATOM      2  C   UNL     1       4.578  -0.685   1.163  0.00  0.00    +0.098 A 
ATOM      3  C   UNL     1       3.938  -0.447   2.392  0.00  0.00    +0.033 A 
ATOM      4  C   UNL     1       4.502  -0.917   3.537  0.00  0.00    +0.039 A 
ATOM      5  C   UNL     1       5.714  -1.631   3.480  0.00  0.00    +0.124 A 
ATOM      6  N   UNL     1       6.311  -1.853   2.330  0.00  0.00    -0.142 NA
ATOM      7  N   UNL     1       5.754  -1.382   1.134  0.00  0.00    -0.149 N 
ATOM      8  N   UNL     1       6.401  -1.625  -0.083  0.00  0.00    -0.153 NA
ATOM      9  C   UNL     1       5.905  -1.199  -1.214  0.00  0.00    +0.186 A 
ATOM     10  C   UNL     1       4.691  -0.480  -1.245  0.00  0.00    +0.208 A 
ATOM     11  O   UNL     1       4.229  -0.088  -2.310  0.00  0.00    -0.286 OA
ENDROOT
BRANCH   1  15
ATOM     12  C   UNL     1       0.366   1.959  -0.017  0.00  0.00    +0.003 A 
ATOM     13  C   UNL     1       1.569   2.634   0.094  0.00  0.00    +0.021 A 
ATOM     14  C   UNL     1       2.759   1.935   0.089  0.00  0.00    +0.050 A 
ATOM     15  C   UNL     1       2.747   0.543  -0.028  0.00  0.00    +0.025 A 
ATOM     16  C   UNL     1       1.529  -0.131  -0.140  0.00  0.00    +0.050 A 
ATOM     17  C   UNL     1       0.346   0.581  -0.133  0.00  0.00    +0.021 A 
ATOM     18 CL   UNL     1       1.503  -1.861  -0.286  0.00  0.00    -0.083 Cl
ATOM     19 CL   UNL     1       4.267   2.783   0.227  0.00  0.00    -0.083 Cl
ENDBRANCH   1  15
BRANCH   5  20
ATOM     20  S   UNL     1       6.439  -2.235   4.968  0.00  0.00    -0.065 S 
BRANCH  20  21
ATOM     21  C   UNL     1       7.825  -3.173   4.416  0.00  0.00    +0.050 A 
ATOM     22  C   UNL     1       9.108  -2.657   4.541  0.00  0.00    +0.021 A 
ATOM     23  C   UNL     1      10.194  -3.394   4.108  0.00  0.00    +0.039 A 
ATOM     24  C   UNL     1      10.004  -4.647   3.550  0.00  0.00    +0.126 A 
ATOM     25  C   UNL     1       8.726  -5.165   3.424  0.00  0.00    +0.077 A 
ATOM     26  C   UNL     1       7.637  -4.434   3.861  0.00  0.00    +0.140 A 
ATOM     27  F   UNL     1       6.391  -4.942   3.742  0.00  0.00    -0.204 F 
ATOM     28  F   UNL     1      11.068  -5.365   3.128  0.00  0.00    -0.205 F 
ENDBRANCH  20  21
ENDBRANCH   5  20
TORSDOF 3
