REMARK  Name = CHEMBL1208891
REMARK  14 active torsions:
REMARK  status: ('A' for Active; 'I' for Inactive)
REMARK    1  A    between atoms: C_1  and  C_2
REMARK    2  A    between atoms: C_2  and  C_3
REMARK    3  A    between atoms: C_2  and  C_4
REMARK    4  A    between atoms: C_2  and  C_5
REMARK    5  A    between atoms: C_7  and  N_18
REMARK    6  A    between atoms: C_8  and  O_16
REMARK    7  A    between atoms: C_9  and  N_11
REMARK    8  A    between atoms: N_11  and  S_12
REMARK    9  A    between atoms: S_12  and  C_15
REMARK   10  A    between atoms: O_16  and  C_17
REMARK   11  A    between atoms: C_19  and  C_21
REMARK   12  A    between atoms: C_21  and  C_23
REMARK   13  A    between atoms: C_26  and  N_33
REMARK   14  A    between atoms: N_33  and  C_34
REMARK                            x       y       z     vdW  Elec       q    Type
REMARK                         _______ _______ _______ _____ _____    ______ ____
ROOT
ATOM      1  N   UNL     1       1.535  -3.718  -2.945  0.00  0.00    -0.276 N 
ATOM      2  C   UNL     1       1.138  -4.590  -1.996  0.00  0.00    +0.289 C 
ATOM      3  O   UNL     1       0.541  -4.192  -1.017  0.00  0.00    -0.266 OA
ATOM      4  H   UNL     1       1.933  -4.044  -3.767  0.00  0.00    +0.155 HD
ENDROOT
BRANCH   1   7
ATOM      5  C   UNL     1       1.142  -0.476  -1.252  0.00  0.00    -0.038 A 
ATOM      6  C   UNL     1       1.302  -1.833  -1.452  0.00  0.00    +0.031 A 
ATOM      7  C   UNL     1       1.372  -2.344  -2.742  0.00  0.00    +0.078 A 
ATOM      8  C   UNL     1       1.282  -1.485  -3.833  0.00  0.00    +0.166 A 
ATOM      9  C   UNL     1       1.121  -0.118  -3.626  0.00  0.00    +0.117 A 
ATOM     10  C   UNL     1       1.046   0.381  -2.332  0.00  0.00    +0.034 A 
BRANCH   5  12
ATOM     11  C   UNL     1       0.883   1.591   0.095  0.00  0.00    +0.015 C 
ATOM     12  C   UNL     1       1.066   0.072   0.150  0.00  0.00    -0.013 C 
ATOM     13  C   UNL     1       2.359  -0.258   0.898  0.00  0.00    +0.015 C 
ATOM     14  C   UNL     1      -0.121  -0.558   0.881  0.00  0.00    +0.015 C 
ENDBRANCH   5  12
BRANCH   8  15
ATOM     15  O   UNL     1       1.351  -1.979  -5.099  0.00  0.00    -0.491 OA
ATOM     16  C   UNL     1       0.119  -2.363  -5.714  0.00  0.00    +0.277 C 
ENDBRANCH   8  15
BRANCH   9  17
ATOM     17  N   UNL     1       1.029   0.751  -4.719  0.00  0.00    -0.099 NA
BRANCH  17  18
ATOM     18  S   UNL     1       0.838   2.377  -4.471  0.00  0.00    +0.060 S 
ATOM     19  O   UNL     1      -0.425   2.499  -3.831  0.00  0.00    -0.154 OA
ATOM     20  O   UNL     1       2.027   2.785  -3.809  0.00  0.00    -0.154 OA
ATOM     21  C   UNL     1       0.768   3.098  -6.134  0.00  0.00    +0.220 C 
ENDBRANCH  17  18
ENDBRANCH   9  17
ENDBRANCH   1   7
BRANCH   2  22
ATOM     22  C   UNL     1       1.433  -6.043  -2.150  0.00  0.00    +0.248 C 
ATOM     23  O   UNL     1       2.110  -6.430  -3.082  0.00  0.00    -0.282 OA
BRANCH  22  24
ATOM     24  C   UNL     1       0.907  -7.002  -1.179  0.00  0.00    +0.035 A 
ATOM     25  C   UNL     1       0.230  -6.560  -0.038  0.00  0.00    +0.014 A 
ATOM     26  C   UNL     1      -0.267  -7.463   0.879  0.00  0.00    +0.024 A 
ATOM     27  C   UNL     1      -0.117  -8.830   0.707  0.00  0.00    +0.039 A 
ATOM     28  C   UNL     1       0.558  -9.340  -0.427  0.00  0.00    +0.004 A 
ATOM     29  C   UNL     1       1.074  -8.443  -1.390  0.00  0.00    -0.005 A 
ATOM     30  C   UNL     1       1.737  -8.942  -2.515  0.00  0.00    +0.009 A 
ATOM     31  C   UNL     1       1.873 -10.291  -2.675  0.00  0.00    +0.001 A 
ATOM     32  C   UNL     1       1.360 -11.176  -1.733  0.00  0.00    +0.001 A 
ATOM     33  C   UNL     1       0.720 -10.720  -0.618  0.00  0.00    +0.010 A 
BRANCH  27  34
ATOM     34  N   UNL     1      -0.629  -9.700   1.649  0.00  0.00    -0.314 N 
ATOM     35  H   UNL     1      -0.169 -10.532   1.843  0.00  0.00    +0.152 HD
BRANCH  34  36
ATOM     36  C   UNL     1      -1.807  -9.383   2.322  0.00  0.00    +0.034 A 
ATOM     37  C   UNL     1      -2.830  -8.684   1.683  0.00  0.00    +0.040 A 
ATOM     38  C   UNL     1      -3.981  -8.390   2.385  0.00  0.00    +0.084 A 
ATOM     39  N   UNL     1      -4.119  -8.761   3.644  0.00  0.00    -0.367 N 
ATOM     40  C   UNL     1      -3.174  -9.424   4.284  0.00  0.00    +0.084 A 
ATOM     41  C   UNL     1      -1.996  -9.762   3.651  0.00  0.00    +0.040 A 
ATOM     42  H   UNL     1      -4.939  -8.540   4.113  0.00  0.00    +0.165 HD
ENDBRANCH  34  36
ENDBRANCH  27  34
ENDBRANCH  22  24
ENDBRANCH   2  22
TORSDOF 9
