REMARK  Name = CHEMBL194436
REMARK  6 active torsions:
REMARK  status: ('A' for Active; 'I' for Inactive)
REMARK    1  A    between atoms: C_3  and  O_7
REMARK    2  A    between atoms: O_7  and  C_8
REMARK    3  A    between atoms: C_8  and  C_9
REMARK    4  A    between atoms: C_11  and  N_16
REMARK    5  A    between atoms: C_17  and  C_19
REMARK    6  A    between atoms: C_21  and  N_26
REMARK                            x       y       z     vdW  Elec       q    Type
REMARK                         _______ _______ _______ _____ _____    ______ ____
ROOT
ATOM      1  N   UNL     1       6.836   5.600  -0.005  0.00  0.00    -0.281 N 
ATOM      2  C   UNL     1       7.932   6.378   0.091  0.00  0.00    +0.248 C 
ATOM      3  O   UNL     1       9.038   5.874   0.082  0.00  0.00    -0.270 OA
ATOM      4  H   UNL     1       5.957   6.006  -0.063  0.00  0.00    +0.155 HD
ENDROOT
BRANCH   1   7
ATOM      5  C   UNL     1       6.134   2.037   0.571  0.00  0.00    +0.010 A 
ATOM      6  C   UNL     1       6.004   3.412   0.588  0.00  0.00    +0.031 A 
ATOM      7  C   UNL     1       6.966   4.207  -0.020  0.00  0.00    +0.034 A 
ATOM      8  C   UNL     1       8.058   3.617  -0.643  0.00  0.00    +0.025 A 
ATOM      9  C   UNL     1       8.184   2.242  -0.657  0.00  0.00    +0.022 A 
ATOM     10  C   UNL     1       7.226   1.452  -0.046  0.00  0.00    +0.047 A 
ATOM     11 CL   UNL     1       7.391  -0.276  -0.059  0.00  0.00    -0.083 Cl
BRANCH   5  12
ATOM     12  C   UNL     1       5.090   1.173   1.231  0.00  0.00    +0.266 C 
BRANCH  12  13
ATOM     13  O   UNL     1       4.072   2.003   1.793  0.00  0.00    -0.486 OA
BRANCH  13  16
ATOM     14  C   UNL     1       0.994   1.431   3.642  0.00  0.00    +0.023 A 
ATOM     15  C   UNL     1       2.017   2.114   3.003  0.00  0.00    +0.049 A 
ATOM     16  C   UNL     1       3.047   1.377   2.430  0.00  0.00    +0.139 A 
ATOM     17  C   UNL     1       3.014  -0.008   2.517  0.00  0.00    +0.156 A 
ATOM     18  N   UNL     1       2.022  -0.620   3.132  0.00  0.00    -0.260 NA
ATOM     19  C   UNL     1       1.031   0.050   3.687  0.00  0.00    +0.111 A 
ENDBRANCH  13  16
ENDBRANCH  12  13
ENDBRANCH   5  12
ENDBRANCH   1   7
BRANCH   2  20
ATOM     20  C   UNL     1       7.789   7.845   0.207  0.00  0.00    +0.041 A 
ATOM     21  C   UNL     1       8.922   8.653   0.300  0.00  0.00    +0.036 A 
ATOM     22  C   UNL     1       8.782  10.028   0.408  0.00  0.00    +0.033 A 
ATOM     23  C   UNL     1       7.514  10.599   0.425  0.00  0.00    +0.061 A 
ATOM     24  C   UNL     1       6.389   9.798   0.332  0.00  0.00    +0.126 A 
ATOM     25  C   UNL     1       6.520   8.426   0.217  0.00  0.00    +0.051 A 
ATOM     26  F   UNL     1       5.160  10.358   0.349  0.00  0.00    -0.205 F 
BRANCH  22  27
ATOM     27  N   UNL     1       9.915  10.841   0.502  0.00  0.00    -0.325 N 
ATOM     28  C   UNL     1      11.266  10.276   0.362  0.00  0.00    +0.133 C 
ATOM     29  C   UNL     1      12.036  11.112  -0.667  0.00  0.00    +0.178 C 
ATOM     30  O   UNL     1      11.959  12.492  -0.304  0.00  0.00    -0.377 OA
ATOM     31  C   UNL     1      10.633  13.025  -0.305  0.00  0.00    +0.178 C 
ATOM     32  C   UNL     1       9.791  12.288   0.737  0.00  0.00    +0.133 C 
ENDBRANCH  22  27
ENDBRANCH   2  20
TORSDOF 6
