REMARK  Name = CHEMBL196210
REMARK  5 active torsions:
REMARK  status: ('A' for Active; 'I' for Inactive)
REMARK    1  A    between atoms: C_1  and  C_2
REMARK    2  A    between atoms: C_2  and  C_3
REMARK    3  A    between atoms: C_2  and  N_4
REMARK    4  A    between atoms: C_7  and  C_13
REMARK    5  A    between atoms: C_14  and  C_18
REMARK                            x       y       z     vdW  Elec       q    Type
REMARK                         _______ _______ _______ _____ _____    ______ ____
ROOT
ATOM      1  N   UNL     1      -1.615  -0.474  -0.007  0.00  0.00    -0.241 N 
ATOM      2  C   UNL     1      -2.121  -1.364  -0.926  0.00  0.00    +0.090 A 
ATOM      3  C   UNL     1      -1.659  -1.864  -2.136  0.00  0.00    +0.041 A 
ATOM      4  C   UNL     1      -2.435  -2.779  -2.842  0.00  0.00    +0.022 A 
ATOM      5  C   UNL     1      -3.676  -3.190  -2.333  0.00  0.00    +0.014 A 
ATOM      6  C   UNL     1      -4.134  -2.702  -1.148  0.00  0.00    +0.032 A 
ATOM      7  C   UNL     1      -3.366  -1.780  -0.421  0.00  0.00    +0.113 A 
ATOM      8  N   UNL     1      -3.563  -1.146   0.752  0.00  0.00    -0.129 NA
ATOM      9  N   UNL     1      -2.562  -0.385   1.023  0.00  0.00    -0.064 NA
ENDROOT
BRANCH   4  10
ATOM     10  C   UNL     1      -1.952  -3.316  -4.128  0.00  0.00    +0.163 A 
ATOM     11  C   UNL     1      -0.697  -3.828  -4.390  0.00  0.00    +0.117 A 
ATOM     12  N   UNL     1      -0.688  -4.204  -5.686  0.00  0.00    -0.216 NA
ATOM     13  C   UNL     1      -1.852  -3.949  -6.208  0.00  0.00    +0.309 A 
ATOM     14  O   UNL     1      -2.653  -3.409  -5.280  0.00  0.00    -0.442 OA
BRANCH  11  15
ATOM     15  C   UNL     1       0.426  -3.942  -3.431  0.00  0.00    +0.004 A 
ATOM     16  C   UNL     1       0.190  -4.376  -2.127  0.00  0.00    +0.013 A 
ATOM     17  C   UNL     1       1.240  -4.481  -1.237  0.00  0.00    +0.039 A 
ATOM     18  C   UNL     1       2.526  -4.157  -1.638  0.00  0.00    +0.123 A 
ATOM     19  C   UNL     1       2.765  -3.726  -2.933  0.00  0.00    +0.039 A 
ATOM     20  C   UNL     1       1.723  -3.623  -3.832  0.00  0.00    +0.013 A 
ATOM     21  F   UNL     1       3.550  -4.262  -0.764  0.00  0.00    -0.205 F 
ENDBRANCH  11  15
ENDBRANCH   4  10
BRANCH   1  23
ATOM     22  C   UNL     1      -0.589   1.745  -0.079  0.00  0.00    +0.032 C 
ATOM     23  C   UNL     1      -0.336   0.236  -0.086  0.00  0.00    +0.103 C 
ATOM     24  C   UNL     1       0.532  -0.142   1.116  0.00  0.00    +0.032 C 
ENDBRANCH   1  23
TORSDOF 3
