REMARK  Name = CHEMBL522579
REMARK  7 active torsions:
REMARK  status: ('A' for Active; 'I' for Inactive)
REMARK    1  A    between atoms: C_1  and  C_2
REMARK    2  A    between atoms: C_5  and  C_21
REMARK    3  A    between atoms: C_7  and  C_8
REMARK    4  A    between atoms: C_11  and  C_15
REMARK    5  A    between atoms: C_13  and  C_14
REMARK    6  A    between atoms: C_18  and  C_20
REMARK    7  A    between atoms: N_23  and  C_24
REMARK                            x       y       z     vdW  Elec       q    Type
REMARK                         _______ _______ _______ _____ _____    ______ ____
ROOT
ATOM      1  C   UNL     1      -0.018   1.503   0.010  0.00  0.00    +0.044 C 
ATOM      2  C   UNL     1       0.002  -0.004   0.002  0.00  0.00    -0.043 A 
ATOM      3  C   UNL     1       0.006  -0.686  -1.199  0.00  0.00    +0.005 A 
ATOM      4  C   UNL     1       0.024  -2.067  -1.215  0.00  0.00    +0.013 A 
ATOM      5  C   UNL     1       0.040  -2.781  -0.016  0.00  0.00    +0.037 A 
ATOM      6  C   UNL     1       0.036  -2.098   1.199  0.00  0.00    +0.021 A 
ATOM      7  C   UNL     1       0.023  -0.706   1.207  0.00  0.00    -0.014 A 
ENDROOT
BRANCH   7   8
ATOM      8  C   UNL     1       0.026   0.029   2.495  0.00  0.00    -0.015 A 
ATOM      9  C   UNL     1       1.133  -0.050   3.340  0.00  0.00    +0.009 A 
ATOM     10  C   UNL     1       1.136   0.632   4.536  0.00  0.00    +0.014 A 
ATOM     11  C   UNL     1       0.031   1.403   4.903  0.00  0.00    +0.039 A 
ATOM     12  C   UNL     1      -1.077   1.482   4.056  0.00  0.00    +0.017 A 
ATOM     13  C   UNL     1      -1.076   0.803   2.858  0.00  0.00    -0.042 A 
ATOM     14  C   UNL     1      -2.269   0.892   1.941  0.00  0.00    +0.044 C 
BRANCH  11  15
ATOM     15  C   UNL     1       0.033   2.135   6.186  0.00  0.00    +0.248 A 
ATOM     16  N   UNL     1      -0.935   2.888   6.655  0.00  0.00    -0.107 NA
ATOM     17  N   UNL     1      -0.585   3.365   7.798  0.00  0.00    -0.112 NA
ATOM     18  C   UNL     1       0.610   2.940   8.101  0.00  0.00    +0.215 A 
ATOM     19  O   UNL     1       1.028   2.150   7.097  0.00  0.00    -0.421 OA
ATOM     20  C   UNL     1       1.381   3.269   9.353  0.00  0.00    +0.111 C 
ENDBRANCH  11  15
ENDBRANCH   7   8
BRANCH   5  21
ATOM     21  C   UNL     1       0.059  -4.260  -0.034  0.00  0.00    +0.244 C 
ATOM     22  O   UNL     1       0.073  -4.880   1.011  0.00  0.00    -0.270 OA
ATOM     23  N   UNL     1       0.062  -4.919  -1.209  0.00  0.00    -0.308 N 
ATOM     24  H   UNL     1       0.052  -4.424  -2.043  0.00  0.00    +0.149 HD
BRANCH  23  25
ATOM     25  C   UNL     1       0.082  -6.384  -1.227  0.00  0.00    +0.073 C 
ATOM     26  C   UNL     1       1.022  -7.066  -2.223  0.00  0.00    +0.024 C 
ATOM     27  C   UNL     1      -0.489  -7.083  -2.463  0.00  0.00    +0.024 C 
ENDBRANCH  23  25
ENDBRANCH   5  21
TORSDOF 4
