REMARK  Name = CHEMBL302728
REMARK  3 active torsions:
REMARK  status: ('A' for Active; 'I' for Inactive)
REMARK    1  A    between atoms: C_4  and  C_7
REMARK    2  A    between atoms: C_8  and  C_19
REMARK    3  A    between atoms: C_11  and  C_13
REMARK                            x       y       z     vdW  Elec       q    Type
REMARK                         _______ _______ _______ _____ _____    ______ ____
ROOT
ATOM      1  C   UNL     1       3.698  -0.687  -0.037  0.00  0.00    +0.074 A 
ATOM      2  C   UNL     1       4.021  -1.769  -0.842  0.00  0.00    +0.091 A 
ATOM      3  N   UNL     1       5.317  -2.114  -0.525  0.00  0.00    -0.338 N 
ATOM      4  H   UNL     1       5.833  -2.835  -0.917  0.00  0.00    +0.167 HD
ATOM      5  C   UNL     1       5.737  -1.251   0.443  0.00  0.00    +0.117 A 
ATOM      6  N   UNL     1       4.769  -0.406   0.719  0.00  0.00    -0.339 N 
ATOM      7  H   UNL     1       4.820   0.309   1.372  0.00  0.00    +0.167 HD
ENDROOT
BRANCH   2   8
ATOM      8  C   UNL     1       3.152  -2.420  -1.838  0.00  0.00    +0.094 A 
ATOM      9  C   UNL     1       3.707  -3.125  -2.915  0.00  0.00    +0.050 A 
ATOM     10  C   UNL     1       2.852  -3.719  -3.822  0.00  0.00    +0.116 A 
ATOM     11  N   UNL     1       1.543  -3.606  -3.651  0.00  0.00    -0.223 NA
ATOM     12  C   UNL     1       1.044  -2.933  -2.624  0.00  0.00    +0.213 A 
ATOM     13  N   UNL     1       1.824  -2.352  -1.727  0.00  0.00    -0.213 NA
ATOM     14  N   UNL     1      -0.330  -2.840  -2.483  0.00  0.00    -0.327 N 
ATOM     15  H   UNL     1      -0.914  -3.264  -3.131  0.00  0.00    +0.145 HD
ATOM     16  H   UNL     1      -0.709  -2.351  -1.736  0.00  0.00    +0.145 HD
ENDBRANCH   2   8
BRANCH   1  20
ATOM     17  C   UNL     1      -0.017   1.379   0.010  0.00  0.00    +0.000 A 
ATOM     18  C   UNL     1       1.169   2.093   0.002  0.00  0.00    +0.001 A 
ATOM     19  C   UNL     1       2.377   1.427  -0.013  0.00  0.00    +0.010 A 
ATOM     20  C   UNL     1       2.403   0.033  -0.021  0.00  0.00    +0.000 A 
ATOM     21  C   UNL     1       1.205  -0.680  -0.013  0.00  0.00    +0.010 A 
ATOM     22  C   UNL     1       0.002  -0.004   0.002  0.00  0.00    +0.001 A 
ENDBRANCH   1  20
BRANCH   5  23
ATOM     23  C   UNL     1       7.072  -1.261   1.078  0.00  0.00    +0.015 A 
ATOM     24  C   UNL     1       7.351  -0.396   2.138  0.00  0.00    +0.011 A 
ATOM     25  C   UNL     1       8.599  -0.410   2.726  0.00  0.00    +0.001 A 
ATOM     26  C   UNL     1       9.573  -1.279   2.267  0.00  0.00    +0.000 A 
ATOM     27  C   UNL     1       9.304  -2.138   1.217  0.00  0.00    +0.001 A 
ATOM     28  C   UNL     1       8.058  -2.139   0.624  0.00  0.00    +0.011 A 
ENDBRANCH   5  23
TORSDOF 3
