REMARK  Name = CHEMBL14187
REMARK  6 active torsions:
REMARK  status: ('A' for Active; 'I' for Inactive)
REMARK    1  A    between atoms: C_4  and  C_7
REMARK    2  A    between atoms: C_10  and  O_13
REMARK    3  A    between atoms: O_13  and  C_14
REMARK    4  A    between atoms: C_18  and  C_20
REMARK    5  A    between atoms: C_21  and  C_31
REMARK    6  A    between atoms: N_24  and  C_25
REMARK                            x       y       z     vdW  Elec       q    Type
REMARK                         _______ _______ _______ _____ _____    ______ ____
ROOT
ATOM      1  C   UNL     1       9.708  -6.778   0.281  0.00  0.00    +0.093 A 
ATOM      2  C   UNL     1      10.965  -6.314  -0.065  0.00  0.00    +0.073 A 
ATOM      3  N   UNL     1      11.844  -7.294   0.211  0.00  0.00    -0.345 N 
ATOM      4  C   UNL     1      11.211  -8.324   0.701  0.00  0.00    +0.175 A 
ATOM      5  N   UNL     1       9.891  -8.053   0.770  0.00  0.00    -0.327 N 
ATOM      6  H   UNL     1      12.802  -7.243   0.067  0.00  0.00    +0.167 HD
ENDROOT
BRANCH   5   7
ATOM      7  C   UNL     1       8.846  -8.950   1.268  0.00  0.00    +0.085 C 
ATOM      8  C   UNL     1       9.211  -9.429   2.677  0.00  0.00    +0.006 C 
ATOM      9  C   UNL     1       8.156 -10.427   3.160  0.00  0.00    -0.081 C 
ATOM     10  N   UNL     1       8.110 -11.576   2.247  0.00  0.00    +0.379 N 
ATOM     11  C   UNL     1       7.691 -11.135   0.911  0.00  0.00    -0.081 C 
ATOM     12  C   UNL     1       8.728 -10.164   0.342  0.00  0.00    +0.006 C 
ATOM     13  H   UNL     1       9.026 -11.995   2.190  0.00  0.00    -0.086 HD
ATOM     14  H   UNL     1       7.452 -12.256   2.598  0.00  0.00    -0.086 HD
ENDBRANCH   5   7
BRANCH   2  15
ATOM     15  C   UNL     1      11.284  -4.984  -0.634  0.00  0.00    +0.001 A 
ATOM     16  C   UNL     1      10.504  -4.458  -1.663  0.00  0.00    +0.013 A 
ATOM     17  C   UNL     1      10.805  -3.220  -2.190  0.00  0.00    +0.039 A 
ATOM     18  C   UNL     1      11.881  -2.498  -1.699  0.00  0.00    +0.123 A 
ATOM     19  C   UNL     1      12.660  -3.017  -0.677  0.00  0.00    +0.039 A 
ATOM     20  C   UNL     1      12.363  -4.252  -0.139  0.00  0.00    +0.013 A 
ATOM     21  F   UNL     1      12.172  -1.285  -2.218  0.00  0.00    -0.205 F 
ENDBRANCH   2  15
BRANCH   1  26
ATOM     22  C   UNL     1       7.253  -4.069   0.122  0.00  0.00    +0.324 A 
ATOM     23  N   UNL     1       6.106  -4.703  -0.066  0.00  0.00    -0.203 NA
ATOM     24  C   UNL     1       6.061  -6.024  -0.152  0.00  0.00    +0.118 A 
ATOM     25  C   UNL     1       7.232  -6.750  -0.042  0.00  0.00    +0.050 A 
ATOM     26  C   UNL     1       8.431  -6.053   0.157  0.00  0.00    +0.096 A 
ATOM     27  N   UNL     1       8.398  -4.720   0.228  0.00  0.00    -0.193 NA
BRANCH  22  28
ATOM     28  O   UNL     1       7.253  -2.717   0.204  0.00  0.00    -0.424 OA
BRANCH  28  32
ATOM     29  C   UNL     1       3.611  -0.774   0.201  0.00  0.00    -0.018 A 
ATOM     30  C   UNL     1       3.966  -1.589   1.274  0.00  0.00    +0.012 A 
ATOM     31  C   UNL     1       5.184  -2.237   1.272  0.00  0.00    +0.047 A 
ATOM     32  C   UNL     1       6.054  -2.078   0.203  0.00  0.00    +0.132 A 
ATOM     33  C   UNL     1       5.703  -1.266  -0.868  0.00  0.00    +0.047 A 
ATOM     34  C   UNL     1       4.484  -0.621  -0.874  0.00  0.00    +0.012 A 
BRANCH  29  38
ATOM     35  C   UNL     1      -0.141   1.228   0.198  0.00  0.00    +0.000 A 
ATOM     36  C   UNL     1       0.210   0.424   1.268  0.00  0.00    +0.001 A 
ATOM     37  C   UNL     1       1.427  -0.228   1.274  0.00  0.00    +0.008 A 
ATOM     38  C   UNL     1       2.301  -0.076   0.200  0.00  0.00    -0.018 A 
ATOM     39  C   UNL     1       1.942   0.735  -0.875  0.00  0.00    +0.008 A 
ATOM     40  C   UNL     1       0.723   1.383  -0.871  0.00  0.00    +0.001 A 
ENDBRANCH  29  38
ENDBRANCH  28  32
ENDBRANCH  22  28
ENDBRANCH   1  26
TORSDOF 6
