REMARK  Name = CHEMBL305178
REMARK  8 active torsions:
REMARK  status: ('A' for Active; 'I' for Inactive)
REMARK    1  A    between atoms: C_1  and  C_2
REMARK    2  A    between atoms: C_2  and  C_4
REMARK    3  A    between atoms: C_2  and  N_10
REMARK    4  A    between atoms: C_15  and  C_17
REMARK    5  A    between atoms: C_18  and  C_29
REMARK    6  A    between atoms: C_20  and  C_23
REMARK    7  A    between atoms: N_21  and  C_22
REMARK    8  A    between atoms: C_33  and  C_35
REMARK                            x       y       z     vdW  Elec       q    Type
REMARK                         _______ _______ _______ _____ _____    ______ ____
ROOT
ATOM      1  C   UNL     1       0.800  -1.709   5.802  0.00  0.00    +0.095 A 
ATOM      2  C   UNL     1       1.950  -2.479   5.811  0.00  0.00    +0.099 A 
ATOM      3  N   UNL     1       2.280  -2.692   7.096  0.00  0.00    -0.231 NA
ATOM      4  C   UNL     1       1.412  -2.107   7.874  0.00  0.00    +0.114 A 
ATOM      5  N   UNL     1       0.482  -1.482   7.123  0.00  0.00    -0.329 N 
ATOM      6  C   UNL     1      -0.658  -0.707   7.620  0.00  0.00    +0.150 C 
ENDROOT
BRANCH   1  12
ATOM      7  N   UNL     1       0.711  -0.489   1.189  0.00  0.00    -0.307 N 
ATOM      8  C   UNL     1       0.033  -0.637   2.387  0.00  0.00    +0.216 A 
ATOM      9  N   UNL     1      -1.257  -0.340   2.440  0.00  0.00    -0.223 NA
ATOM     10  C   UNL     1      -1.942  -0.468   3.566  0.00  0.00    +0.116 A 
ATOM     11  C   UNL     1      -1.298  -0.918   4.703  0.00  0.00    +0.050 A 
ATOM     12  C   UNL     1       0.066  -1.225   4.619  0.00  0.00    +0.094 A 
ATOM     13  N   UNL     1       0.690  -1.077   3.448  0.00  0.00    -0.213 NA
ATOM     14  H   UNL     1       1.654  -0.707   1.135  0.00  0.00    +0.149 HD
BRANCH   7  16
ATOM     15  C   UNL     1      -0.019   1.526   0.010  0.00  0.00    +0.033 C 
ATOM     16  C   UNL     1       0.002  -0.004   0.002  0.00  0.00    +0.100 C 
BRANCH  16  17
ATOM     17  C   UNL     1       0.707  -0.490  -1.238  0.00  0.00    -0.027 A 
ATOM     18  C   UNL     1       2.089  -0.511  -1.284  0.00  0.00    +0.005 A 
ATOM     19  C   UNL     1       2.736  -0.957  -2.421  0.00  0.00    +0.000 A 
ATOM     20  C   UNL     1       2.002  -1.382  -3.512  0.00  0.00    +0.000 A 
ATOM     21  C   UNL     1       0.620  -1.362  -3.466  0.00  0.00    +0.000 A 
ATOM     22  C   UNL     1      -0.027  -0.920  -2.327  0.00  0.00    +0.005 A 
ENDBRANCH  16  17
ENDBRANCH   7  16
ENDBRANCH   1  12
BRANCH   4  23
ATOM     23  C   UNL     1       1.446  -2.122   9.380  0.00  0.00    +0.052 C 
ATOM     24  C   UNL     1       2.756  -1.497   9.869  0.00  0.00    -0.008 C 
ATOM     25  C   UNL     1       2.819  -1.587  11.396  0.00  0.00    -0.082 C 
ATOM     26  N   UNL     1       2.761  -2.994  11.809  0.00  0.00    +0.379 N 
ATOM     27  C   UNL     1       1.477  -3.580  11.406  0.00  0.00    -0.082 C 
ATOM     28  C   UNL     1       1.362  -3.567   9.881  0.00  0.00    -0.008 C 
ATOM     29  H   UNL     1       3.514  -3.504  11.371  0.00  0.00    -0.086 HD
ATOM     30  H   UNL     1       2.857  -3.053  12.812  0.00  0.00    -0.086 HD
ENDBRANCH   4  23
BRANCH   2  31
ATOM     31  C   UNL     1       2.683  -2.976   4.622  0.00  0.00    +0.003 A 
ATOM     32  C   UNL     1       1.984  -3.342   3.472  0.00  0.00    +0.010 A 
ATOM     33  C   UNL     1       2.671  -3.804   2.369  0.00  0.00    +0.001 A 
ATOM     34  C   UNL     1       4.051  -3.904   2.401  0.00  0.00    +0.012 A 
ATOM     35  C   UNL     1       4.749  -3.543   3.539  0.00  0.00    +0.055 A 
ATOM     36  C   UNL     1       4.073  -3.074   4.647  0.00  0.00    +0.022 A 
BRANCH  35  37
ATOM     37  C   UNL     1       6.252  -3.655   3.567  0.00  0.00    +0.417 C 
ATOM     38  F   UNL     1       6.705  -4.145   2.338  0.00  0.00    -0.166 F 
ATOM     39  F   UNL     1       6.810  -2.394   3.801  0.00  0.00    -0.166 F 
ATOM     40  F   UNL     1       6.635  -4.532   4.588  0.00  0.00    -0.166 F 
ENDBRANCH  35  37
ENDBRANCH   2  31
TORSDOF 6
