REMARK  Name = CHEMBL1173078
REMARK  7 active torsions:
REMARK  status: ('A' for Active; 'I' for Inactive)
REMARK    1  A    between atoms: C_1  and  C_2
REMARK    2  A    between atoms: C_2  and  C_4
REMARK    3  A    between atoms: C_2  and  N_7
REMARK    4  A    between atoms: C_4  and  C_5
REMARK    5  A    between atoms: C_4  and  C_6
REMARK    6  A    between atoms: C_10  and  C_14
REMARK    7  A    between atoms: C_15  and  C_22
REMARK                            x       y       z     vdW  Elec       q    Type
REMARK                         _______ _______ _______ _____ _____    ______ ____
ROOT
ATOM      1  C   UNL     1       5.023  -0.075   1.074  0.00  0.00    +0.075 A 
ATOM      2  C   UNL     1       6.243   0.523   1.065  0.00  0.00    +0.075 A 
ATOM      3  N   UNL     1       6.626   0.705   2.387  0.00  0.00    -0.306 N 
ATOM      4  H   UNL     1       7.454   1.110   2.688  0.00  0.00    +0.170 HD
ATOM      5  C   UNL     1       5.650   0.223   3.180  0.00  0.00    +0.325 A 
ATOM      6  O   UNL     1       5.661   0.223   4.397  0.00  0.00    -0.247 OA
ATOM      7  N   UNL     1       4.658  -0.254   2.405  0.00  0.00    -0.306 N 
ATOM      8  H   UNL     1       3.832  -0.654   2.720  0.00  0.00    +0.170 HD
ENDROOT
BRANCH   1  12
ATOM      9  N   UNL     1       0.807  -0.229  -1.423  0.00  0.00    -0.326 N 
ATOM     10  C   UNL     1       2.161  -0.529  -1.324  0.00  0.00    +0.119 A 
ATOM     11  C   UNL     1       2.868  -0.149  -0.192  0.00  0.00    +0.053 A 
ATOM     12  C   UNL     1       4.229  -0.459  -0.109  0.00  0.00    +0.005 A 
ATOM     13  C   UNL     1       4.820  -1.144  -1.182  0.00  0.00    +0.030 A 
ATOM     14  C   UNL     1       4.046  -1.484  -2.268  0.00  0.00    +0.113 A 
ATOM     15  N   UNL     1       2.761  -1.180  -2.311  0.00  0.00    -0.240 NA
ATOM     16  H   UNL     1       0.307  -0.496  -2.210  0.00  0.00    +0.148 HD
BRANCH   9  18
ATOM     17  C   UNL     1       0.332   1.995  -0.524  0.00  0.00    +0.028 C 
ATOM     18  C   UNL     1       0.135   0.490  -0.337  0.00  0.00    +0.071 C 
BRANCH  18  19
ATOM     19  C   UNL     1      -1.360   0.165  -0.358  0.00  0.00    +0.003 C 
ATOM     20  C   UNL     1      -2.061   0.915   0.776  0.00  0.00    +0.009 C 
ATOM     21  C   UNL     1      -1.956   0.594  -1.700  0.00  0.00    +0.009 C 
ENDBRANCH  18  19
ENDBRANCH   9  18
ENDBRANCH   1  12
BRANCH   2  22
ATOM     22  C   UNL     1       7.019   0.909  -0.130  0.00  0.00    +0.001 A 
ATOM     23  C   UNL     1       6.400   1.598  -1.175  0.00  0.00    +0.013 A 
ATOM     24  C   UNL     1       7.130   1.956  -2.289  0.00  0.00    +0.039 A 
ATOM     25  C   UNL     1       8.475   1.633  -2.373  0.00  0.00    +0.123 A 
ATOM     26  C   UNL     1       9.095   0.948  -1.340  0.00  0.00    +0.039 A 
ATOM     27  C   UNL     1       8.377   0.591  -0.218  0.00  0.00    +0.013 A 
ATOM     28  F   UNL     1       9.185   1.985  -3.467  0.00  0.00    -0.205 F 
ENDBRANCH   2  22
TORSDOF 4
