REMARK  Name = CHEMBL92648
REMARK  6 active torsions:
REMARK  status: ('A' for Active; 'I' for Inactive)
REMARK    1  A    between atoms: C_4  and  N_8
REMARK    2  A    between atoms: C_11  and  N_28
REMARK    3  A    between atoms: C_12  and  S_19
REMARK    4  A    between atoms: S_19  and  C_20
REMARK    5  A    between atoms: N_34  and  C_35
REMARK    6  A    between atoms: C_35  and  C_36
REMARK                            x       y       z     vdW  Elec       q    Type
REMARK                         _______ _______ _______ _____ _____    ______ ____
ROOT
ATOM      1  N   UNL     1       3.811  -0.845  -0.146  0.00  0.00    -0.220 N 
ATOM      2  C   UNL     1       4.386  -1.027  -1.407  0.00  0.00    +0.067 A 
ATOM      3  C   UNL     1       3.704  -0.652  -2.562  0.00  0.00    +0.051 A 
ATOM      4  C   UNL     1       4.324  -0.856  -3.787  0.00  0.00    +0.064 A 
ATOM      5  C   UNL     1       5.600  -1.425  -3.819  0.00  0.00    +0.123 A 
ATOM      6  N   UNL     1       6.215  -1.767  -2.697  0.00  0.00    -0.240 NA
ATOM      7  C   UNL     1       5.652  -1.586  -1.521  0.00  0.00    +0.081 A 
ATOM      8  C   UNL     1       6.365  -1.981  -0.247  0.00  0.00    +0.163 C 
ATOM      9  N   UNL     1       5.655  -1.740   1.020  0.00  0.00    -0.293 N 
ATOM     10  C   UNL     1       4.431  -1.184   0.992  0.00  0.00    +0.311 C 
ATOM     11  O   UNL     1       3.859  -0.985   2.046  0.00  0.00    -0.252 OA
ATOM     12  H   UNL     1       6.068  -1.975   1.866  0.00  0.00    +0.151 HD
ENDROOT
BRANCH   1  16
ATOM     13  C   UNL     1       0.005   0.843   0.081  0.00  0.00    +0.003 A 
ATOM     14  C   UNL     1       1.123   1.657   0.103  0.00  0.00    +0.022 A 
ATOM     15  C   UNL     1       2.386   1.101   0.028  0.00  0.00    +0.064 A 
ATOM     16  C   UNL     1       2.532  -0.278  -0.070  0.00  0.00    +0.079 A 
ATOM     17  C   UNL     1       1.407  -1.092  -0.092  0.00  0.00    +0.064 A 
ATOM     18  C   UNL     1       0.146  -0.529  -0.017  0.00  0.00    +0.022 A 
ATOM     19 CL   UNL     1       1.583  -2.814  -0.214  0.00  0.00    -0.082 Cl
ATOM     20 CL   UNL     1       3.789   2.123   0.056  0.00  0.00    -0.082 Cl
ENDBRANCH   1  16
BRANCH   4  21
ATOM     21  N   UNL     1       3.679  -0.497  -4.976  0.00  0.00    -0.328 N 
ATOM     22  C   UNL     1       2.782  -1.344  -5.791  0.00  0.00    +0.090 C 
ATOM     23  C   UNL     1       2.392  -0.462  -7.017  0.00  0.00    -0.049 C 
ATOM     24  C   UNL     1       3.719   0.364  -7.178  0.00  0.00    +0.007 C 
ATOM     25  C   UNL     1       3.751   0.821  -5.672  0.00  0.00    +0.055 C 
ATOM     26  C   UNL     1       2.309   1.401  -5.541  0.00  0.00    -0.056 C 
ATOM     27  N   UNL     1       1.478   0.576  -6.443  0.00  0.00    +0.384 N 
ATOM     28  H   UNL     1       1.092   1.145  -7.181  0.00  0.00    -0.081 HD
BRANCH  27  29
ATOM     29  C   UNL     1       0.400  -0.067  -5.680  0.00  0.00    -0.075 C 
BRANCH  29  30
ATOM     30  C   UNL     1      -0.622   0.989  -5.253  0.00  0.00    -0.028 C 
ATOM     31  C   UNL     1      -0.801   1.233  -3.753  0.00  0.00    +0.002 C 
ATOM     32  C   UNL     1      -1.887   0.501  -4.545  0.00  0.00    +0.002 C 
ENDBRANCH  29  30
ENDBRANCH  27  29
ENDBRANCH   4  21
BRANCH   5  33
ATOM     33  S   UNL     1       6.399  -1.690  -5.367  0.00  0.00    -0.065 S 
BRANCH  33  34
ATOM     34  C   UNL     1       8.004  -2.268  -4.926  0.00  0.00    +0.050 A 
ATOM     35  C   UNL     1       8.325  -3.611  -5.074  0.00  0.00    +0.021 A 
ATOM     36  C   UNL     1       9.583  -4.062  -4.727  0.00  0.00    +0.039 A 
ATOM     37  C   UNL     1      10.526  -3.177  -4.232  0.00  0.00    +0.126 A 
ATOM     38  C   UNL     1      10.210  -1.837  -4.082  0.00  0.00    +0.077 A 
ATOM     39  C   UNL     1       8.954  -1.379  -4.434  0.00  0.00    +0.140 A 
ATOM     40  F   UNL     1       8.647  -0.070  -4.294  0.00  0.00    -0.204 F 
ATOM     41  F   UNL     1      11.756  -3.621  -3.893  0.00  0.00    -0.205 F 
ENDBRANCH  33  34
ENDBRANCH   5  33
TORSDOF 6
