REMARK  Name = CHEMBL402489
REMARK  10 active torsions:
REMARK  status: ('A' for Active; 'I' for Inactive)
REMARK    1  A    between atoms: C_1  and  C_2
REMARK    2  A    between atoms: C_2  and  O_3
REMARK    3  A    between atoms: O_3  and  C_4
REMARK    4  A    between atoms: C_4  and  C_6
REMARK    5  A    between atoms: C_10  and  C_11
REMARK    6  A    between atoms: N_16  and  C_17
REMARK    7  A    between atoms: C_19  and  C_24
REMARK    8  A    between atoms: C_22  and  C_23
REMARK    9  A    between atoms: N_26  and  O_27
REMARK   10  A    between atoms: O_27  and  C_28
REMARK                            x       y       z     vdW  Elec       q    Type
REMARK                         _______ _______ _______ _____ _____    ______ ____
ROOT
ATOM      1  C   UNL     1       1.529  -2.356   2.530  0.00  0.00    +0.082 A 
ATOM      2  C   UNL     1       2.486  -1.627   3.219  0.00  0.00    +0.128 A 
ATOM      3  N   UNL     1       3.273  -2.477   3.893  0.00  0.00    -0.234 N 
ATOM      4  C   UNL     1       2.845  -3.771   3.657  0.00  0.00    +0.109 A 
ATOM      5  C   UNL     1       1.758  -3.718   2.815  0.00  0.00    -0.006 A 
ATOM      6  C   UNL     1       0.965  -4.890   2.296  0.00  0.00    +0.047 C 
ATOM      7  C   UNL     1       3.543  -4.837   4.278  0.00  0.00    +0.151 A 
ATOM      8  N   UNL     1       4.574  -4.564   5.059  0.00  0.00    -0.217 NA
ATOM      9  C   UNL     1       4.974  -3.312   5.276  0.00  0.00    +0.245 A 
ATOM     10  N   UNL     1       4.377  -2.285   4.736  0.00  0.00    -0.155 NA
ATOM     11  N   UNL     1       3.151  -6.143   4.071  0.00  0.00    -0.297 N 
ATOM     12  H   UNL     1       2.450  -6.343   3.431  0.00  0.00    +0.154 HD
ENDROOT
BRANCH  11  13
ATOM     13  C   UNL     1       3.763  -7.178   4.784  0.00  0.00    +0.036 A 
ATOM     14  C   UNL     1       4.407  -6.909   5.982  0.00  0.00    +0.036 A 
ATOM     15  C   UNL     1       5.016  -7.945   6.689  0.00  0.00    +0.040 A 
ATOM     16  C   UNL     1       4.972  -9.247   6.186  0.00  0.00    +0.013 A 
ATOM     17  C   UNL     1       4.329  -9.505   4.993  0.00  0.00    +0.006 A 
ATOM     18  C   UNL     1       3.721  -8.479   4.295  0.00  0.00    -0.029 A 
ATOM     19  C   UNL     1       3.014  -8.770   2.996  0.00  0.00    +0.045 C 
BRANCH  15  20
ATOM     20  C   UNL     1       5.705  -7.666   7.967  0.00  0.00    +0.267 C 
ATOM     21  O   UNL     1       5.742  -6.532   8.402  0.00  0.00    -0.268 OA
ATOM     22  N   UNL     1       6.293  -8.669   8.649  0.00  0.00    -0.191 N 
ATOM     23  H   UNL     1       6.263  -9.574   8.301  0.00  0.00    +0.183 HD
BRANCH  22  24
ATOM     24  O   UNL     1       6.953  -8.402   9.873  0.00  0.00    -0.283 OA
ATOM     25  C   UNL     1       7.530  -9.557  10.486  0.00  0.00    +0.226 C 
ENDBRANCH  22  24
ENDBRANCH  15  20
ENDBRANCH  11  13
BRANCH   1  26
ATOM     26  C   UNL     1       0.467  -1.809   1.667  0.00  0.00    +0.341 C 
ATOM     27  O   UNL     1      -0.317  -2.559   1.120  0.00  0.00    -0.245 OA
BRANCH  26  28
ATOM     28  O   UNL     1       0.367  -0.478   1.483  0.00  0.00    -0.461 OA
BRANCH  28  30
ATOM     29  C   UNL     1      -0.641   1.509   0.546  0.00  0.00    +0.048 C 
ATOM     30  C   UNL     1      -0.686  -0.018   0.633  0.00  0.00    +0.229 C 
ENDBRANCH  28  30
ENDBRANCH  26  28
ENDBRANCH   1  26
TORSDOF 6
