REMARK  Name = CHEMBL481354
REMARK  8 active torsions:
REMARK  status: ('A' for Active; 'I' for Inactive)
REMARK    1  A    between atoms: C_1  and  C_2
REMARK    2  A    between atoms: C_2  and  C_4
REMARK    3  A    between atoms: C_2  and  N_10
REMARK    4  A    between atoms: C_15  and  C_17
REMARK    5  A    between atoms: C_18  and  C_32
REMARK    6  A    between atoms: N_21  and  C_22
REMARK    7  A    between atoms: C_22  and  C_23
REMARK    8  A    between atoms: C_27  and  C_29
REMARK                            x       y       z     vdW  Elec       q    Type
REMARK                         _______ _______ _______ _____ _____    ______ ____
ROOT
ATOM      1  C   UNL     1      -5.401  -1.722  -2.223  0.00  0.00    +0.095 A 
ATOM      2  C   UNL     1      -5.944  -2.598  -1.298  0.00  0.00    +0.098 A 
ATOM      3  N   UNL     1      -7.224  -2.811  -1.651  0.00  0.00    -0.235 NA
ATOM      4  C   UNL     1      -7.500  -2.127  -2.727  0.00  0.00    +0.200 A 
ATOM      5  N   UNL     1      -6.410  -1.434  -3.115  0.00  0.00    -0.324 N 
ENDROOT
BRANCH   1  11
ATOM      6  N   UNL     1      -1.391  -0.501   0.058  0.00  0.00    -0.307 N 
ATOM      7  C   UNL     1      -2.088  -0.611  -1.132  0.00  0.00    +0.216 A 
ATOM      8  N   UNL     1      -1.500  -0.242  -2.261  0.00  0.00    -0.223 NA
ATOM      9  C   UNL     1      -2.132  -0.331  -3.422  0.00  0.00    +0.116 A 
ATOM     10  C   UNL     1      -3.426  -0.816  -3.453  0.00  0.00    +0.050 A 
ATOM     11  C   UNL     1      -4.023  -1.199  -2.244  0.00  0.00    +0.094 A 
ATOM     12  N   UNL     1      -3.323  -1.086  -1.114  0.00  0.00    -0.213 NA
ATOM     13  H   UNL     1      -1.807  -0.772   0.891  0.00  0.00    +0.149 HD
BRANCH   6  15
ATOM     14  C   UNL     1      -0.061   1.551   0.112  0.00  0.00    +0.033 C 
ATOM     15  C   UNL     1      -0.022   0.022   0.060  0.00  0.00    +0.100 C 
BRANCH  15  16
ATOM     16  C   UNL     1       0.715  -0.503   1.265  0.00  0.00    -0.027 A 
ATOM     17  C   UNL     1       0.068  -0.601   2.483  0.00  0.00    +0.005 A 
ATOM     18  C   UNL     1       0.745  -1.083   3.588  0.00  0.00    +0.000 A 
ATOM     19  C   UNL     1       2.068  -1.467   3.475  0.00  0.00    +0.000 A 
ATOM     20  C   UNL     1       2.714  -1.369   2.257  0.00  0.00    +0.000 A 
ATOM     21  C   UNL     1       2.037  -0.892   1.151  0.00  0.00    +0.005 A 
ENDBRANCH  15  16
ENDBRANCH   6  15
ENDBRANCH   1  11
BRANCH   2  22
ATOM     22  C   UNL     1      -5.244  -3.191  -0.135  0.00  0.00    +0.003 A 
ATOM     23  C   UNL     1      -3.891  -3.516  -0.223  0.00  0.00    +0.013 A 
ATOM     24  C   UNL     1      -3.244  -4.067   0.863  0.00  0.00    +0.039 A 
ATOM     25  C   UNL     1      -3.936  -4.299   2.041  0.00  0.00    +0.123 A 
ATOM     26  C   UNL     1      -5.281  -3.979   2.133  0.00  0.00    +0.039 A 
ATOM     27  C   UNL     1      -5.935  -3.420   1.055  0.00  0.00    +0.013 A 
ATOM     28  F   UNL     1      -3.298  -4.840   3.101  0.00  0.00    -0.205 F 
ENDBRANCH   2  22
BRANCH   5  29
ATOM     29  C   UNL     1      -6.316  -0.543  -4.274  0.00  0.00    +0.158 C 
BRANCH  29  30
ATOM     30  C   UNL     1      -7.677  -0.389  -4.902  0.00  0.00    -0.027 A 
ATOM     31  C   UNL     1      -8.122  -1.320  -5.823  0.00  0.00    +0.005 A 
ATOM     32  C   UNL     1      -9.370  -1.186  -6.404  0.00  0.00    +0.001 A 
ATOM     33  C   UNL     1     -10.180  -0.121  -6.067  0.00  0.00    +0.013 A 
ATOM     34  C   UNL     1      -9.738   0.822  -5.138  0.00  0.00    +0.037 A 
ATOM     35  C   UNL     1      -8.479   0.678  -4.552  0.00  0.00    +0.018 A 
BRANCH  34  36
ATOM     36  C   UNL     1     -10.600   1.966  -4.773  0.00  0.00    +0.242 C 
ATOM     37  O   UNL     1     -10.212   2.785  -3.964  0.00  0.00    -0.270 OA
ATOM     38  N   UNL     1     -11.817   2.099  -5.338  0.00  0.00    -0.325 N 
ATOM     39  H   UNL     1     -12.127   1.445  -5.983  0.00  0.00    +0.145 HD
ATOM     40  H   UNL     1     -12.383   2.850  -5.098  0.00  0.00    +0.145 HD
ENDBRANCH  34  36
ENDBRANCH  29  30
ENDBRANCH   5  29
TORSDOF 7
