REMARK  Name = CHEMBL1208889
REMARK  16 active torsions:
REMARK  status: ('A' for Active; 'I' for Inactive)
REMARK    1  A    between atoms: C_1  and  C_2
REMARK    2  A    between atoms: C_2  and  C_3
REMARK    3  A    between atoms: C_2  and  C_4
REMARK    4  A    between atoms: C_2  and  C_5
REMARK    5  A    between atoms: C_7  and  N_18
REMARK    6  A    between atoms: C_8  and  O_16
REMARK    7  A    between atoms: C_9  and  N_11
REMARK    8  A    between atoms: N_11  and  S_12
REMARK    9  A    between atoms: S_12  and  C_15
REMARK   10  A    between atoms: O_16  and  C_17
REMARK   11  A    between atoms: C_19  and  C_21
REMARK   12  A    between atoms: C_21  and  C_22
REMARK   13  A    between atoms: C_25  and  O_32
REMARK   14  A    between atoms: O_32  and  C_33
REMARK   15  A    between atoms: C_33  and  C_34
REMARK   16  A    between atoms: C_34  and  N_35
REMARK                            x       y       z     vdW  Elec       q    Type
REMARK                         _______ _______ _______ _____ _____    ______ ____
ROOT
ATOM      1  N   UNL     1       0.602  -3.583  -2.950  0.00  0.00    -0.282 N 
ATOM      2  C   UNL     1       0.334  -4.492  -1.991  0.00  0.00    +0.222 C 
ATOM      3  O   UNL     1      -0.200  -4.146  -0.959  0.00  0.00    -0.275 OA
ATOM      4  H   UNL     1       0.958  -3.871  -3.805  0.00  0.00    +0.155 HD
ENDROOT
BRANCH   1   7
ATOM      5  C   UNL     1       0.077  -0.403  -1.172  0.00  0.00    -0.038 A 
ATOM      6  C   UNL     1       0.309  -1.745  -1.408  0.00  0.00    +0.031 A 
ATOM      7  C   UNL     1       0.365  -2.223  -2.711  0.00  0.00    +0.078 A 
ATOM      8  C   UNL     1       0.186  -1.349  -3.778  0.00  0.00    +0.166 A 
ATOM      9  C   UNL     1      -0.048   0.001  -3.535  0.00  0.00    +0.117 A 
ATOM     10  C   UNL     1      -0.107   0.468  -2.229  0.00  0.00    +0.034 A 
BRANCH   5  12
ATOM     11  C   UNL     1      -0.257   1.616   0.229  0.00  0.00    +0.015 C 
ATOM     12  C   UNL     1       0.017   0.110   0.244  0.00  0.00    -0.013 C 
ATOM     13  C   UNL     1       1.353  -0.158   0.941  0.00  0.00    +0.015 C 
ATOM     14  C   UNL     1      -1.105  -0.605   0.999  0.00  0.00    +0.015 C 
ENDBRANCH   5  12
BRANCH   8  15
ATOM     15  O   UNL     1       0.240  -1.813  -5.056  0.00  0.00    -0.491 OA
ATOM     16  C   UNL     1      -0.987  -2.257  -5.638  0.00  0.00    +0.277 C 
ENDBRANCH   8  15
BRANCH   9  17
ATOM     17  N   UNL     1      -0.229   0.885  -4.605  0.00  0.00    -0.099 NA
BRANCH  17  18
ATOM     18  S   UNL     1      -0.507   2.491  -4.314  0.00  0.00    +0.060 S 
ATOM     19  O   UNL     1      -1.752   2.525  -3.629  0.00  0.00    -0.154 OA
ATOM     20  O   UNL     1       0.678   2.956  -3.683  0.00  0.00    -0.154 OA
ATOM     21  C   UNL     1      -0.677   3.240  -5.957  0.00  0.00    +0.220 C 
ENDBRANCH  17  18
ENDBRANCH   9  17
ENDBRANCH   1   7
BRANCH   2  22
ATOM     22  C   UNL     1       0.699  -5.939  -2.202  0.00  0.00    +0.131 C 
BRANCH  22  23
ATOM     23  C   UNL     1       0.297  -6.740  -0.991  0.00  0.00    -0.031 A 
ATOM     24  C   UNL     1       1.202  -6.988  -0.004  0.00  0.00    +0.008 A 
ATOM     25  C   UNL     1       0.851  -7.726   1.123  0.00  0.00    +0.046 A 
ATOM     26  C   UNL     1      -0.413  -8.223   1.272  0.00  0.00    +0.128 A 
ATOM     27  C   UNL     1      -1.376  -7.985   0.270  0.00  0.00    +0.024 A 
ATOM     28  C   UNL     1      -1.016  -7.229  -0.873  0.00  0.00    -0.011 A 
ATOM     29  C   UNL     1      -1.976  -6.988  -1.870  0.00  0.00    +0.009 A 
ATOM     30  C   UNL     1      -3.237  -7.477  -1.722  0.00  0.00    +0.001 A 
ATOM     31  C   UNL     1      -3.593  -8.216  -0.595  0.00  0.00    +0.001 A 
ATOM     32  C   UNL     1      -2.685  -8.479   0.385  0.00  0.00    +0.012 A 
BRANCH  26  33
ATOM     33  O   UNL     1      -0.740  -8.941   2.377  0.00  0.00    -0.493 OA
BRANCH  33  34
ATOM     34  C   UNL     1       0.289  -9.141   3.349  0.00  0.00    +0.210 C 
BRANCH  34  35
ATOM     35  C   UNL     1      -0.262  -9.966   4.513  0.00  0.00    -0.037 C 
BRANCH  35  36
ATOM     36  N   UNL     1      -0.591 -11.319   4.043  0.00  0.00    +0.385 N 
ATOM     37  C   UNL     1      -1.257 -12.064   5.120  0.00  0.00    -0.050 C 
ATOM     38  C   UNL     1      -1.599 -13.472   4.627  0.00  0.00    +0.141 C 
ATOM     39  O   UNL     1      -0.401 -14.126   4.199  0.00  0.00    -0.383 OA
ATOM     40  C   UNL     1       0.298 -13.425   3.166  0.00  0.00    +0.141 C 
ATOM     41  C   UNL     1       0.643 -12.016   3.656  0.00  0.00    -0.050 C 
ATOM     42  H   UNL     1      -1.206 -11.257   3.245  0.00  0.00    -0.081 HD
ENDBRANCH  35  36
ENDBRANCH  34  35
ENDBRANCH  33  34
ENDBRANCH  26  33
ENDBRANCH  22  23
ENDBRANCH   2  22
TORSDOF 11
