REMARK  Name = CHEMBL195188
REMARK  7 active torsions:
REMARK  status: ('A' for Active; 'I' for Inactive)
REMARK    1  A    between atoms: C_4  and  C_7
REMARK    2  A    between atoms: C_7  and  C_8
REMARK    3  A    between atoms: C_8  and  C_10
REMARK    4  A    between atoms: C_8  and  N_34
REMARK    5  A    between atoms: C_10  and  N_11
REMARK    6  A    between atoms: C_14  and  C_28
REMARK    7  A    between atoms: C_15  and  C_18
REMARK                            x       y       z     vdW  Elec       q    Type
REMARK                         _______ _______ _______ _____ _____    ______ ____
ROOT
ATOM      1  N   UNL     1       5.929  -1.418   3.121  0.00  0.00    -0.329 N 
ATOM      2  C   UNL     1       6.861  -2.222   3.766  0.00  0.00    +0.142 A 
ATOM      3  C   UNL     1       8.030  -2.600   3.108  0.00  0.00    +0.056 A 
ATOM      4  C   UNL     1       8.935  -3.408   3.797  0.00  0.00    +0.013 A 
ATOM      5  C   UNL     1       8.604  -3.787   5.115  0.00  0.00    +0.102 A 
ATOM      6  N   UNL     1       7.464  -3.372   5.650  0.00  0.00    -0.147 NA
ATOM      7  N   UNL     1       6.640  -2.625   5.010  0.00  0.00    -0.134 NA
ATOM      8  H   UNL     1       5.117  -1.151   3.580  0.00  0.00    +0.147 HD
ENDROOT
BRANCH   5   9
ATOM      9  C   UNL     1       9.524  -4.642   5.896  0.00  0.00    +0.010 A 
ATOM     10  C   UNL     1       9.998  -5.829   5.362  0.00  0.00    +0.011 A 
ATOM     11  C   UNL     1      10.862  -6.638   6.090  0.00  0.00    +0.001 A 
ATOM     12  C   UNL     1      11.267  -6.289   7.344  0.00  0.00    +0.008 A 
ATOM     13  C   UNL     1      10.811  -5.093   7.924  0.00  0.00    -0.017 A 
ATOM     14  C   UNL     1       9.934  -4.254   7.194  0.00  0.00    -0.009 A 
ATOM     15  C   UNL     1       9.484  -3.058   7.772  0.00  0.00    +0.009 A 
ATOM     16  C   UNL     1       9.899  -2.716   9.023  0.00  0.00    +0.001 A 
ATOM     17  C   UNL     1      10.767  -3.537   9.740  0.00  0.00    +0.001 A 
ATOM     18  C   UNL     1      11.213  -4.711   9.216  0.00  0.00    +0.008 A 
ENDBRANCH   5   9
BRANCH   4  19
ATOM     19  C   UNL     1      10.200  -3.853   3.166  0.00  0.00    -0.013 A 
ATOM     20  C   UNL     1      11.434  -3.595   3.771  0.00  0.00    +0.028 A 
ATOM     21  C   UNL     1      12.588  -4.027   3.149  0.00  0.00    +0.111 A 
ATOM     22  N   UNL     1      12.536  -4.674   2.001  0.00  0.00    -0.263 NA
ATOM     23  C   UNL     1      11.393  -4.937   1.397  0.00  0.00    +0.111 A 
ATOM     24  C   UNL     1      10.192  -4.546   1.952  0.00  0.00    +0.028 A 
ENDBRANCH   4  19
BRANCH   1  25
ATOM     25  C   UNL     1       6.173  -0.973   1.746  0.00  0.00    +0.088 C 
BRANCH  25  26
ATOM     26  C   UNL     1       5.066  -0.006   1.320  0.00  0.00    -0.047 C 
BRANCH  26  27
ATOM     27  N   UNL     1       5.008   1.119   2.263  0.00  0.00    +0.383 N 
ATOM     28  C   UNL     1       6.093   2.090   1.970  0.00  0.00    -0.078 C 
ATOM     29  C   UNL     1       5.577   3.402   2.613  0.00  0.00    -0.020 C 
ATOM     30  C   UNL     1       4.058   3.352   2.329  0.00  0.00    -0.020 C 
ATOM     31  C   UNL     1       3.742   1.863   2.092  0.00  0.00    -0.078 C 
ATOM     32  H   UNL     1       5.088   0.782   3.211  0.00  0.00    -0.081 HD
ENDBRANCH  26  27
BRANCH  26  33
ATOM     33  C   UNL     1       5.364   0.522  -0.085  0.00  0.00    +0.021 C 
BRANCH  33  37
ATOM     34  C   UNL     1       2.065   2.862  -1.459  0.00  0.00    +0.000 A 
ATOM     35  C   UNL     1       3.171   3.483  -0.910  0.00  0.00    +0.000 A 
ATOM     36  C   UNL     1       4.239   2.725  -0.465  0.00  0.00    +0.003 A 
ATOM     37  C   UNL     1       4.200   1.348  -0.569  0.00  0.00    -0.049 A 
ATOM     38  C   UNL     1       3.093   0.727  -1.117  0.00  0.00    +0.003 A 
ATOM     39  C   UNL     1       2.026   1.484  -1.563  0.00  0.00    +0.000 A 
ENDBRANCH  33  37
ENDBRANCH  26  33
ENDBRANCH  25  26
ENDBRANCH   1  25
TORSDOF 7
