REMARK  Name = CHEMBL126023
REMARK  3 active torsions:
REMARK  status: ('A' for Active; 'I' for Inactive)
REMARK    1  A    between atoms: C_6  and  C_7
REMARK    2  A    between atoms: C_8  and  C_15
REMARK    3  A    between atoms: N_9  and  C_12
REMARK                            x       y       z     vdW  Elec       q    Type
REMARK                         _______ _______ _______ _____ _____    ______ ____
ROOT
ATOM      1  C   UNL     1      -1.277  -0.752   0.028  0.00  0.00    +0.072 A 
ATOM      2  C   UNL     1      -1.529  -1.919   0.728  0.00  0.00    +0.075 A 
ATOM      3  N   UNL     1      -2.820  -2.282   0.415  0.00  0.00    -0.328 N 
ATOM      4  C   UNL     1      -3.303  -1.355  -0.440  0.00  0.00    +0.175 A 
ATOM      5  N   UNL     1      -2.391  -0.450  -0.663  0.00  0.00    -0.345 N 
ATOM      6  H   UNL     1      -2.499   0.322  -1.240  0.00  0.00    +0.167 HD
ENDROOT
BRANCH   1  12
ATOM      7  C   UNL     1       1.208  -0.626  -0.115  0.00  0.00    +0.013 A 
ATOM      8  C   UNL     1       2.380   0.101  -0.102  0.00  0.00    +0.039 A 
ATOM      9  C   UNL     1       2.343   1.476   0.069  0.00  0.00    +0.123 A 
ATOM     10  C   UNL     1       1.130   2.127   0.225  0.00  0.00    +0.039 A 
ATOM     11  C   UNL     1      -0.047   1.408   0.213  0.00  0.00    +0.013 A 
ATOM     12  C   UNL     1      -0.015   0.024   0.042  0.00  0.00    +0.001 A 
ATOM     13  F   UNL     1       3.494   2.184   0.082  0.00  0.00    -0.205 F 
ENDBRANCH   1  12
BRANCH   2  14
ATOM     14  C   UNL     1      -0.601  -2.631   1.627  0.00  0.00    +0.003 A 
ATOM     15  C   UNL     1       0.017  -1.968   2.697  0.00  0.00    +0.030 A 
ATOM     16  C   UNL     1       0.876  -2.672   3.512  0.00  0.00    +0.111 A 
ATOM     17  N   UNL     1       1.120  -3.952   3.296  0.00  0.00    -0.263 NA
ATOM     18  C   UNL     1       0.560  -4.614   2.301  0.00  0.00    +0.111 A 
ATOM     19  C   UNL     1      -0.317  -3.990   1.440  0.00  0.00    +0.030 A 
ENDBRANCH   2  14
BRANCH   3  20
ATOM     20  C   UNL     1      -3.536  -3.457   0.916  0.00  0.00    +0.089 C 
ATOM     21  C   UNL     1      -4.891  -3.781   0.285  0.00  0.00    +0.027 C 
ATOM     22  C   UNL     1      -4.825  -3.216   1.705  0.00  0.00    +0.027 C 
ENDBRANCH   3  20
TORSDOF 3
