REMARK  Name = CHEMBL380755
REMARK  5 active torsions:
REMARK  status: ('A' for Active; 'I' for Inactive)
REMARK    1  A    between atoms: C_3  and  C_23
REMARK    2  A    between atoms: C_5  and  C_7
REMARK    3  A    between atoms: C_7  and  C_9
REMARK    4  A    between atoms: N_12  and  C_15
REMARK    5  A    between atoms: C_13  and  N_14
REMARK                            x       y       z     vdW  Elec       q    Type
REMARK                         _______ _______ _______ _____ _____    ______ ____
ROOT
ATOM      1  C   UNL     1      -0.001  -2.936   0.120  0.00  0.00    +0.081 A 
ATOM      2  C   UNL     1      -1.300  -2.372   0.086  0.00  0.00    +0.148 A 
ATOM      3  N   UNL     1      -2.167  -3.339   0.192  0.00  0.00    -0.172 NA
ATOM      4  N   UNL     1      -1.489  -4.559   0.297  0.00  0.00    -0.215 N 
ATOM      5  C   UNL     1      -0.161  -4.317   0.249  0.00  0.00    +0.131 A 
ENDROOT
BRANCH   4   6
ATOM      6  C   UNL     1      -2.088  -5.821   0.426  0.00  0.00    +0.103 A 
ATOM      7  C   UNL     1      -1.644  -6.704   1.400  0.00  0.00    +0.033 A 
ATOM      8  C   UNL     1      -2.235  -7.947   1.526  0.00  0.00    +0.040 A 
ATOM      9  C   UNL     1      -3.271  -8.312   0.682  0.00  0.00    +0.126 A 
ATOM     10  C   UNL     1      -3.716  -7.433  -0.291  0.00  0.00    +0.078 A 
ATOM     11  C   UNL     1      -3.131  -6.186  -0.417  0.00  0.00    +0.151 A 
ATOM     12  F   UNL     1      -3.570  -5.325  -1.362  0.00  0.00    -0.203 F 
ATOM     13  F   UNL     1      -3.846  -9.527   0.807  0.00  0.00    -0.205 F 
ENDBRANCH   4   6
BRANCH   5  14
ATOM     14  N   UNL     1       0.847  -5.256   0.317  0.00  0.00    -0.342 N 
ATOM     15  H   UNL     1       1.771  -4.984   0.204  0.00  0.00    +0.144 HD
ATOM     16  H   UNL     1       0.631  -6.188   0.476  0.00  0.00    +0.144 HD
ENDBRANCH   5  14
BRANCH   1  17
ATOM     17  C   UNL     1       1.269  -2.209   0.031  0.00  0.00    +0.198 C 
ATOM     18  O   UNL     1       2.318  -2.822  -0.035  0.00  0.00    -0.286 OA
BRANCH  17  23
ATOM     19  C   UNL     1       0.260   1.359   0.650  0.00  0.00    +0.001 A 
ATOM     20  C   UNL     1       1.273   2.047   0.009  0.00  0.00    +0.008 A 
ATOM     21  C   UNL     1       2.296   1.351  -0.632  0.00  0.00    -0.016 A 
ATOM     22  C   UNL     1       2.298  -0.040  -0.627  0.00  0.00    +0.020 A 
ATOM     23  C   UNL     1       1.275  -0.730   0.021  0.00  0.00    +0.023 A 
ATOM     24  C   UNL     1       0.255  -0.021   0.659  0.00  0.00    +0.012 A 
BRANCH  21  25
ATOM     25  C   UNL     1       3.382   2.093  -1.320  0.00  0.00    +0.002 A 
ATOM     26  C   UNL     1       4.410   1.406  -1.971  0.00  0.00    +0.011 A 
ATOM     27  C   UNL     1       5.399   2.143  -2.598  0.00  0.00    +0.022 A 
ATOM     28  C   UNL     1       5.340   3.524  -2.561  0.00  0.00    +0.133 A 
ATOM     29  N   UNL     1       4.357   4.146  -1.938  0.00  0.00    -0.146 N 
ATOM     30  O   UNL     1       4.337   5.562  -1.925  0.00  0.00    -0.164 OA
ATOM     31  C   UNL     1       3.390   3.486  -1.332  0.00  0.00    +0.141 A 
ENDBRANCH  21  25
ENDBRANCH  17  23
ENDBRANCH   1  17
TORSDOF 5
