REMARK  Name = CHEMBL1078859
REMARK  7 active torsions:
REMARK  status: ('A' for Active; 'I' for Inactive)
REMARK    1  A    between atoms: C_1  and  C_2
REMARK    2  A    between atoms: C_4  and  O_20
REMARK    3  A    between atoms: N_8  and  C_9
REMARK    4  A    between atoms: C_9  and  C_10
REMARK    5  A    between atoms: C_13  and  C_16
REMARK    6  A    between atoms: O_20  and  C_21
REMARK    7  A    between atoms: C_21  and  C_22
REMARK                            x       y       z     vdW  Elec       q    Type
REMARK                         _______ _______ _______ _____ _____    ______ ____
ROOT
ATOM      1  C   UNL     1      -0.006   1.168  -0.147  0.00  0.00    +0.064 C 
ATOM      2  C   UNL     1      -0.028  -0.325   0.056  0.00  0.00    +0.023 A 
ATOM      3  C   UNL     1      -0.153  -1.141  -1.012  0.00  0.00    +0.068 A 
ATOM      4  C   UNL     1      -0.174  -2.538  -0.828  0.00  0.00    +0.142 A 
ATOM      5  C   UNL     1      -0.065  -3.046   0.453  0.00  0.00    +0.124 A 
ATOM      6  C   UNL     1       0.063  -2.160   1.529  0.00  0.00    +0.269 A 
ATOM      7  O   UNL     1       0.161  -2.593   2.667  0.00  0.00    -0.266 OA
ATOM      8  N   UNL     1       0.085  -0.832   1.312  0.00  0.00    -0.307 N 
ATOM      9 BR   UNL     1      -0.089  -4.914   0.747  0.00  0.00    -0.041 Br
ENDROOT
BRANCH   8  10
ATOM     10  C   UNL     1       0.226   0.082   2.448  0.00  0.00    +0.160 C 
BRANCH  10  11
ATOM     11  C   UNL     1       1.688   0.329   2.716  0.00  0.00    -0.028 A 
ATOM     12  C   UNL     1       2.399  -0.547   3.517  0.00  0.00    +0.006 A 
ATOM     13  C   UNL     1       3.738  -0.328   3.766  0.00  0.00    +0.013 A 
ATOM     14  C   UNL     1       4.376   0.781   3.208  0.00  0.00    +0.037 A 
ATOM     15  C   UNL     1       3.653   1.661   2.401  0.00  0.00    +0.013 A 
ATOM     16  C   UNL     1       2.316   1.427   2.155  0.00  0.00    +0.006 A 
BRANCH  14  17
ATOM     17  C   UNL     1       5.810   1.023   3.471  0.00  0.00    +0.242 C 
ATOM     18  O   UNL     1       6.437   0.256   4.175  0.00  0.00    -0.270 OA
ATOM     19  N   UNL     1       6.423   2.095   2.931  0.00  0.00    -0.325 N 
ATOM     20  H   UNL     1       5.923   2.708   2.369  0.00  0.00    +0.145 HD
ATOM     21  H   UNL     1       7.364   2.254   3.103  0.00  0.00    +0.145 HD
ENDBRANCH  14  17
ENDBRANCH  10  11
ENDBRANCH   8  10
BRANCH   4  22
ATOM     22  O   UNL     1      -0.300  -3.369  -1.890  0.00  0.00    -0.486 OA
BRANCH  22  23
ATOM     23  C   UNL     1      -1.522  -3.300  -2.628  0.00  0.00    +0.267 C 
BRANCH  23  24
ATOM     24  C   UNL     1      -1.533  -4.373  -3.685  0.00  0.00    +0.025 A 
ATOM     25  C   UNL     1      -0.457  -5.232  -3.808  0.00  0.00    +0.012 A 
ATOM     26  C   UNL     1      -0.465  -6.217  -4.778  0.00  0.00    +0.039 A 
ATOM     27  C   UNL     1      -1.552  -6.344  -5.627  0.00  0.00    +0.126 A 
ATOM     28  C   UNL     1      -2.629  -5.484  -5.505  0.00  0.00    +0.077 A 
ATOM     29  C   UNL     1      -2.622  -4.502  -4.530  0.00  0.00    +0.132 A 
ATOM     30  F   UNL     1      -3.676  -3.665  -4.406  0.00  0.00    -0.205 F 
ATOM     31  F   UNL     1      -1.559  -7.307  -6.575  0.00  0.00    -0.205 F 
ENDBRANCH  23  24
ENDBRANCH  22  23
ENDBRANCH   4  22
TORSDOF 6
