REMARK  Name = CHEMBL366080
REMARK  7 active torsions:
REMARK  status: ('A' for Active; 'I' for Inactive)
REMARK    1  A    between atoms: C_1  and  C_2
REMARK    2  A    between atoms: C_5  and  N_24
REMARK    3  A    between atoms: C_7  and  N_8
REMARK    4  A    between atoms: N_15  and  C_16
REMARK    5  A    between atoms: N_15  and  C_17
REMARK    6  A    between atoms: N_20  and  C_23
REMARK    7  A    between atoms: C_25  and  C_27
REMARK                            x       y       z     vdW  Elec       q    Type
REMARK                         _______ _______ _______ _____ _____    ______ ____
ROOT
ATOM      1  C   UNL     1      -0.207   1.466   0.047  0.00  0.00    +0.045 C 
ATOM      2  C   UNL     1       0.212   0.019  -0.001  0.00  0.00    -0.029 A 
ATOM      3  C   UNL     1       0.461  -0.587  -1.218  0.00  0.00    +0.007 A 
ATOM      4  C   UNL     1       0.844  -1.913  -1.266  0.00  0.00    +0.024 A 
ATOM      5  C   UNL     1       0.982  -2.642  -0.091  0.00  0.00    +0.035 A 
ATOM      6  C   UNL     1       0.733  -2.036   1.132  0.00  0.00    +0.046 A 
ATOM      7  C   UNL     1       0.353  -0.702   1.178  0.00  0.00    +0.037 A 
ENDROOT
BRANCH   7   8
ATOM      8  N   UNL     1       0.108  -0.086   2.409  0.00  0.00    -0.299 N 
ATOM      9  C   UNL     1      -0.378  -0.831   3.472  0.00  0.00    +0.128 A 
ATOM     10  C   UNL     1      -0.506  -0.258   4.739  0.00  0.00    +0.063 A 
ATOM     11  C   UNL     1      -0.995  -1.038   5.769  0.00  0.00    +0.118 A 
ATOM     12  N   UNL     1      -1.326  -2.298   5.526  0.00  0.00    -0.223 NA
ATOM     13  C   UNL     1      -1.195  -2.815   4.314  0.00  0.00    +0.219 A 
ATOM     14  N   UNL     1      -0.735  -2.100   3.299  0.00  0.00    -0.199 NA
ATOM     15  N   UNL     1      -1.552  -4.136   4.102  0.00  0.00    -0.300 N 
ATOM     16  C   UNL     1      -1.414  -4.726   2.768  0.00  0.00    +0.132 C 
ATOM     17  H   UNL     1       0.278   0.863   2.519  0.00  0.00    +0.154 HD
BRANCH  15  18
ATOM     18  C   UNL     1      -2.068  -4.942   5.211  0.00  0.00    +0.072 C 
ATOM     19  C   UNL     1      -1.159  -6.155   5.429  0.00  0.00    +0.004 C 
ATOM     20  C   UNL     1      -1.747  -7.034   6.534  0.00  0.00    -0.077 C 
ATOM     21  N   UNL     1      -3.086  -7.489   6.142  0.00  0.00    +0.378 N 
ATOM     22  C   UNL     1      -3.982  -6.336   6.001  0.00  0.00    -0.077 C 
ATOM     23  C   UNL     1      -3.481  -5.429   4.875  0.00  0.00    +0.004 C 
ATOM     24  C   UNL     1      -3.614  -8.395   7.171  0.00  0.00    -0.096 C 
ATOM     25  H   UNL     1      -3.029  -7.979   5.262  0.00  0.00    -0.082 HD
ENDBRANCH  15  18
ENDBRANCH   7   8
BRANCH   5  26
ATOM     26  N   UNL     1       1.369  -3.984  -0.141  0.00  0.00    -0.281 N 
ATOM     27  C   UNL     1       0.997  -4.755  -1.183  0.00  0.00    +0.248 C 
ATOM     28  O   UNL     1       0.249  -4.310  -2.031  0.00  0.00    -0.270 OA
ATOM     29  H   UNL     1       1.906  -4.361   0.573  0.00  0.00    +0.155 HD
BRANCH  27  30
ATOM     30  C   UNL     1       1.499  -6.144  -1.293  0.00  0.00    +0.042 A 
ATOM     31  C   UNL     1       2.357  -6.678  -0.323  0.00  0.00    +0.033 A 
ATOM     32  C   UNL     1       2.803  -7.975  -0.461  0.00  0.00    +0.113 A 
ATOM     33  N   UNL     1       2.434  -8.715  -1.489  0.00  0.00    -0.240 NA
ATOM     34  C   UNL     1       1.625  -8.254  -2.429  0.00  0.00    +0.122 A 
ATOM     35  C   UNL     1       1.125  -6.957  -2.363  0.00  0.00    +0.056 A 
ATOM     36  N   UNL     1       1.268  -9.075  -3.492  0.00  0.00    -0.311 N 
ATOM     37  C   UNL     1       1.592 -10.511  -3.483  0.00  0.00    +0.134 C 
ATOM     38  C   UNL     1       0.317 -11.297  -3.808  0.00  0.00    +0.178 C 
ATOM     39  O   UNL     1      -0.258 -10.784  -5.012  0.00  0.00    -0.377 OA
ATOM     40  C   UNL     1      -0.671  -9.418  -4.928  0.00  0.00    +0.178 C 
ATOM     41  C   UNL     1       0.548  -8.537  -4.657  0.00  0.00    +0.134 C 
ENDBRANCH  27  30
ENDBRANCH   5  26
TORSDOF 4
