REMARK  Name = CHEMBL259922
REMARK  4 active torsions:
REMARK  status: ('A' for Active; 'I' for Inactive)
REMARK    1  A    between atoms: C_1  and  C_2
REMARK    2  A    between atoms: C_5  and  C_24
REMARK    3  A    between atoms: C_7  and  N_8
REMARK    4  A    between atoms: N_13  and  C_18
REMARK                            x       y       z     vdW  Elec       q    Type
REMARK                         _______ _______ _______ _____ _____    ______ ____
ROOT
ATOM      1  N   UNL     1       0.025  -0.008   2.417  0.00  0.00    -0.299 N 
ATOM      2  C   UNL     1      -0.059  -0.701   3.610  0.00  0.00    +0.137 A 
ATOM      3  C   UNL     1      -0.169  -0.016   4.835  0.00  0.00    +0.079 A 
ATOM      4  C   UNL     1      -0.223   1.344   5.211  0.00  0.00    +0.148 A 
ATOM      5  N   UNL     1      -0.328   1.411   6.508  0.00  0.00    -0.172 NA
ATOM      6  N   UNL     1      -0.349   0.118   7.048  0.00  0.00    -0.214 N 
ATOM      7  C   UNL     1      -0.251  -0.775   6.019  0.00  0.00    +0.168 A 
ATOM      8  N   UNL     1      -0.221  -2.104   5.933  0.00  0.00    -0.216 NA
ATOM      9  C   UNL     1      -0.117  -2.699   4.765  0.00  0.00    +0.225 A 
ATOM     10  N   UNL     1      -0.042  -2.029   3.628  0.00  0.00    -0.220 NA
ATOM     11  H   UNL     1      -0.086   0.955   2.406  0.00  0.00    +0.154 HD
ENDROOT
BRANCH   1  18
ATOM     12  C   UNL     1      -0.952   1.119  -0.003  0.00  0.00    +0.045 C 
ATOM     13  C   UNL     1      -0.190  -0.182   0.018  0.00  0.00    -0.029 A 
ATOM     14  C   UNL     1       0.054  -0.856  -1.164  0.00  0.00    +0.006 A 
ATOM     15  C   UNL     1       0.751  -2.046  -1.154  0.00  0.00    +0.013 A 
ATOM     16  C   UNL     1       1.212  -2.575   0.053  0.00  0.00    +0.039 A 
ATOM     17  C   UNL     1       0.966  -1.895   1.246  0.00  0.00    +0.036 A 
ATOM     18  C   UNL     1       0.270  -0.697   1.224  0.00  0.00    +0.036 A 
BRANCH  16  19
ATOM     19  C   UNL     1       1.958  -3.851   0.067  0.00  0.00    +0.249 C 
ATOM     20  O   UNL     1       2.358  -4.310   1.119  0.00  0.00    -0.270 OA
ATOM     21  N   UNL     1       2.194  -4.506  -1.087  0.00  0.00    -0.264 N 
ATOM     22  C   UNL     1       2.898  -5.710  -1.073  0.00  0.00    +0.168 A 
ATOM     23  C   UNL     1       3.414  -6.359   0.071  0.00  0.00    +0.088 A 
ATOM     24  C   UNL     1       4.024  -7.489  -0.330  0.00  0.00    +0.232 A 
ATOM     25  O   UNL     1       3.913  -7.574  -1.665  0.00  0.00    -0.361 OA
ATOM     26  N   UNL     1       3.192  -6.442  -2.118  0.00  0.00    -0.063 NA
ATOM     27  H   UNL     1       1.875  -4.141  -1.926  0.00  0.00    +0.157 HD
ENDBRANCH  16  19
ENDBRANCH   1  18
BRANCH   6  28
ATOM     28  C   UNL     1      -0.453  -0.203   8.407  0.00  0.00    +0.068 A 
ATOM     29  C   UNL     1      -1.152  -1.336   8.803  0.00  0.00    +0.028 A 
ATOM     30  C   UNL     1      -1.252  -1.650  10.144  0.00  0.00    +0.002 A 
ATOM     31  C   UNL     1      -0.657  -0.838  11.092  0.00  0.00    +0.000 A 
ATOM     32  C   UNL     1       0.039   0.291  10.701  0.00  0.00    +0.002 A 
ATOM     33  C   UNL     1       0.148   0.607   9.361  0.00  0.00    +0.028 A 
ENDBRANCH   6  28
TORSDOF 3
