REMARK  Name = CHEMBL495118
REMARK  3 active torsions:
REMARK  status: ('A' for Active; 'I' for Inactive)
REMARK    1  A    between atoms: C_1  and  C_2
REMARK    2  A    between atoms: C_13  and  C_19
REMARK    3  A    between atoms: N_28  and  C_29
REMARK                            x       y       z     vdW  Elec       q    Type
REMARK                         _______ _______ _______ _____ _____    ______ ____
ROOT
ATOM      1  C   UNL     1      -1.361  -0.757   2.435  0.00  0.00    +0.030 C 
ATOM      2  C   UNL     1      -0.523  -1.259   1.258  0.00  0.00    +0.097 C 
ATOM      3  C   UNL     1      -1.342  -1.170  -0.035  0.00  0.00    +0.182 C 
ATOM      4  O   UNL     1      -0.496  -1.463  -1.149  0.00  0.00    -0.376 OA
ATOM      5  C   UNL     1       0.582  -0.540  -1.324  0.00  0.00    +0.179 C 
ATOM      6  C   UNL     1       1.499  -0.597  -0.098  0.00  0.00    +0.135 C 
ATOM      7  N   UNL     1       0.675  -0.418   1.108  0.00  0.00    -0.308 N 
ATOM      8  C   UNL     1       1.016   0.515   2.073  0.00  0.00    +0.123 A 
ATOM      9  C   UNL     1       1.866   0.163   3.146  0.00  0.00    +0.023 A 
ATOM     10  C   UNL     1       2.401  -1.123   3.293  0.00  0.00    +0.012 A 
ATOM     11  C   UNL     1       3.213  -1.399   4.348  0.00  0.00    +0.009 A 
ATOM     12  C   UNL     1       3.525  -0.413   5.297  0.00  0.00    -0.012 A 
ATOM     13  C   UNL     1       3.010   0.868   5.178  0.00  0.00    +0.018 A 
ATOM     14  C   UNL     1       2.174   1.169   4.099  0.00  0.00    +0.006 A 
ATOM     15  C   UNL     1       1.612   2.447   3.908  0.00  0.00    +0.141 A 
ATOM     16  N   UNL     1       0.836   2.655   2.870  0.00  0.00    -0.180 NA
ATOM     17  N   UNL     1       0.558   1.753   2.004  0.00  0.00    -0.264 N 
ATOM     18  H   UNL     1      -0.021   1.989   1.262  0.00  0.00    +0.190 HD
ENDROOT
BRANCH  12  19
ATOM     19  C   UNL     1       4.413  -0.744   6.437  0.00  0.00    +0.046 A 
ATOM     20  C   UNL     1       3.919  -0.724   7.737  0.00  0.00    +0.052 A 
ATOM     21  C   UNL     1       4.745  -1.033   8.806  0.00  0.00    +0.021 A 
ATOM     22  C   UNL     1       6.066  -1.364   8.596  0.00  0.00    +0.016 A 
ATOM     23  C   UNL     1       6.580  -1.390   7.298  0.00  0.00    +0.063 A 
ATOM     24  C   UNL     1       5.752  -1.085   6.209  0.00  0.00    +0.178 A 
ATOM     25  O   UNL     1       6.500  -1.196   5.093  0.00  0.00    -0.352 OA
ATOM     26  N   UNL     1       7.815  -1.578   5.443  0.00  0.00    -0.062 NA
ATOM     27  C   UNL     1       7.907  -1.694   6.739  0.00  0.00    +0.169 A 
ATOM     28  N   UNL     1       9.039  -2.054   7.456  0.00  0.00    -0.329 N 
ATOM     29  C   UNL     1      10.295  -2.326   6.752  0.00  0.00    +0.127 C 
ATOM     30 CL   UNL     1       2.258  -0.308   8.023  0.00  0.00    -0.083 Cl
ATOM     31  H   UNL     1       8.999  -2.125   8.422  0.00  0.00    +0.147 HD
ENDBRANCH  12  19
TORSDOF 1
