REMARK  Name = CHEMBL384795
REMARK  4 active torsions:
REMARK  status: ('A' for Active; 'I' for Inactive)
REMARK    1  A    between atoms: C_1  and  C_2
REMARK    2  A    between atoms: C_2  and  C_6
REMARK    3  A    between atoms: C_12  and  C_15
REMARK    4  A    between atoms: C_16  and  C_20
REMARK                            x       y       z     vdW  Elec       q    Type
REMARK                         _______ _______ _______ _____ _____    ______ ____
ROOT
ATOM      1  C   UNL     1       0.187  -0.628  -1.130  0.00  0.00    +0.144 A 
ATOM      2  N   UNL     1       1.107  -1.548  -1.259  0.00  0.00    -0.133 NA
ATOM      3  N   UNL     1       1.308  -1.808  -2.503  0.00  0.00    -0.129 NA
ATOM      4  C   UNL     1       0.513  -1.054  -3.246  0.00  0.00    +0.161 A 
ATOM      5  N   UNL     1      -0.227  -0.285  -2.381  0.00  0.00    -0.285 N 
ATOM      6  C   UNL     1      -1.149   0.599  -2.855  0.00  0.00    +0.106 A 
ATOM      7  C   UNL     1      -1.352   0.730  -4.198  0.00  0.00    +0.036 A 
ATOM      8  C   UNL     1      -0.602  -0.056  -5.109  0.00  0.00    +0.017 A 
ATOM      9  C   UNL     1       0.322  -0.930  -4.637  0.00  0.00    +0.049 A 
ENDROOT
BRANCH   1  11
ATOM     10  C   UNL     1      -0.331   1.474   0.180  0.00  0.00    +0.019 C 
ATOM     11  C   UNL     1      -0.326  -0.056   0.166  0.00  0.00    +0.028 C 
ATOM     12  C   UNL     1      -1.651  -0.681   0.635  0.00  0.00    +0.014 C 
ATOM     13  C   UNL     1      -1.074  -0.638   2.061  0.00  0.00    +0.002 C 
ATOM     14  C   UNL     1       0.320  -0.681   1.414  0.00  0.00    +0.014 C 
ENDBRANCH   1  11
BRANCH   7  15
ATOM     15  C   UNL     1      -2.354   1.690  -4.702  0.00  0.00    +0.164 A 
ATOM     16  C   UNL     1      -3.424   1.409  -5.526  0.00  0.00    +0.120 A 
ATOM     17  N   UNL     1      -4.076   2.572  -5.737  0.00  0.00    -0.215 NA
ATOM     18  C   UNL     1      -3.463   3.522  -5.093  0.00  0.00    +0.309 A 
ATOM     19  O   UNL     1      -2.406   3.015  -4.443  0.00  0.00    -0.442 OA
BRANCH  16  20
ATOM     20  C   UNL     1      -3.789   0.082  -6.076  0.00  0.00    +0.039 A 
ATOM     21  C   UNL     1      -3.831  -1.034  -5.241  0.00  0.00    +0.016 A 
ATOM     22  C   UNL     1      -4.171  -2.267  -5.757  0.00  0.00    +0.039 A 
ATOM     23  C   UNL     1      -4.471  -2.399  -7.104  0.00  0.00    +0.126 A 
ATOM     24  C   UNL     1      -4.430  -1.295  -7.939  0.00  0.00    +0.077 A 
ATOM     25  C   UNL     1      -4.098  -0.054  -7.431  0.00  0.00    +0.135 A 
ATOM     26  F   UNL     1      -4.064   1.024  -8.245  0.00  0.00    -0.205 F 
ATOM     27  F   UNL     1      -4.803  -3.610  -7.603  0.00  0.00    -0.205 F 
ENDBRANCH  16  20
ENDBRANCH   7  15
TORSDOF 3
