REMARK  Name = CHEMBL386033
REMARK  5 active torsions:
REMARK  status: ('A' for Active; 'I' for Inactive)
REMARK    1  A    between atoms: C_1  and  C_2
REMARK    2  A    between atoms: C_2  and  C_3
REMARK    3  A    between atoms: C_2  and  C_4
REMARK    4  A    between atoms: C_10  and  C_13
REMARK    5  A    between atoms: C_17  and  C_18
REMARK                            x       y       z     vdW  Elec       q    Type
REMARK                         _______ _______ _______ _____ _____    ______ ____
ROOT
ATOM      1  C   UNL     1      -1.866  -3.204  -4.140  0.00  0.00    +0.050 A 
ATOM      2  C   UNL     1      -0.993  -4.307  -4.270  0.00  0.00    +0.165 A 
ATOM      3  N   UNL     1      -0.788  -4.519  -5.537  0.00  0.00    -0.085 NA
ATOM      4  O   UNL     1      -1.519  -3.563  -6.282  0.00  0.00    -0.354 OA
ATOM      5  C   UNL     1      -2.177  -2.769  -5.415  0.00  0.00    +0.178 A 
ENDROOT
BRANCH   1  12
ATOM      6  C   UNL     1      -1.412  -0.526   0.013  0.00  0.00    +0.140 A 
ATOM      7  N   UNL     1      -2.313  -0.299   0.933  0.00  0.00    -0.133 NA
ATOM      8  N   UNL     1      -3.415  -0.893   0.635  0.00  0.00    -0.129 NA
ATOM      9  C   UNL     1      -3.271  -1.540  -0.510  0.00  0.00    +0.161 A 
ATOM     10  N   UNL     1      -1.986  -1.314  -0.937  0.00  0.00    -0.286 N 
ATOM     11  C   UNL     1      -1.538  -1.853  -2.106  0.00  0.00    +0.103 A 
ATOM     12  C   UNL     1      -2.362  -2.622  -2.869  0.00  0.00    +0.004 A 
ATOM     13  C   UNL     1      -3.692  -2.867  -2.452  0.00  0.00    +0.014 A 
ATOM     14  C   UNL     1      -4.138  -2.338  -1.284  0.00  0.00    +0.049 A 
BRANCH   6  16
ATOM     15  C   UNL     1      -0.019   1.526   0.010  0.00  0.00    +0.015 C 
ATOM     16  C   UNL     1       0.002  -0.004   0.002  0.00  0.00    +0.051 C 
ATOM     17  C   UNL     1       0.742  -0.511   1.242  0.00  0.00    +0.015 C 
ENDBRANCH   6  16
ENDBRANCH   1  12
BRANCH   5  18
ATOM     18  C   UNL     1      -3.064  -1.643  -5.762  0.00  0.00    +0.058 A 
ATOM     19  C   UNL     1      -3.677  -0.895  -4.754  0.00  0.00    +0.052 A 
ATOM     20  C   UNL     1      -4.505   0.158  -5.086  0.00  0.00    +0.124 A 
ATOM     21  C   UNL     1      -4.729   0.476  -6.417  0.00  0.00    +0.041 A 
ATOM     22  C   UNL     1      -4.125  -0.259  -7.421  0.00  0.00    +0.042 A 
ATOM     23  C   UNL     1      -3.290  -1.313  -7.103  0.00  0.00    +0.134 A 
ATOM     24  F   UNL     1      -2.696  -2.027  -8.085  0.00  0.00    -0.205 F 
ATOM     25  F   UNL     1      -5.099   0.881  -4.112  0.00  0.00    -0.205 F 
ENDBRANCH   5  18
TORSDOF 3
