REMARK  Name = CHEMBL411632
REMARK  6 active torsions:
REMARK  status: ('A' for Active; 'I' for Inactive)
REMARK    1  A    between atoms: C_1  and  C_2
REMARK    2  A    between atoms: C_5  and  N_18
REMARK    3  A    between atoms: C_7  and  C_8
REMARK    4  A    between atoms: N_10  and  C_11
REMARK    5  A    between atoms: C_19  and  C_21
REMARK    6  A    between atoms: C_25  and  C_27
REMARK                            x       y       z     vdW  Elec       q    Type
REMARK                         _______ _______ _______ _____ _____    ______ ____
ROOT
ATOM      1  C   UNL     1      -0.191   1.620  -0.186  0.00  0.00    +0.044 C 
ATOM      2  C   UNL     1      -0.090   0.118  -0.111  0.00  0.00    -0.038 A 
ATOM      3  C   UNL     1      -0.199  -0.639  -1.260  0.00  0.00    +0.006 A 
ATOM      4  C   UNL     1      -0.107  -2.017  -1.196  0.00  0.00    +0.023 A 
ATOM      5  C   UNL     1       0.098  -2.649   0.025  0.00  0.00    +0.034 A 
ATOM      6  C   UNL     1       0.209  -1.897   1.184  0.00  0.00    +0.036 A 
ATOM      7  C   UNL     1       0.121  -0.507   1.119  0.00  0.00    +0.042 A 
ENDROOT
BRANCH   7   8
ATOM      8  C   UNL     1       0.245   0.302   2.350  0.00  0.00    +0.249 C 
ATOM      9  O   UNL     1       0.091   1.507   2.304  0.00  0.00    -0.270 OA
ATOM     10  N   UNL     1       0.529  -0.296   3.524  0.00  0.00    -0.279 N 
ATOM     11  H   UNL     1       0.575  -1.264   3.577  0.00  0.00    +0.155 HD
BRANCH  10  12
ATOM     12  C   UNL     1       0.757   0.480   4.669  0.00  0.00    +0.070 A 
ATOM     13  C   UNL     1       1.234   1.783   4.563  0.00  0.00    +0.139 A 
ATOM     14  N   UNL     1       1.438   2.485   5.665  0.00  0.00    -0.221 NA
ATOM     15  C   UNL     1       1.193   1.962   6.858  0.00  0.00    +0.213 A 
ATOM     16  N   UNL     1       0.739   0.726   6.997  0.00  0.00    -0.221 NA
ATOM     17  C   UNL     1       0.506  -0.033   5.939  0.00  0.00    +0.139 A 
ATOM     18  N   UNL     1       1.420   2.729   7.990  0.00  0.00    -0.327 N 
ATOM     19  H   UNL     1       1.753   3.636   7.903  0.00  0.00    +0.145 HD
ATOM     20  H   UNL     1       1.245   2.359   8.869  0.00  0.00    +0.145 HD
ENDBRANCH  10  12
ENDBRANCH   7   8
BRANCH   5  21
ATOM     21  N   UNL     1       0.190  -4.043   0.083  0.00  0.00    -0.281 N 
ATOM     22  C   UNL     1      -0.292  -4.706   1.153  0.00  0.00    +0.248 C 
ATOM     23  O   UNL     1      -0.894  -4.104   2.021  0.00  0.00    -0.270 OA
ATOM     24  H   UNL     1       0.601  -4.533  -0.646  0.00  0.00    +0.155 HD
BRANCH  22  25
ATOM     25  C   UNL     1      -0.089  -6.166   1.272  0.00  0.00    +0.038 A 
ATOM     26  C   UNL     1       0.607  -6.859   0.280  0.00  0.00    +0.013 A 
ATOM     27  C   UNL     1       0.793  -8.221   0.396  0.00  0.00    +0.001 A 
ATOM     28  C   UNL     1       0.292  -8.900   1.493  0.00  0.00    +0.012 A 
ATOM     29  C   UNL     1      -0.399  -8.218   2.480  0.00  0.00    +0.056 A 
ATOM     30  C   UNL     1      -0.587  -6.855   2.378  0.00  0.00    +0.025 A 
BRANCH  29  31
ATOM     31  C   UNL     1      -0.941  -8.965   3.671  0.00  0.00    +0.417 C 
ATOM     32  F   UNL     1      -0.623 -10.323   3.554  0.00  0.00    -0.166 F 
ATOM     33  F   UNL     1      -0.373  -8.452   4.841  0.00  0.00    -0.166 F 
ATOM     34  F   UNL     1      -2.331  -8.815   3.722  0.00  0.00    -0.166 F 
ENDBRANCH  29  31
ENDBRANCH  22  25
ENDBRANCH   5  21
TORSDOF 5
