REMARK  Name = CHEMBL1173078
REMARK  7 active torsions:
REMARK  status: ('A' for Active; 'I' for Inactive)
REMARK    1  A    between atoms: C_1  and  C_2
REMARK    2  A    between atoms: C_2  and  C_4
REMARK    3  A    between atoms: C_2  and  N_7
REMARK    4  A    between atoms: C_4  and  C_5
REMARK    5  A    between atoms: C_4  and  C_6
REMARK    6  A    between atoms: N_7  and  C_8
REMARK    7  A    between atoms: C_15  and  C_22
REMARK                            x       y       z     vdW  Elec       q    Type
REMARK                         _______ _______ _______ _____ _____    ______ ____
ROOT
ATOM      1  C   UNL     1      -2.067  -0.638  -1.169  0.00  0.00    +0.088 C 
ATOM      2  C   UNL     1      -3.364  -1.107  -1.155  0.00  0.00    +0.049 C 
ATOM      3  C   UNL     1      -4.051  -1.254  -2.371  0.00  0.00    +0.002 C 
ATOM      4  C   UNL     1      -3.387  -0.916  -3.575  0.00  0.00    +0.025 C 
ATOM      5  C   UNL     1      -2.117  -0.462  -3.532  0.00  0.00    +0.074 C 
ATOM      6  N   UNL     1      -1.466  -0.319  -2.348  0.00  0.00    -0.309 N 
ATOM      7  C   UNL     1      -5.427  -1.749  -2.394  0.00  0.00    +0.064 C 
ATOM      8  C   UNL     1      -6.262  -1.842  -3.501  0.00  0.00    +0.064 C 
ATOM      9  N   UNL     1      -7.432  -2.346  -3.081  0.00  0.00    -0.267 N 
ATOM     10  H   UNL     1      -8.202  -2.518  -3.646  0.00  0.00    +0.156 HD
ATOM     11  C   UNL     1      -7.378  -2.573  -1.778  0.00  0.00    +0.308 C 
ATOM     12  O   UNL     1      -8.288  -3.032  -1.102  0.00  0.00    -0.252 OA
ATOM     13  N   UNL     1      -6.162  -2.227  -1.313  0.00  0.00    -0.267 N 
ATOM     14  H   UNL     1      -5.856  -2.296  -0.395  0.00  0.00    +0.156 HD
ATOM     15  H   UNL     1      -0.555   0.014  -2.342  0.00  0.00    +0.153 HD
ENDROOT
BRANCH   8  16
ATOM     16  C   UNL     1      -5.923  -1.456  -4.889  0.00  0.00    -0.002 A 
ATOM     17  C   UNL     1      -5.458  -2.416  -5.789  0.00  0.00    +0.012 A 
ATOM     18  C   UNL     1      -5.143  -2.051  -7.081  0.00  0.00    +0.039 A 
ATOM     19  C   UNL     1      -5.288  -0.733  -7.487  0.00  0.00    +0.123 A 
ATOM     20  C   UNL     1      -5.749   0.224  -6.597  0.00  0.00    +0.039 A 
ATOM     21  C   UNL     1      -6.073  -0.133  -5.304  0.00  0.00    +0.012 A 
ATOM     22  F   UNL     1      -4.977  -0.381  -8.753  0.00  0.00    -0.205 F 
ENDBRANCH   8  16
BRANCH   1  23
ATOM     23  N   UNL     1      -1.380  -0.488   0.013  0.00  0.00    -0.329 N 
ATOM     24  H   UNL     1      -1.807  -0.715   0.854  0.00  0.00    +0.148 HD
BRANCH  23  26
ATOM     25  C   UNL     1      -0.021   1.546  -0.013  0.00  0.00    +0.028 C 
ATOM     26  C   UNL     1      -0.004   0.016   0.002  0.00  0.00    +0.071 C 
BRANCH  26  27
ATOM     27  C   UNL     1       0.728  -0.474   1.253  0.00  0.00    +0.003 C 
ATOM     28  C   UNL     1       0.745  -2.004   1.268  0.00  0.00    +0.009 C 
ATOM     29  C   UNL     1       2.165   0.051   1.241  0.00  0.00    +0.009 C 
ENDBRANCH  26  27
ENDBRANCH  23  26
ENDBRANCH   1  23
TORSDOF 4
