REMARK  Name = CHEMBL270599
REMARK  4 active torsions:
REMARK  status: ('A' for Active; 'I' for Inactive)
REMARK    1  A    between atoms: C_5  and  C_7
REMARK    2  A    between atoms: C_9  and  O_27
REMARK    3  A    between atoms: C_14  and  O_26
REMARK    4  A    between atoms: N_17  and  C_18
REMARK                            x       y       z     vdW  Elec       q    Type
REMARK                         _______ _______ _______ _____ _____    ______ ____
ROOT
ATOM      1  C   UNL     1       1.246  -2.166  -0.022  0.00  0.00    -0.008 A 
ATOM      2  C   UNL     1       0.743  -2.866  -1.116  0.00  0.00    +0.054 A 
ATOM      3  C   UNL     1       0.768  -4.252  -1.121  0.00  0.00    +0.119 A 
ATOM      4  C   UNL     1       1.293  -4.942  -0.039  0.00  0.00    +0.069 A 
ATOM      5  C   UNL     1       1.795  -4.247   1.053  0.00  0.00    +0.049 A 
ATOM      6  C   UNL     1       1.778  -2.860   1.061  0.00  0.00    -0.015 A 
ATOM      7  C   UNL     1       2.329  -2.109   2.244  0.00  0.00    +0.078 C 
ATOM      8  C   UNL     1       2.065  -2.904   3.523  0.00  0.00    +0.205 C 
ATOM      9  C   UNL     1       2.485  -4.337   3.332  0.00  0.00    +0.253 C 
ATOM     10  O   UNL     1       2.963  -4.950   4.262  0.00  0.00    -0.272 OA
ATOM     11  N   UNL     1       2.326  -4.944   2.145  0.00  0.00    -0.235 N 
ENDROOT
BRANCH  11  12
ATOM     12  C   UNL     1       2.708  -6.284   1.996  0.00  0.00    +0.078 A 
ATOM     13  C   UNL     1       1.791  -7.301   2.230  0.00  0.00    +0.064 A 
ATOM     14  C   UNL     1       2.172  -8.621   2.081  0.00  0.00    +0.022 A 
ATOM     15  C   UNL     1       3.465  -8.930   1.700  0.00  0.00    +0.003 A 
ATOM     16  C   UNL     1       4.381  -7.921   1.468  0.00  0.00    +0.022 A 
ATOM     17  C   UNL     1       4.005  -6.598   1.609  0.00  0.00    +0.064 A 
ATOM     18 CL   UNL     1       5.154  -5.332   1.309  0.00  0.00    -0.082 Cl
ATOM     19 CL   UNL     1       0.168  -6.913   2.708  0.00  0.00    -0.082 Cl
ENDBRANCH  11  12
BRANCH   1  24
ATOM     20  C   UNL     1      -0.017   1.376   0.010  0.00  0.00    +0.001 A 
ATOM     21  C   UNL     1       1.170   2.087   0.002  0.00  0.00    +0.001 A 
ATOM     22  C   UNL     1       2.382   1.420  -0.013  0.00  0.00    +0.020 A 
ATOM     23  C   UNL     1       2.413   0.039  -0.021  0.00  0.00    +0.049 A 
ATOM     24  C   UNL     1       1.219  -0.682  -0.013  0.00  0.00    +0.001 A 
ATOM     25  C   UNL     1       0.002  -0.004   0.002  0.00  0.00    +0.010 A 
ATOM     26 CL   UNL     1       3.934  -0.797  -0.040  0.00  0.00    -0.083 Cl
ENDBRANCH   1  24
BRANCH   8  27
ATOM     27  O   UNL     1       0.670  -2.855   3.833  0.00  0.00    -0.382 OA
ATOM     28  H   UNL     1       0.428  -3.340   4.634  0.00  0.00    +0.210 HD
ENDBRANCH   8  27
BRANCH   3  29
ATOM     29  O   UNL     1       0.279  -4.935  -2.189  0.00  0.00    -0.507 OA
ATOM     30  H   UNL     1       0.935  -5.117  -2.875  0.00  0.00    +0.292 HD
ENDBRANCH   3  29
TORSDOF 4
