REMARK  Name = CHEMBL397975
REMARK  8 active torsions:
REMARK  status: ('A' for Active; 'I' for Inactive)
REMARK    1  A    between atoms: C_1  and  N_2
REMARK    2  A    between atoms: N_2  and  C_3
REMARK    3  A    between atoms: C_4  and  C_6
REMARK    4  A    between atoms: C_6  and  C_8
REMARK    5  A    between atoms: C_15  and  C_20
REMARK    6  A    between atoms: C_16  and  O_18
REMARK    7  A    between atoms: O_18  and  C_19
REMARK    8  A    between atoms: C_29  and  C_30
REMARK                            x       y       z     vdW  Elec       q    Type
REMARK                         _______ _______ _______ _____ _____    ______ ____
ROOT
ATOM      1  C   UNL     1      -4.498  -8.671  -0.870  0.00  0.00    +0.252 C 
ATOM      2  O   UNL     1      -5.328  -9.550  -0.736  0.00  0.00    -0.270 OA
ATOM      3  N   UNL     1      -3.200  -8.990  -1.044  0.00  0.00    -0.290 N 
ATOM      4  C   UNL     1      -2.779 -10.393  -1.176  0.00  0.00    +0.130 C 
ATOM      5  C   UNL     1      -2.186 -10.616  -2.572  0.00  0.00    +0.142 C 
ATOM      6  N   UNL     1      -1.260  -9.526  -2.881  0.00  0.00    -0.326 N 
ATOM      7  C   UNL     1      -1.236  -8.312  -2.239  0.00  0.00    +0.054 A 
ATOM      8  C   UNL     1      -0.266  -7.580  -2.801  0.00  0.00    +0.107 A 
ATOM      9  N   UNL     1       0.307  -8.316  -3.766  0.00  0.00    -0.345 N 
ATOM     10  C   UNL     1      -0.282  -9.493  -3.824  0.00  0.00    +0.122 A 
ATOM     11  C   UNL     1      -2.164  -7.942  -1.113  0.00  0.00    +0.163 C 
ATOM     12  H   UNL     1       1.039  -8.027  -4.332  0.00  0.00    +0.167 HD
ENDROOT
BRANCH   1  20
ATOM     13  C   UNL     1      -4.290  -3.803   0.706  0.00  0.00    +0.053 A 
ATOM     14  C   UNL     1      -5.109  -2.793   0.242  0.00  0.00    +0.097 A 
ATOM     15  N   UNL     1      -5.967  -3.293  -0.677  0.00  0.00    -0.345 N 
ATOM     16  H   UNL     1      -6.639  -2.772  -1.144  0.00  0.00    +0.167 HD
ATOM     17  C   UNL     1      -5.756  -4.641  -0.861  0.00  0.00    +0.143 A 
ATOM     18  C   UNL     1      -4.700  -5.024  -0.015  0.00  0.00    +0.031 A 
ATOM     19  C   UNL     1      -4.269  -6.344   0.001  0.00  0.00    +0.030 A 
ATOM     20  C   UNL     1      -4.912  -7.256  -0.842  0.00  0.00    +0.099 A 
ATOM     21  C   UNL     1      -5.958  -6.802  -1.663  0.00  0.00    +0.229 A 
ATOM     22  N   UNL     1      -6.342  -5.540  -1.644  0.00  0.00    -0.194 NA
BRANCH  13  23
ATOM     23  C   UNL     1      -3.228  -3.685   1.704  0.00  0.00    +0.249 C 
ATOM     24  O   UNL     1      -2.576  -4.662   2.016  0.00  0.00    -0.282 OA
BRANCH  23  28
ATOM     25  C   UNL     1      -1.653  -0.960   3.853  0.00  0.00    +0.132 C 
ATOM     26  N   UNL     1      -1.868  -2.220   3.138  0.00  0.00    -0.301 N 
ATOM     27  C   UNL     1      -0.915  -3.322   3.292  0.00  0.00    +0.132 C 
ATOM     28  C   UNL     1      -2.943  -2.365   2.338  0.00  0.00    +0.287 C 
ATOM     29  O   UNL     1      -3.680  -1.422   2.134  0.00  0.00    -0.266 OA
ENDBRANCH  23  28
ENDBRANCH  13  23
BRANCH  21  30
ATOM     30  O   UNL     1      -6.588  -7.676  -2.484  0.00  0.00    -0.479 OA
ATOM     31  C   UNL     1      -7.644  -7.158  -3.296  0.00  0.00    +0.279 C 
ENDBRANCH  21  30
ENDBRANCH   1  20
BRANCH  10  32
ATOM     32  C   UNL     1       0.062 -10.590  -4.753  0.00  0.00    +0.051 A 
ATOM     33  C   UNL     1      -0.945 -11.261  -5.449  0.00  0.00    +0.017 A 
ATOM     34  C   UNL     1      -0.618 -12.283  -6.315  0.00  0.00    +0.039 A 
ATOM     35  C   UNL     1       0.707 -12.646  -6.496  0.00  0.00    +0.126 A 
ATOM     36  C   UNL     1       1.712 -11.985  -5.810  0.00  0.00    +0.077 A 
ATOM     37  C   UNL     1       1.398 -10.955  -4.943  0.00  0.00    +0.137 A 
ATOM     38  F   UNL     1       2.379 -10.307  -4.278  0.00  0.00    -0.205 F 
ATOM     39  F   UNL     1       1.020 -13.649  -7.346  0.00  0.00    -0.205 F 
ENDBRANCH  10  32
TORSDOF 5
