REMARK  Name = CHEMBL411257
REMARK  9 active torsions:
REMARK  status: ('A' for Active; 'I' for Inactive)
REMARK    1  A    between atoms: C_1  and  C_2
REMARK    2  A    between atoms: C_5  and  N_31
REMARK    3  A    between atoms: C_7  and  N_8
REMARK    4  A    between atoms: C_11  and  C_30
REMARK    5  A    between atoms: C_12  and  C_18
REMARK    6  A    between atoms: N_20  and  C_21
REMARK    7  A    between atoms: C_21  and  C_23
REMARK    8  A    between atoms: C_21  and  C_24
REMARK    9  A    between atoms: C_32  and  C_34
REMARK                            x       y       z     vdW  Elec       q    Type
REMARK                         _______ _______ _______ _____ _____    ______ ____
ROOT
ATOM      1  N   UNL     1       0.252  -0.416   1.666  0.00  0.00    -0.297 N 
ATOM      2  C   UNL     1       0.412  -0.979   2.916  0.00  0.00    +0.151 A 
ATOM      3  C   UNL     1       0.471  -0.158   4.069  0.00  0.00    +0.109 A 
ATOM      4  C   UNL     1       0.401   1.202   4.265  0.00  0.00    -0.008 A 
ATOM      5  C   UNL     1       0.523   1.421   5.653  0.00  0.00    +0.060 A 
ATOM      6  C   UNL     1       0.664   0.180   6.253  0.00  0.00    +0.126 A 
ATOM      7  N   UNL     1       0.633  -0.765   5.302  0.00  0.00    -0.234 N 
ATOM      8  N   UNL     1       0.729  -2.163   5.347  0.00  0.00    -0.155 NA
ATOM      9  C   UNL     1       0.667  -2.859   4.246  0.00  0.00    +0.245 A 
ATOM     10  N   UNL     1       0.508  -2.291   3.052  0.00  0.00    -0.217 NA
ATOM     11  C   UNL     1       0.227   2.256   3.202  0.00  0.00    +0.047 C 
ATOM     12  H   UNL     1       0.245   0.548   1.565  0.00  0.00    +0.154 HD
ENDROOT
BRANCH   1  19
ATOM     13  C   UNL     1       0.766   0.706  -0.896  0.00  0.00    +0.045 C 
ATOM     14  C   UNL     1       0.339  -0.729  -0.727  0.00  0.00    -0.029 A 
ATOM     15  C   UNL     1       0.193  -1.541  -1.835  0.00  0.00    +0.007 A 
ATOM     16  C   UNL     1      -0.197  -2.857  -1.685  0.00  0.00    +0.024 A 
ATOM     17  C   UNL     1      -0.444  -3.370  -0.416  0.00  0.00    +0.035 A 
ATOM     18  C   UNL     1      -0.298  -2.558   0.699  0.00  0.00    +0.046 A 
ATOM     19  C   UNL     1       0.099  -1.237   0.544  0.00  0.00    +0.037 A 
BRANCH  17  20
ATOM     20  N   UNL     1      -0.840  -4.702  -0.265  0.00  0.00    -0.281 N 
ATOM     21  C   UNL     1      -0.417  -5.635  -1.142  0.00  0.00    +0.248 C 
ATOM     22  O   UNL     1       0.383  -5.337  -2.007  0.00  0.00    -0.270 OA
ATOM     23  H   UNL     1      -1.418  -4.956   0.471  0.00  0.00    +0.155 HD
BRANCH  21  24
ATOM     24  C   UNL     1      -0.927  -7.022  -1.051  0.00  0.00    +0.040 A 
ATOM     25  C   UNL     1      -1.853  -7.385  -0.067  0.00  0.00    +0.033 A 
ATOM     26  C   UNL     1      -2.303  -8.690  -0.019  0.00  0.00    +0.111 A 
ATOM     27  N   UNL     1      -1.872  -9.586  -0.884  0.00  0.00    -0.263 NA
ATOM     28  C   UNL     1      -1.000  -9.287  -1.827  0.00  0.00    +0.111 A 
ATOM     29  C   UNL     1      -0.502  -8.005  -1.950  0.00  0.00    +0.033 A 
ENDBRANCH  21  24
ENDBRANCH  17  20
ENDBRANCH   1  19
BRANCH   5  30
ATOM     30  C   UNL     1       0.504   2.727   6.338  0.00  0.00    +0.246 C 
ATOM     31  O   UNL     1       0.374   3.750   5.694  0.00  0.00    -0.270 OA
ATOM     32  N   UNL     1       0.632   2.787   7.678  0.00  0.00    -0.305 N 
ATOM     33  H   UNL     1       0.737   1.970   8.193  0.00  0.00    +0.150 HD
BRANCH  32  34
ATOM     34  C   UNL     1       0.614   4.084   8.359  0.00  0.00    +0.100 C 
ATOM     35  C   UNL     1      -0.834   4.499   8.626  0.00  0.00    +0.033 C 
BRANCH  34  36
ATOM     36  C   UNL     1       1.355   3.975   9.667  0.00  0.00    -0.027 A 
ATOM     37  C   UNL     1       1.216   2.843  10.448  0.00  0.00    +0.005 A 
ATOM     38  C   UNL     1       1.895   2.744  11.648  0.00  0.00    +0.000 A 
ATOM     39  C   UNL     1       2.714   3.776  12.066  0.00  0.00    +0.000 A 
ATOM     40  C   UNL     1       2.853   4.908  11.285  0.00  0.00    +0.000 A 
ATOM     41  C   UNL     1       2.177   5.006  10.083  0.00  0.00    +0.005 A 
ENDBRANCH  34  36
ENDBRANCH  32  34
ENDBRANCH   5  30
TORSDOF 6
