REMARK  Name = CHEMBL206187
REMARK  5 active torsions:
REMARK  status: ('A' for Active; 'I' for Inactive)
REMARK    1  A    between atoms: C_3  and  C_23
REMARK    2  A    between atoms: C_5  and  C_7
REMARK    3  A    between atoms: C_7  and  C_9
REMARK    4  A    between atoms: N_12  and  C_15
REMARK    5  A    between atoms: C_13  and  N_14
REMARK                            x       y       z     vdW  Elec       q    Type
REMARK                         _______ _______ _______ _____ _____    ______ ____
ROOT
ATOM      1  C   UNL     1      -0.001  -2.936   0.120  0.00  0.00    +0.081 A 
ATOM      2  C   UNL     1      -1.300  -2.372   0.086  0.00  0.00    +0.148 A 
ATOM      3  N   UNL     1      -2.167  -3.339   0.191  0.00  0.00    -0.172 NA
ATOM      4  N   UNL     1      -1.489  -4.558   0.298  0.00  0.00    -0.215 N 
ATOM      5  C   UNL     1      -0.161  -4.317   0.248  0.00  0.00    +0.131 A 
ENDROOT
BRANCH   4   6
ATOM      6  C   UNL     1      -2.089  -5.820   0.427  0.00  0.00    +0.103 A 
ATOM      7  C   UNL     1      -1.645  -6.704   1.402  0.00  0.00    +0.033 A 
ATOM      8  C   UNL     1      -2.236  -7.946   1.528  0.00  0.00    +0.040 A 
ATOM      9  C   UNL     1      -3.271  -8.311   0.684  0.00  0.00    +0.126 A 
ATOM     10  C   UNL     1      -3.716  -7.433  -0.289  0.00  0.00    +0.078 A 
ATOM     11  C   UNL     1      -3.132  -6.186  -0.416  0.00  0.00    +0.151 A 
ATOM     12  F   UNL     1      -3.570  -5.326  -1.361  0.00  0.00    -0.203 F 
ATOM     13  F   UNL     1      -3.847  -9.527   0.810  0.00  0.00    -0.205 F 
ENDBRANCH   4   6
BRANCH   5  14
ATOM     14  N   UNL     1       0.846  -5.256   0.316  0.00  0.00    -0.342 N 
ATOM     15  H   UNL     1       1.771  -4.984   0.204  0.00  0.00    +0.144 HD
ATOM     16  H   UNL     1       0.630  -6.188   0.476  0.00  0.00    +0.144 HD
ENDBRANCH   5  14
BRANCH   1  17
ATOM     17  C   UNL     1       1.269  -2.209   0.031  0.00  0.00    +0.198 C 
ATOM     18  O   UNL     1       2.318  -2.822  -0.034  0.00  0.00    -0.286 OA
BRANCH  17  23
ATOM     19  C   UNL     1       0.260   1.359   0.650  0.00  0.00    +0.001 A 
ATOM     20  C   UNL     1       1.272   2.048   0.010  0.00  0.00    +0.008 A 
ATOM     21  C   UNL     1       2.297   1.352  -0.631  0.00  0.00    -0.017 A 
ATOM     22  C   UNL     1       2.299  -0.040  -0.625  0.00  0.00    +0.020 A 
ATOM     23  C   UNL     1       1.275  -0.730   0.021  0.00  0.00    +0.023 A 
ATOM     24  C   UNL     1       0.254  -0.021   0.659  0.00  0.00    +0.012 A 
BRANCH  21  25
ATOM     25  C   UNL     1       3.383   2.094  -1.317  0.00  0.00    -0.015 A 
ATOM     26  C   UNL     1       4.415   1.414  -1.970  0.00  0.00    +0.028 A 
ATOM     27  C   UNL     1       5.405   2.143  -2.597  0.00  0.00    +0.111 A 
ATOM     28  N   UNL     1       5.386   3.462  -2.584  0.00  0.00    -0.263 NA
ATOM     29  C   UNL     1       4.430   4.141  -1.980  0.00  0.00    +0.111 A 
ATOM     30  C   UNL     1       3.398   3.491  -1.334  0.00  0.00    +0.028 A 
ENDBRANCH  21  25
ENDBRANCH  17  23
ENDBRANCH   1  17
TORSDOF 5
