REMARK  Name = CHEMBL129628
REMARK  6 active torsions:
REMARK  status: ('A' for Active; 'I' for Inactive)
REMARK    1  A    between atoms: C_1  and  O_2
REMARK    2  A    between atoms: O_2  and  C_3
REMARK    3  A    between atoms: C_3  and  C_5
REMARK    4  A    between atoms: C_8  and  N_12
REMARK    5  A    between atoms: C_16  and  S_23
REMARK    6  A    between atoms: S_23  and  C_24
REMARK                            x       y       z     vdW  Elec       q    Type
REMARK                         _______ _______ _______ _____ _____    ______ ____
ROOT
ATOM      1  N   UNL     1       0.892  -6.249   1.329  0.00  0.00    -0.220 N 
ATOM      2  C   UNL     1      -0.156  -6.933   1.951  0.00  0.00    +0.066 A 
ATOM      3  C   UNL     1      -1.239  -6.243   2.490  0.00  0.00    +0.028 A 
ATOM      4  C   UNL     1      -2.247  -6.972   3.094  0.00  0.00    +0.037 A 
ATOM      5  C   UNL     1      -2.149  -8.360   3.143  0.00  0.00    +0.102 A 
ATOM      6  N   UNL     1      -1.104  -8.984   2.619  0.00  0.00    -0.242 NA
ATOM      7  C   UNL     1      -0.128  -8.319   2.038  0.00  0.00    +0.081 A 
ATOM      8  C   UNL     1       1.061  -9.039   1.443  0.00  0.00    +0.163 C 
ATOM      9  N   UNL     1       2.101  -8.208   0.815  0.00  0.00    -0.293 N 
ATOM     10  C   UNL     1       1.950  -6.871   0.792  0.00  0.00    +0.311 C 
ATOM     11  O   UNL     1       2.814  -6.197   0.266  0.00  0.00    -0.252 OA
ATOM     12  H   UNL     1       2.885  -8.619   0.418  0.00  0.00    +0.151 HD
ENDROOT
BRANCH   1  16
ATOM     13  C   UNL     1       0.708  -2.090   1.121  0.00  0.00    +0.062 A 
ATOM     14  C   UNL     1       0.156  -2.867   0.099  0.00  0.00    +0.037 A 
ATOM     15  C   UNL     1       0.218  -4.242   0.170  0.00  0.00    +0.065 A 
ATOM     16  C   UNL     1       0.830  -4.856   1.260  0.00  0.00    +0.079 A 
ATOM     17  C   UNL     1       1.381  -4.085   2.279  0.00  0.00    +0.065 A 
ATOM     18  C   UNL     1       1.327  -2.710   2.211  0.00  0.00    +0.037 A 
ATOM     19 CL   UNL     1       2.141  -4.856   3.636  0.00  0.00    -0.082 Cl
ATOM     20 CL   UNL     1      -0.467  -5.208  -1.098  0.00  0.00    -0.082 Cl
BRANCH  13  21
ATOM     21  C   UNL     1       0.643  -0.619   1.048  0.00  0.00    +0.339 C 
ATOM     22  O   UNL     1       1.127   0.056   1.934  0.00  0.00    -0.245 OA
BRANCH  21  24
ATOM     23  C   UNL     1       0.018   1.407  -0.009  0.00  0.00    +0.280 C 
ATOM     24  O   UNL     1       0.045  -0.022  -0.003  0.00  0.00    -0.464 OA
ENDBRANCH  21  24
ENDBRANCH  13  21
ENDBRANCH   1  16
BRANCH   5  25
ATOM     25  S   UNL     1      -3.429  -9.297   3.910  0.00  0.00    -0.070 S 
BRANCH  25  26
ATOM     26  C   UNL     1      -2.985 -10.971   3.586  0.00  0.00    +0.014 A 
ATOM     27  C   UNL     1      -2.252 -11.690   4.523  0.00  0.00    +0.018 A 
ATOM     28  C   UNL     1      -1.905 -13.002   4.266  0.00  0.00    +0.039 A 
ATOM     29  C   UNL     1      -2.286 -13.600   3.077  0.00  0.00    +0.123 A 
ATOM     30  C   UNL     1      -3.015 -12.885   2.142  0.00  0.00    +0.039 A 
ATOM     31  C   UNL     1      -3.370 -11.575   2.396  0.00  0.00    +0.018 A 
ATOM     32  F   UNL     1      -1.944 -14.883   2.828  0.00  0.00    -0.205 F 
ENDBRANCH  25  26
ENDBRANCH   5  25
TORSDOF 5
