REMARK  Name = CHEMBL607557
REMARK  5 active torsions:
REMARK  status: ('A' for Active; 'I' for Inactive)
REMARK    1  A    between atoms: C_1  and  C_2
REMARK    2  A    between atoms: C_2  and  C_3
REMARK    3  A    between atoms: C_2  and  C_4
REMARK    4  A    between atoms: C_10  and  C_13
REMARK    5  A    between atoms: C_13  and  C_14
REMARK                            x       y       z     vdW  Elec       q    Type
REMARK                         _______ _______ _______ _____ _____    ______ ____
ROOT
ATOM      1  C   UNL     1      -1.412  -0.526   0.013  0.00  0.00    +0.124 C 
ATOM      2  N   UNL     1      -2.423   0.128   0.471  0.00  0.00    -0.174 NA
ATOM      3  N   UNL     1      -3.616  -0.597   0.324  0.00  0.00    -0.243 N 
ATOM      4  C   UNL     1      -3.265  -1.798  -0.445  0.00  0.00    +0.204 C 
ATOM      5  N   UNL     1      -1.786  -1.755  -0.470  0.00  0.00    -0.270 N 
ATOM      6  C   UNL     1      -1.030  -2.851  -0.846  0.00  0.00    +0.082 C 
ATOM      7  C   UNL     1      -1.552  -4.053  -0.504  0.00  0.00    -0.029 C 
ATOM      8  C   UNL     1      -2.818  -4.104   0.237  0.00  0.00    +0.004 C 
ATOM      9  C   UNL     1      -3.649  -3.059   0.289  0.00  0.00    +0.017 C 
ATOM     10  H   UNL     1      -4.492  -0.354   0.661  0.00  0.00    +0.170 HD
ENDROOT
BRANCH   1  12
ATOM     11  C   UNL     1      -0.019   1.526   0.010  0.00  0.00    +0.015 C 
ATOM     12  C   UNL     1       0.002  -0.004   0.002  0.00  0.00    +0.048 C 
ATOM     13  C   UNL     1       0.742  -0.511   1.242  0.00  0.00    +0.015 C 
ENDBRANCH   1  12
BRANCH   7  14
ATOM     14  C   UNL     1      -0.840  -5.326  -0.881  0.00  0.00    +0.074 C 
BRANCH  14  15
ATOM     15  C   UNL     1       0.022  -5.780   0.269  0.00  0.00    -0.008 A 
ATOM     16  C   UNL     1       1.358  -5.427   0.312  0.00  0.00    +0.009 A 
ATOM     17  C   UNL     1       2.149  -5.842   1.366  0.00  0.00    +0.039 A 
ATOM     18  C   UNL     1       1.604  -6.611   2.381  0.00  0.00    +0.126 A 
ATOM     19  C   UNL     1       0.267  -6.965   2.339  0.00  0.00    +0.077 A 
ATOM     20  C   UNL     1      -0.526  -6.544   1.285  0.00  0.00    +0.130 A 
ATOM     21  F   UNL     1      -1.833  -6.883   1.245  0.00  0.00    -0.205 F 
ATOM     22  F   UNL     1       2.378  -7.017   3.411  0.00  0.00    -0.205 F 
ENDBRANCH  14  15
ENDBRANCH   7  14
TORSDOF 3
