REMARK  Name = CHEMBL96225
REMARK  3 active torsions:
REMARK  status: ('A' for Active; 'I' for Inactive)
REMARK    1  A    between atoms: C_4  and  N_8
REMARK    2  A    between atoms: C_11  and  C_27
REMARK    3  A    between atoms: C_13  and  C_19
REMARK                            x       y       z     vdW  Elec       q    Type
REMARK                         _______ _______ _______ _____ _____    ______ ____
ROOT
ATOM      1  N   UNL     1       3.347  -1.216  -0.082  0.00  0.00    -0.221 N 
ATOM      2  C   UNL     1       4.045  -1.259  -1.292  0.00  0.00    +0.049 A 
ATOM      3  C   UNL     1       3.425  -0.889  -2.476  0.00  0.00    +0.037 A 
ATOM      4  C   UNL     1       4.133  -0.935  -3.678  0.00  0.00    +0.039 A 
ATOM      5  C   UNL     1       5.464  -1.353  -3.691  0.00  0.00    +0.022 A 
ATOM      6  C   UNL     1       6.084  -1.723  -2.500  0.00  0.00    -0.009 A 
ATOM      7  C   UNL     1       5.372  -1.674  -1.310  0.00  0.00    -0.001 A 
ATOM      8  C   UNL     1       6.011  -2.068   0.002  0.00  0.00    +0.143 C 
ATOM      9  N   UNL     1       5.170  -1.980   1.207  0.00  0.00    -0.295 N 
ATOM     10  C   UNL     1       3.899  -1.556   1.090  0.00  0.00    +0.311 C 
ATOM     11  O   UNL     1       3.217  -1.484   2.094  0.00  0.00    -0.252 OA
ATOM     12  H   UNL     1       5.529  -2.222   2.075  0.00  0.00    +0.151 HD
ENDROOT
BRANCH   4  13
ATOM     13  C   UNL     1       3.471  -0.541  -4.940  0.00  0.00    +0.247 C 
ATOM     14  O   UNL     1       3.698  -1.156  -5.963  0.00  0.00    -0.270 OA
ATOM     15  N   UNL     1       2.616   0.500  -4.955  0.00  0.00    -0.301 N 
ATOM     16  C   UNL     1       2.426   1.341  -3.763  0.00  0.00    +0.089 C 
ATOM     17  C   UNL     1       2.576   2.809  -4.175  0.00  0.00    -0.063 C 
ATOM     18  N   UNL     1       1.653   3.104  -5.278  0.00  0.00    +0.381 N 
ATOM     19  C   UNL     1       2.023   2.321  -6.463  0.00  0.00    -0.063 C 
ATOM     20  C   UNL     1       1.850   0.832  -6.166  0.00  0.00    +0.089 C 
ATOM     21  H   UNL     1       0.713   2.867  -5.000  0.00  0.00    -0.086 HD
ATOM     22  H   UNL     1       1.698   4.088  -5.498  0.00  0.00    -0.086 HD
ENDBRANCH   4  13
BRANCH   1  26
ATOM     23  C   UNL     1      -0.627   0.043  -0.122  0.00  0.00    +0.003 A 
ATOM     24  C   UNL     1       0.387   0.967   0.046  0.00  0.00    +0.022 A 
ATOM     25  C   UNL     1       1.706   0.553   0.059  0.00  0.00    +0.064 A 
ATOM     26  C   UNL     1       2.011  -0.793  -0.095  0.00  0.00    +0.079 A 
ATOM     27  C   UNL     1       0.989  -1.719  -0.263  0.00  0.00    +0.064 A 
ATOM     28  C   UNL     1      -0.327  -1.298  -0.277  0.00  0.00    +0.022 A 
ATOM     29 CL   UNL     1       1.365  -3.403  -0.458  0.00  0.00    -0.082 Cl
ATOM     30 CL   UNL     1       2.979   1.715   0.270  0.00  0.00    -0.082 Cl
ENDBRANCH   1  26
BRANCH   6  31
ATOM     31  C   UNL     1       7.500  -2.169  -2.504  0.00  0.00    +0.001 A 
ATOM     32  C   UNL     1       8.512  -1.277  -2.853  0.00  0.00    +0.013 A 
ATOM     33  C   UNL     1       9.826  -1.695  -2.856  0.00  0.00    +0.039 A 
ATOM     34  C   UNL     1      10.142  -3.000  -2.512  0.00  0.00    +0.125 A 
ATOM     35  C   UNL     1       9.140  -3.890  -2.165  0.00  0.00    +0.059 A 
ATOM     36  C   UNL     1       7.821  -3.479  -2.153  0.00  0.00    +0.051 A 
ATOM     37 CL   UNL     1       6.566  -4.594  -1.710  0.00  0.00    -0.083 Cl
ATOM     38  F   UNL     1      11.431  -3.404  -2.516  0.00  0.00    -0.205 F 
ENDBRANCH   6  31
TORSDOF 3
