REMARK  Name = CHEMBL497375
REMARK  5 active torsions:
REMARK  status: ('A' for Active; 'I' for Inactive)
REMARK    1  A    between atoms: C_1  and  C_2
REMARK    2  A    between atoms: C_5  and  C_18
REMARK    3  A    between atoms: C_7  and  C_8
REMARK    4  A    between atoms: N_20  and  C_21
REMARK    5  A    between atoms: C_25  and  N_27
REMARK                            x       y       z     vdW  Elec       q    Type
REMARK                         _______ _______ _______ _____ _____    ______ ____
ROOT
ATOM      1  C   UNL     1      -0.109   1.505  -0.025  0.00  0.00    +0.044 C 
ATOM      2  C   UNL     1      -0.068  -0.002  -0.028  0.00  0.00    -0.043 A 
ATOM      3  C   UNL     1      -0.067  -0.689  -1.226  0.00  0.00    +0.005 A 
ATOM      4  C   UNL     1      -0.030  -2.069  -1.237  0.00  0.00    +0.013 A 
ATOM      5  C   UNL     1       0.008  -2.778  -0.034  0.00  0.00    +0.038 A 
ATOM      6  C   UNL     1       0.007  -2.089   1.177  0.00  0.00    +0.021 A 
ATOM      7  C   UNL     1      -0.026  -0.698   1.180  0.00  0.00    -0.014 A 
ENDROOT
BRANCH   7   8
ATOM      8  C   UNL     1      -0.022   0.043   2.465  0.00  0.00    -0.017 A 
ATOM      9  C   UNL     1       0.885   1.099   2.656  0.00  0.00    +0.009 A 
ATOM     10  C   UNL     1       0.910   1.795   3.823  0.00  0.00    +0.009 A 
ATOM     11  C   UNL     1       0.021   1.458   4.855  0.00  0.00    -0.015 A 
ATOM     12  C   UNL     1       0.007   2.147   6.081  0.00  0.00    +0.028 A 
ATOM     13  C   UNL     1      -0.885   1.765   7.037  0.00  0.00    +0.111 A 
ATOM     14  N   UNL     1      -1.735   0.765   6.842  0.00  0.00    -0.263 NA
ATOM     15  C   UNL     1      -1.779   0.078   5.725  0.00  0.00    +0.119 A 
ATOM     16  C   UNL     1      -0.900   0.393   4.675  0.00  0.00    +0.001 A 
ATOM     17  C   UNL     1      -0.914  -0.309   3.461  0.00  0.00    +0.018 A 
ENDBRANCH   7   8
BRANCH   5  18
ATOM     18  C   UNL     1       0.048  -4.256  -0.046  0.00  0.00    +0.248 C 
ATOM     19  O   UNL     1       0.080  -4.871   1.001  0.00  0.00    -0.270 OA
ATOM     20  N   UNL     1       0.048  -4.920  -1.219  0.00  0.00    -0.281 N 
ATOM     21  H   UNL     1      -0.044  -4.433  -2.053  0.00  0.00    +0.155 HD
BRANCH  20  22
ATOM     22  C   UNL     1       0.180  -6.312  -1.234  0.00  0.00    +0.035 A 
ATOM     23  C   UNL     1      -0.393  -7.076  -0.224  0.00  0.00    +0.023 A 
ATOM     24  C   UNL     1      -0.263  -8.451  -0.238  0.00  0.00    +0.004 A 
ATOM     25  C   UNL     1       0.438  -9.072  -1.254  0.00  0.00    +0.023 A 
ATOM     26  C   UNL     1       1.014  -8.314  -2.266  0.00  0.00    +0.032 A 
ATOM     27  C   UNL     1       0.879  -6.933  -2.259  0.00  0.00    +0.046 A 
BRANCH  26  28
ATOM     28  N   UNL     1       1.723  -8.942  -3.293  0.00  0.00    -0.325 N 
ATOM     29  C   UNL     1       2.446  -8.156  -4.305  0.00  0.00    +0.133 C 
ATOM     30  C   UNL     1       3.878  -8.694  -4.403  0.00  0.00    +0.178 C 
ATOM     31  O   UNL     1       3.836 -10.109  -4.608  0.00  0.00    -0.377 OA
ATOM     32  C   UNL     1       3.234 -10.838  -3.536  0.00  0.00    +0.178 C 
ATOM     33  C   UNL     1       1.774 -10.409  -3.390  0.00  0.00    +0.133 C 
ENDBRANCH  26  28
ENDBRANCH  20  22
ENDBRANCH   5  18
TORSDOF 4
