REMARK  Name = CHEMBL359797
REMARK  8 active torsions:
REMARK  status: ('A' for Active; 'I' for Inactive)
REMARK    1  A    between atoms: C_1  and  C_2
REMARK    2  A    between atoms: C_5  and  N_25
REMARK    3  A    between atoms: C_7  and  N_8
REMARK    4  A    between atoms: N_15  and  C_16
REMARK    5  A    between atoms: C_16  and  C_17
REMARK    6  A    between atoms: C_17  and  C_18
REMARK    7  A    between atoms: C_18  and  N_19
REMARK    8  A    between atoms: C_26  and  C_28
REMARK                            x       y       z     vdW  Elec       q    Type
REMARK                         _______ _______ _______ _____ _____    ______ ____
ROOT
ATOM      1  C   UNL     1      -0.181   1.495   0.058  0.00  0.00    +0.045 C 
ATOM      2  C   UNL     1       0.232   0.048  -0.006  0.00  0.00    -0.029 A 
ATOM      3  C   UNL     1       0.486  -0.545  -1.228  0.00  0.00    +0.007 A 
ATOM      4  C   UNL     1       0.864  -1.872  -1.291  0.00  0.00    +0.024 A 
ATOM      5  C   UNL     1       0.991  -2.616  -0.124  0.00  0.00    +0.035 A 
ATOM      6  C   UNL     1       0.737  -2.024   1.105  0.00  0.00    +0.046 A 
ATOM      7  C   UNL     1       0.362  -0.689   1.165  0.00  0.00    +0.037 A 
ENDROOT
BRANCH   7   8
ATOM      8  N   UNL     1       0.112  -0.087   2.402  0.00  0.00    -0.299 N 
ATOM      9  C   UNL     1      -0.378  -0.845   3.455  0.00  0.00    +0.128 A 
ATOM     10  C   UNL     1      -0.511  -0.287   4.728  0.00  0.00    +0.061 A 
ATOM     11  C   UNL     1      -1.003  -1.079   5.747  0.00  0.00    +0.089 A 
ATOM     12  N   UNL     1      -1.332  -2.336   5.489  0.00  0.00    -0.334 N 
ATOM     13  C   UNL     1      -1.195  -2.840   4.271  0.00  0.00    +0.195 A 
ATOM     14  N   UNL     1      -0.733  -2.112   3.266  0.00  0.00    -0.201 NA
ATOM     15  N   UNL     1      -1.549  -4.158   4.043  0.00  0.00    -0.315 N 
ATOM     16  H   UNL     1       0.280   0.860   2.523  0.00  0.00    +0.154 HD
ATOM     17  H   UNL     1      -1.454  -4.540   3.156  0.00  0.00    +0.149 HD
ATOM     18  H   UNL     1      -1.678  -2.896   6.202  0.00  0.00    +0.168 HD
BRANCH  15  19
ATOM     19  C   UNL     1      -2.069  -4.978   5.140  0.00  0.00    +0.105 C 
BRANCH  19  20
ATOM     20  C   UNL     1      -2.381  -6.384   4.624  0.00  0.00    +0.034 C 
BRANCH  20  21
ATOM     21  C   UNL     1      -2.924  -7.240   5.770  0.00  0.00    +0.086 C 
BRANCH  21  22
ATOM     22  N   UNL     1      -3.223  -8.589   5.274  0.00  0.00    -0.298 NA
ATOM     23  C   UNL     1      -4.333  -8.562   4.310  0.00  0.00    +0.112 C 
ATOM     24  C   UNL     1      -4.572  -9.977   3.775  0.00  0.00    +0.175 C 
ATOM     25  O   UNL     1      -4.828 -10.859   4.871  0.00  0.00    -0.377 OA
ATOM     26  C   UNL     1      -3.767 -10.910   5.829  0.00  0.00    +0.175 C 
ATOM     27  C   UNL     1      -3.520  -9.505   6.385  0.00  0.00    +0.112 C 
ENDBRANCH  21  22
ENDBRANCH  20  21
ENDBRANCH  19  20
ENDBRANCH  15  19
ENDBRANCH   7   8
BRANCH   5  28
ATOM     28  N   UNL     1       1.373  -3.959  -0.188  0.00  0.00    -0.281 N 
ATOM     29  C   UNL     1       1.007  -4.714  -1.243  0.00  0.00    +0.248 C 
ATOM     30  O   UNL     1       0.268  -4.255  -2.092  0.00  0.00    -0.270 OA
ATOM     31  H   UNL     1       1.901  -4.348   0.526  0.00  0.00    +0.155 HD
BRANCH  29  32
ATOM     32  C   UNL     1       1.506  -6.103  -1.369  0.00  0.00    +0.042 A 
ATOM     33  C   UNL     1       2.353  -6.653  -0.399  0.00  0.00    +0.033 A 
ATOM     34  C   UNL     1       2.797  -7.950  -0.551  0.00  0.00    +0.113 A 
ATOM     35  N   UNL     1       2.435  -8.675  -1.592  0.00  0.00    -0.240 NA
ATOM     36  C   UNL     1       1.636  -8.198  -2.533  0.00  0.00    +0.122 A 
ATOM     37  C   UNL     1       1.139  -6.901  -2.453  0.00  0.00    +0.056 A 
ATOM     38  N   UNL     1       1.285  -9.003  -3.611  0.00  0.00    -0.311 N 
ATOM     39  C   UNL     1       1.605 -10.439  -3.619  0.00  0.00    +0.134 C 
ATOM     40  C   UNL     1       0.331 -11.217  -3.966  0.00  0.00    +0.178 C 
ATOM     41  O   UNL     1      -0.233 -10.686  -5.167  0.00  0.00    -0.377 OA
ATOM     42  C   UNL     1      -0.643  -9.320  -5.067  0.00  0.00    +0.178 C 
ATOM     43  C   UNL     1       0.577  -8.446  -4.774  0.00  0.00    +0.134 C 
ENDBRANCH  29  32
ENDBRANCH   5  28
TORSDOF 7
