REMARK  Name = CHEMBL429863
REMARK  9 active torsions:
REMARK  status: ('A' for Active; 'I' for Inactive)
REMARK    1  A    between atoms: C_1  and  C_2
REMARK    2  A    between atoms: C_5  and  C_32
REMARK    3  A    between atoms: C_7  and  N_8
REMARK    4  A    between atoms: N_13  and  C_26
REMARK    5  A    between atoms: C_16  and  O_18
REMARK    6  A    between atoms: O_18  and  C_19
REMARK    7  A    between atoms: C_19  and  C_20
REMARK    8  A    between atoms: C_20  and  N_21
REMARK    9  A    between atoms: N_34  and  C_35
REMARK                            x       y       z     vdW  Elec       q    Type
REMARK                         _______ _______ _______ _____ _____    ______ ____
ROOT
ATOM      1  N   UNL     1       0.025  -0.008   2.417  0.00  0.00    -0.298 N 
ATOM      2  C   UNL     1      -0.058  -0.701   3.609  0.00  0.00    +0.141 A 
ATOM      3  C   UNL     1      -0.168  -0.015   4.835  0.00  0.00    +0.079 A 
ATOM      4  C   UNL     1      -0.222   1.346   5.208  0.00  0.00    +0.148 A 
ATOM      5  N   UNL     1      -0.327   1.416   6.505  0.00  0.00    -0.172 NA
ATOM      6  N   UNL     1      -0.348   0.125   7.047  0.00  0.00    -0.214 N 
ATOM      7  C   UNL     1      -0.250  -0.771   6.020  0.00  0.00    +0.172 A 
ATOM      8  N   UNL     1      -0.220  -2.100   5.939  0.00  0.00    -0.175 NA
ATOM      9  C   UNL     1      -0.115  -2.700   4.768  0.00  0.00    +0.322 A 
ATOM     10  N   UNL     1      -0.042  -2.028   3.627  0.00  0.00    -0.179 NA
ATOM     11  H   UNL     1      -0.078   0.956   2.407  0.00  0.00    +0.154 HD
ENDROOT
BRANCH   1  18
ATOM     12  C   UNL     1      -1.226   0.949   0.052  0.00  0.00    +0.045 C 
ATOM     13  C   UNL     1      -0.332  -0.264   0.042  0.00  0.00    -0.029 A 
ATOM     14  C   UNL     1      -0.099  -0.939  -1.142  0.00  0.00    +0.006 A 
ATOM     15  C   UNL     1       0.719  -2.050  -1.158  0.00  0.00    +0.013 A 
ATOM     16  C   UNL     1       1.313  -2.498   0.023  0.00  0.00    +0.038 A 
ATOM     17  C   UNL     1       1.077  -1.818   1.218  0.00  0.00    +0.036 A 
ATOM     18  C   UNL     1       0.260  -0.698   1.223  0.00  0.00    +0.036 A 
BRANCH  16  19
ATOM     19  C   UNL     1       2.188  -3.690   0.009  0.00  0.00    +0.244 C 
ATOM     20  O   UNL     1       2.704  -4.077   1.038  0.00  0.00    -0.270 OA
ATOM     21  N   UNL     1       2.413  -4.346  -1.147  0.00  0.00    -0.314 N 
ATOM     22  C   UNL     1       3.280  -5.527  -1.162  0.00  0.00    +0.128 C 
ATOM     23  H   UNL     1       2.001  -4.036  -1.969  0.00  0.00    +0.149 HD
ENDBRANCH  16  19
ENDBRANCH   1  18
BRANCH   6  24
ATOM     24  C   UNL     1      -0.451  -0.193   8.407  0.00  0.00    +0.068 A 
ATOM     25  C   UNL     1      -1.150  -1.325   8.806  0.00  0.00    +0.028 A 
ATOM     26  C   UNL     1      -1.249  -1.636  10.148  0.00  0.00    +0.002 A 
ATOM     27  C   UNL     1      -0.654  -0.822  11.094  0.00  0.00    +0.000 A 
ATOM     28  C   UNL     1       0.042   0.306  10.700  0.00  0.00    +0.002 A 
ATOM     29  C   UNL     1       0.150   0.620   9.359  0.00  0.00    +0.028 A 
ENDBRANCH   6  24
BRANCH   9  30
ATOM     30  O   UNL     1      -0.087  -4.054   4.730  0.00  0.00    -0.464 OA
BRANCH  30  31
ATOM     31  C   UNL     1       0.027  -4.665   3.443  0.00  0.00    +0.214 C 
BRANCH  31  32
ATOM     32  C   UNL     1       0.042  -6.187   3.600  0.00  0.00    -0.037 C 
BRANCH  32  33
ATOM     33  N   UNL     1      -1.252  -6.637   4.131  0.00  0.00    +0.382 N 
ATOM     34  C   UNL     1      -2.318  -6.442   3.115  0.00  0.00    -0.079 C 
ATOM     35  C   UNL     1      -3.421  -7.433   3.564  0.00  0.00    -0.020 C 
ATOM     36  C   UNL     1      -2.610  -8.649   4.067  0.00  0.00    -0.020 C 
ATOM     37  C   UNL     1      -1.214  -8.090   4.402  0.00  0.00    -0.079 C 
ATOM     38  H   UNL     1      -1.478  -6.131   4.974  0.00  0.00    -0.082 HD
ENDBRANCH  32  33
ENDBRANCH  31  32
ENDBRANCH  30  31
ENDBRANCH   9  30
TORSDOF 7
