REMARK  Name = CHEMBL523880
REMARK  8 active torsions:
REMARK  status: ('A' for Active; 'I' for Inactive)
REMARK    1  A    between atoms: C_1  and  C_2
REMARK    2  A    between atoms: C_2  and  C_3
REMARK    3  A    between atoms: C_2  and  C_26
REMARK    4  A    between atoms: C_3  and  N_4
REMARK    5  A    between atoms: C_7  and  C_11
REMARK    6  A    between atoms: C_12  and  C_19
REMARK    7  A    between atoms: C_14  and  S_17
REMARK    8  A    between atoms: S_17  and  C_18
REMARK                            x       y       z     vdW  Elec       q    Type
REMARK                         _______ _______ _______ _____ _____    ______ ____
ROOT
ATOM      1  N   UNL     1      -2.082  -0.162   1.273  0.00  0.00    -0.328 N 
ATOM      2  C   UNL     1      -3.399  -0.535   1.514  0.00  0.00    +0.119 A 
ATOM      3  C   UNL     1      -4.091  -1.266   0.557  0.00  0.00    +0.053 A 
ATOM      4  C   UNL     1      -5.414  -1.633   0.815  0.00  0.00    +0.007 A 
ATOM      5  C   UNL     1      -5.985  -1.245   2.035  0.00  0.00    +0.030 A 
ATOM      6  C   UNL     1      -5.229  -0.521   2.929  0.00  0.00    +0.113 A 
ATOM      7  N   UNL     1      -3.978  -0.195   2.656  0.00  0.00    -0.240 NA
ATOM      8  H   UNL     1      -1.592   0.345   1.939  0.00  0.00    +0.147 HD
ENDROOT
BRANCH   4   9
ATOM      9  C   UNL     1      -6.192  -2.411  -0.175  0.00  0.00    +0.098 A 
ATOM     10  C   UNL     1      -7.142  -3.373   0.110  0.00  0.00    +0.075 A 
ATOM     11  N   UNL     1      -7.607  -3.833  -1.107  0.00  0.00    -0.332 N 
ATOM     12  C   UNL     1      -6.938  -3.150  -2.078  0.00  0.00    +0.167 A 
ATOM     13  N   UNL     1      -6.106  -2.305  -1.516  0.00  0.00    -0.221 NA
ATOM     14  H   UNL     1      -8.283  -4.514  -1.245  0.00  0.00    +0.168 HD
BRANCH  10  15
ATOM     15  C   UNL     1      -7.575  -3.821   1.448  0.00  0.00    +0.001 A 
ATOM     16  C   UNL     1      -6.627  -4.080   2.441  0.00  0.00    +0.013 A 
ATOM     17  C   UNL     1      -7.037  -4.498   3.689  0.00  0.00    +0.039 A 
ATOM     18  C   UNL     1      -8.386  -4.661   3.960  0.00  0.00    +0.123 A 
ATOM     19  C   UNL     1      -9.331  -4.405   2.979  0.00  0.00    +0.039 A 
ATOM     20  C   UNL     1      -8.934  -3.981   1.728  0.00  0.00    +0.013 A 
ATOM     21  F   UNL     1      -8.782  -5.071   5.185  0.00  0.00    -0.205 F 
ENDBRANCH  10  15
BRANCH  12  22
ATOM     22  S   UNL     1      -7.161  -3.361  -3.813  0.00  0.00    -0.091 S 
ATOM     23  C   UNL     1      -5.998  -2.181  -4.552  0.00  0.00    +0.093 C 
ENDBRANCH  12  22
ENDBRANCH   4   9
BRANCH   1  24
ATOM     24  C   UNL     1      -1.433  -0.534   0.013  0.00  0.00    +0.110 C 
BRANCH  24  26
ATOM     25  C   UNL     1      -0.019   1.526   0.010  0.00  0.00    +0.014 C 
ATOM     26  C   UNL     1       0.002  -0.004   0.002  0.00  0.00    +0.033 C 
BRANCH  26  27
ATOM     27  C   UNL     1       0.707  -0.490  -1.238  0.00  0.00    -0.043 A 
ATOM     28  C   UNL     1       0.222  -0.151  -2.487  0.00  0.00    +0.004 A 
ATOM     29  C   UNL     1       0.869  -0.597  -3.624  0.00  0.00    +0.000 A 
ATOM     30  C   UNL     1       2.002  -1.381  -3.513  0.00  0.00    +0.000 A 
ATOM     31  C   UNL     1       2.488  -1.720  -2.263  0.00  0.00    +0.000 A 
ATOM     32  C   UNL     1       1.843  -1.270  -1.126  0.00  0.00    +0.004 A 
ENDBRANCH  26  27
ENDBRANCH  24  26
ENDBRANCH   1  24
TORSDOF 6
