REMARK  Name = CHEMBL410136
REMARK  5 active torsions:
REMARK  status: ('A' for Active; 'I' for Inactive)
REMARK    1  A    between atoms: C_1  and  C_2
REMARK    2  A    between atoms: C_5  and  C_24
REMARK    3  A    between atoms: C_7  and  N_8
REMARK    4  A    between atoms: N_13  and  C_18
REMARK    5  A    between atoms: N_26  and  C_27
REMARK                            x       y       z     vdW  Elec       q    Type
REMARK                         _______ _______ _______ _____ _____    ______ ____
ROOT
ATOM      1  C   UNL     1       0.281   1.286  -0.100  0.00  0.00    +0.045 C 
ATOM      2  C   UNL     1       0.364  -0.213   0.035  0.00  0.00    -0.029 A 
ATOM      3  C   UNL     1       0.576  -0.995  -1.086  0.00  0.00    +0.006 A 
ATOM      4  C   UNL     1       0.653  -2.368  -0.970  0.00  0.00    +0.013 A 
ATOM      5  C   UNL     1       0.517  -2.972   0.281  0.00  0.00    +0.039 A 
ATOM      6  C   UNL     1       0.304  -2.183   1.412  0.00  0.00    +0.036 A 
ATOM      7  C   UNL     1       0.233  -0.804   1.286  0.00  0.00    +0.036 A 
ENDROOT
BRANCH   7   8
ATOM      8  N   UNL     1       0.025  -0.008   2.417  0.00  0.00    -0.299 N 
ATOM      9  C   UNL     1      -0.649  -0.522   3.508  0.00  0.00    +0.137 A 
ATOM     10  C   UNL     1      -0.752   0.214   4.705  0.00  0.00    +0.079 A 
ATOM     11  C   UNL     1      -0.297   1.480   5.134  0.00  0.00    +0.148 A 
ATOM     12  N   UNL     1      -0.684   1.663   6.364  0.00  0.00    -0.172 NA
ATOM     13  N   UNL     1      -1.403   0.545   6.805  0.00  0.00    -0.214 N 
ATOM     14  C   UNL     1      -1.452  -0.361   5.783  0.00  0.00    +0.168 A 
ATOM     15  N   UNL     1      -1.987  -1.570   5.630  0.00  0.00    -0.216 NA
ATOM     16  C   UNL     1      -1.865  -2.219   4.493  0.00  0.00    +0.225 A 
ATOM     17  N   UNL     1      -1.221  -1.720   3.453  0.00  0.00    -0.220 NA
ATOM     18  H   UNL     1       0.354   0.904   2.435  0.00  0.00    +0.154 HD
BRANCH  13  19
ATOM     19  C   UNL     1      -1.974   0.383   8.073  0.00  0.00    +0.068 A 
ATOM     20  C   UNL     1      -3.172  -0.303   8.215  0.00  0.00    +0.028 A 
ATOM     21  C   UNL     1      -3.732  -0.462   9.467  0.00  0.00    +0.002 A 
ATOM     22  C   UNL     1      -3.101   0.063  10.580  0.00  0.00    +0.000 A 
ATOM     23  C   UNL     1      -1.907   0.748  10.443  0.00  0.00    +0.002 A 
ATOM     24  C   UNL     1      -1.339   0.904   9.194  0.00  0.00    +0.028 A 
ENDBRANCH  13  19
ENDBRANCH   7   8
BRANCH   5  25
ATOM     25  C   UNL     1       0.598  -4.442   0.408  0.00  0.00    +0.249 C 
ATOM     26  O   UNL     1       0.479  -4.966   1.498  0.00  0.00    -0.270 OA
ATOM     27  N   UNL     1       0.804  -5.202  -0.686  0.00  0.00    -0.267 N 
ATOM     28  H   UNL     1       0.898  -4.784  -1.556  0.00  0.00    +0.157 HD
BRANCH  27  29
ATOM     29  C   UNL     1       0.880  -6.589  -0.567  0.00  0.00    +0.120 A 
ATOM     30  C   UNL     1       0.766  -7.306   0.585  0.00  0.00    +0.064 A 
ATOM     31  C   UNL     1       0.902  -8.659   0.263  0.00  0.00    +0.136 A 
ATOM     32  N   UNL     1       1.091  -8.760  -1.028  0.00  0.00    -0.181 NA
ATOM     33  H   UNL     1       1.189  -7.251  -2.517  0.00  0.00    +0.190 HD
ATOM     34  N   UNL     1       1.077  -7.472  -1.579  0.00  0.00    -0.264 N 
ENDBRANCH  27  29
ENDBRANCH   5  25
TORSDOF 4
