REMARK  Name = CHEMBL71572
REMARK  10 active torsions:
REMARK  status: ('A' for Active; 'I' for Inactive)
REMARK    1  A    between atoms: C_1  and  C_2
REMARK    2  A    between atoms: C_2  and  C_3
REMARK    3  A    between atoms: C_3  and  N_4
REMARK    4  A    between atoms: C_5  and  C_7
REMARK    5  A    between atoms: C_7  and  C_39
REMARK    6  A    between atoms: C_10  and  C_13
REMARK    7  A    between atoms: C_16  and  C_26
REMARK    8  A    between atoms: C_17  and  C_19
REMARK    9  A    between atoms: N_32  and  C_33
REMARK   10  A    between atoms: C_33  and  C_34
REMARK                            x       y       z     vdW  Elec       q    Type
REMARK                         _______ _______ _______ _____ _____    ______ ____
ROOT
ATOM      1  C   UNL     1       0.681  -8.078   3.563  0.00  0.00    +0.165 A 
ATOM      2  N   UNL     1      -0.245  -8.840   3.055  0.00  0.00    -0.225 NA
ATOM      3  H   UNL     1       2.459  -8.537   4.549  0.00  0.00    +0.167 HD
ATOM      4  C   UNL     1       0.078 -10.133   3.250  0.00  0.00    +0.115 A 
ATOM      5  C   UNL     1       1.286 -10.162   3.925  0.00  0.00    +0.076 A 
ATOM      6  N   UNL     1       1.654  -8.851   4.108  0.00  0.00    -0.337 N 
ENDROOT
BRANCH   4   7
ATOM      7  C   UNL     1      -0.713 -11.307   2.823  0.00  0.00    +0.096 A 
ATOM      8  C   UNL     1      -2.096 -11.200   2.628  0.00  0.00    +0.050 A 
ATOM      9  C   UNL     1      -2.793 -12.324   2.228  0.00  0.00    +0.116 A 
ATOM     10  N   UNL     1      -2.139 -13.461   2.043  0.00  0.00    -0.223 NA
ATOM     11  C   UNL     1      -0.829 -13.535   2.234  0.00  0.00    +0.216 A 
ATOM     12  N   UNL     1      -0.121 -12.482   2.611  0.00  0.00    -0.213 NA
ATOM     13  N   UNL     1      -0.185 -14.742   2.029  0.00  0.00    -0.306 N 
ATOM     14  H   UNL     1       0.773 -14.810   2.166  0.00  0.00    +0.149 HD
BRANCH  13  15
ATOM     15  C   UNL     1      -0.950 -15.918   1.606  0.00  0.00    +0.178 C 
BRANCH  15  16
ATOM     16  C   UNL     1      -0.020 -17.095   1.455  0.00  0.00    +0.122 A 
ATOM     17  C   UNL     1       0.293 -17.979   2.419  0.00  0.00    +0.046 A 
ATOM     18  C   UNL     1       1.191 -18.909   1.846  0.00  0.00    +0.041 A 
ATOM     19  C   UNL     1       1.372 -18.538   0.566  0.00  0.00    +0.195 A 
ATOM     20  O   UNL     1       0.632 -17.442   0.333  0.00  0.00    -0.466 OA
ENDBRANCH  15  16
ENDBRANCH  13  15
ENDBRANCH   4   7
BRANCH   1  24
ATOM     21  C   UNL     1       1.385  -4.154   2.227  0.00  0.00    +0.091 C 
ATOM     22  C   UNL     1      -0.052  -4.687   2.254  0.00  0.00    +0.181 C 
ATOM     23  O   UNL     1      -0.016  -6.112   2.379  0.00  0.00    -0.344 OA
ATOM     24  C   UNL     1       0.676  -6.571   3.543  0.00  0.00    +0.318 C 
ATOM     25  O   UNL     1       2.023  -6.091   3.516  0.00  0.00    -0.344 OA
ATOM     26  C   UNL     1       2.126  -4.664   3.467  0.00  0.00    +0.181 C 
ATOM     27  C   UNL     1       2.095  -4.650   0.966  0.00  0.00    +0.025 C 
BRANCH  21  29
ATOM     28  N   UNL     1       0.762  -1.976   1.234  0.00  0.00    -0.315 N 
ATOM     29  C   UNL     1       1.364  -2.647   2.235  0.00  0.00    +0.223 C 
ATOM     30  O   UNL     1       1.890  -2.038   3.143  0.00  0.00    -0.275 OA
ATOM     31  H   UNL     1       0.342  -2.462   0.507  0.00  0.00    +0.149 HD
BRANCH  28  32
ATOM     32  C   UNL     1       0.742  -0.511   1.242  0.00  0.00    +0.104 C 
BRANCH  32  34
ATOM     33  C   UNL     1      -0.019   1.526   0.010  0.00  0.00    +0.005 C 
ATOM     34  C   UNL     1       0.002  -0.004   0.002  0.00  0.00    +0.015 C 
ENDBRANCH  32  34
ENDBRANCH  28  32
ENDBRANCH  21  29
ENDBRANCH   1  24
BRANCH   5  35
ATOM     35  C   UNL     1       2.033 -11.361   4.356  0.00  0.00    +0.001 A 
ATOM     36  C   UNL     1       1.362 -12.421   4.968  0.00  0.00    +0.013 A 
ATOM     37  C   UNL     1       2.064 -13.539   5.368  0.00  0.00    +0.039 A 
ATOM     38  C   UNL     1       3.433 -13.610   5.164  0.00  0.00    +0.123 A 
ATOM     39  C   UNL     1       4.104 -12.560   4.558  0.00  0.00    +0.039 A 
ATOM     40  C   UNL     1       3.412 -11.440   4.148  0.00  0.00    +0.013 A 
ATOM     41  F   UNL     1       4.116 -14.707   5.559  0.00  0.00    -0.205 F 
ENDBRANCH   5  35
TORSDOF 8
