REMARK  Name = CHEMBL329049
REMARK  5 active torsions:
REMARK  status: ('A' for Active; 'I' for Inactive)
REMARK    1  A    between atoms: C_4  and  C_7
REMARK    2  A    between atoms: C_7  and  N_8
REMARK    3  A    between atoms: C_11  and  N_14
REMARK    4  A    between atoms: C_17  and  C_26
REMARK    5  A    between atoms: C_18  and  C_19
REMARK                            x       y       z     vdW  Elec       q    Type
REMARK                         _______ _______ _______ _____ _____    ______ ____
ROOT
ATOM      1  N   UNL     1       6.382  -1.082   4.917  0.00  0.00    -0.327 N 
ATOM      2  C   UNL     1       5.564  -1.655   5.824  0.00  0.00    +0.175 A 
ATOM      3  N   UNL     1       6.195  -1.793   6.957  0.00  0.00    -0.345 N 
ATOM      4  C   UNL     1       7.448  -1.319   6.836  0.00  0.00    +0.073 A 
ATOM      5  C   UNL     1       7.593  -0.863   5.537  0.00  0.00    +0.093 A 
ATOM      6  H   UNL     1       5.819  -2.179   7.763  0.00  0.00    +0.167 HD
ENDROOT
BRANCH   5   7
ATOM      7  C   UNL     1       8.799  -0.263   4.938  0.00  0.00    +0.094 A 
ATOM      8  C   UNL     1       8.688   0.670   3.898  0.00  0.00    +0.050 A 
ATOM      9  C   UNL     1       9.847   1.206   3.370  0.00  0.00    +0.116 A 
ATOM     10  N   UNL     1      11.019   0.825   3.857  0.00  0.00    -0.223 NA
ATOM     11  C   UNL     1      11.096  -0.059   4.841  0.00  0.00    +0.213 A 
ATOM     12  N   UNL     1      10.013  -0.595   5.381  0.00  0.00    -0.213 NA
ATOM     13  N   UNL     1      12.341  -0.428   5.319  0.00  0.00    -0.327 N 
ATOM     14  H   UNL     1      13.143  -0.041   4.935  0.00  0.00    +0.145 HD
ATOM     15  H   UNL     1      12.412  -1.075   6.039  0.00  0.00    +0.145 HD
ENDBRANCH   5   7
BRANCH   1  19
ATOM     16  N   UNL     1       4.034  -0.592   1.451  0.00  0.00    +0.382 N 
ATOM     17  C   UNL     1       4.590   0.627   2.050  0.00  0.00    -0.076 C 
ATOM     18  C   UNL     1       4.993   0.350   3.500  0.00  0.00    +0.006 C 
ATOM     19  C   UNL     1       6.047  -0.759   3.528  0.00  0.00    +0.085 C 
ATOM     20  C   UNL     1       5.484  -2.003   2.834  0.00  0.00    +0.006 C 
ATOM     21  C   UNL     1       5.062  -1.639   1.409  0.00  0.00    -0.076 C 
ATOM     22  H   UNL     1       3.254  -0.911   2.005  0.00  0.00    -0.081 HD
BRANCH  16  23
ATOM     23  C   UNL     1       3.578  -0.301   0.086  0.00  0.00    -0.043 C 
BRANCH  23  27
ATOM     24  C   UNL     1       0.346   2.488   0.227  0.00  0.00    +0.000 A 
ATOM     25  C   UNL     1       1.648   2.943   0.138  0.00  0.00    +0.000 A 
ATOM     26  C   UNL     1       2.694   2.040   0.092  0.00  0.00    +0.002 A 
ATOM     27  C   UNL     1       2.437   0.683   0.137  0.00  0.00    -0.064 A 
ATOM     28  C   UNL     1       1.135   0.228   0.227  0.00  0.00    +0.002 A 
ATOM     29  C   UNL     1       0.089   1.131   0.271  0.00  0.00    +0.000 A 
ENDBRANCH  23  27
ENDBRANCH  16  23
ENDBRANCH   1  19
BRANCH   4  30
ATOM     30  C   UNL     1       8.483  -1.293   7.896  0.00  0.00    +0.001 A 
ATOM     31  C   UNL     1       9.246  -0.144   8.101  0.00  0.00    +0.013 A 
ATOM     32  C   UNL     1      10.209  -0.126   9.089  0.00  0.00    +0.039 A 
ATOM     33  C   UNL     1      10.418  -1.246   9.877  0.00  0.00    +0.123 A 
ATOM     34  C   UNL     1       9.662  -2.390   9.677  0.00  0.00    +0.039 A 
ATOM     35  C   UNL     1       8.693  -2.417   8.695  0.00  0.00    +0.013 A 
ATOM     36  F   UNL     1      11.362  -1.224  10.843  0.00  0.00    -0.205 F 
ENDBRANCH   4  30
TORSDOF 5
