REMARK  Name = CHEMBL481913
REMARK  7 active torsions:
REMARK  status: ('A' for Active; 'I' for Inactive)
REMARK    1  A    between atoms: C_1  and  C_2
REMARK    2  A    between atoms: C_2  and  C_4
REMARK    3  A    between atoms: C_2  and  N_10
REMARK    4  A    between atoms: C_13  and  C_17
REMARK    5  A    between atoms: C_18  and  C_25
REMARK    6  A    between atoms: C_20  and  S_23
REMARK    7  A    between atoms: S_23  and  C_24
REMARK                            x       y       z     vdW  Elec       q    Type
REMARK                         _______ _______ _______ _____ _____    ______ ____
ROOT
ATOM      1  N   UNL     1       0.625  -0.891   0.932  0.00  0.00    -0.326 N 
ATOM      2  C   UNL     1       2.013  -0.840   1.005  0.00  0.00    +0.119 A 
ATOM      3  C   UNL     1       2.746  -0.467  -0.112  0.00  0.00    +0.053 A 
ATOM      4  C   UNL     1       4.141  -0.421  -0.021  0.00  0.00    +0.005 A 
ATOM      5  C   UNL     1       4.738  -0.758   1.206  0.00  0.00    +0.030 A 
ATOM      6  C   UNL     1       3.936  -1.117   2.264  0.00  0.00    +0.113 A 
ATOM      7  N   UNL     1       2.620  -1.144   2.144  0.00  0.00    -0.240 NA
ATOM      8  H   UNL     1       0.107  -1.147   1.711  0.00  0.00    +0.148 HD
ENDROOT
BRANCH   4   9
ATOM      9  C   UNL     1       4.963  -0.030  -1.180  0.00  0.00    +0.075 A 
ATOM     10  C   UNL     1       6.082  -0.684  -1.661  0.00  0.00    +0.098 A 
ATOM     11  N   UNL     1       6.529   0.002  -2.730  0.00  0.00    -0.221 NA
ATOM     12  C   UNL     1       5.755   1.040  -2.942  0.00  0.00    +0.167 A 
ATOM     13  N   UNL     1       4.765   1.060  -2.009  0.00  0.00    -0.332 N 
ATOM     14  H   UNL     1       4.054   1.717  -1.936  0.00  0.00    +0.168 HD
BRANCH  10  15
ATOM     15  C   UNL     1       6.683  -1.916  -1.099  0.00  0.00    +0.003 A 
ATOM     16  C   UNL     1       5.866  -2.976  -0.705  0.00  0.00    +0.013 A 
ATOM     17  C   UNL     1       6.430  -4.121  -0.184  0.00  0.00    +0.039 A 
ATOM     18  C   UNL     1       7.806  -4.220  -0.050  0.00  0.00    +0.123 A 
ATOM     19  C   UNL     1       8.622  -3.170  -0.440  0.00  0.00    +0.039 A 
ATOM     20  C   UNL     1       8.068  -2.022  -0.968  0.00  0.00    +0.013 A 
ATOM     21  F   UNL     1       8.354  -5.344   0.462  0.00  0.00    -0.205 F 
ENDBRANCH  10  15
BRANCH  12  22
ATOM     22  S   UNL     1       5.962   2.219  -4.236  0.00  0.00    -0.091 S 
ATOM     23  C   UNL     1       7.432   1.639  -5.127  0.00  0.00    +0.093 C 
ENDBRANCH  12  22
ENDBRANCH   4   9
BRANCH   1  25
ATOM     24  C   UNL     1      -0.252   0.959  -0.407  0.00  0.00    +0.028 C 
ATOM     25  C   UNL     1      -0.055  -0.556  -0.322  0.00  0.00    +0.072 C 
BRANCH  25  26
ATOM     26  C   UNL     1      -1.417  -1.251  -0.365  0.00  0.00    +0.009 C 
ATOM     27  C   UNL     1      -1.220  -2.766  -0.280  0.00  0.00    +0.005 C 
ATOM     28  C   UNL     1      -2.583  -3.461  -0.323  0.00  0.00    +0.000 C 
ATOM     29  C   UNL     1      -3.292  -3.111  -1.632  0.00  0.00    +0.000 C 
ATOM     30  C   UNL     1      -3.490  -1.596  -1.717  0.00  0.00    +0.000 C 
ATOM     31  C   UNL     1      -2.127  -0.902  -1.674  0.00  0.00    +0.005 C 
ENDBRANCH  25  26
ENDBRANCH   1  25
TORSDOF 5
