REMARK  Name = CHEMBL569552
REMARK  6 active torsions:
REMARK  status: ('A' for Active; 'I' for Inactive)
REMARK    1  A    between atoms: C_1  and  C_2
REMARK    2  A    between atoms: C_2  and  C_3
REMARK    3  A    between atoms: C_2  and  C_4
REMARK    4  A    between atoms: C_5  and  C_16
REMARK    5  A    between atoms: C_6  and  C_9
REMARK    6  A    between atoms: N_22  and  C_23
REMARK                            x       y       z     vdW  Elec       q    Type
REMARK                         _______ _______ _______ _____ _____    ______ ____
ROOT
ATOM      1  C   UNL     1      -1.412  -0.526   0.013  0.00  0.00    +0.148 A 
ATOM      2  C   UNL     1      -1.974  -1.317  -0.937  0.00  0.00    +0.052 A 
ATOM      3  C   UNL     1      -3.357  -1.575  -0.514  0.00  0.00    +0.121 A 
ATOM      4  N   UNL     1      -3.533  -0.946   0.622  0.00  0.00    -0.077 NA
ATOM      5  O   UNL     1      -2.326  -0.293   0.963  0.00  0.00    -0.358 OA
ENDROOT
BRANCH   2   6
ATOM      6  C   UNL     1      -1.319  -1.822  -2.167  0.00  0.00    -0.008 A 
ATOM      7  C   UNL     1      -0.899  -0.941  -3.171  0.00  0.00    +0.026 A 
ATOM      8  C   UNL     1      -0.292  -1.448  -4.299  0.00  0.00    +0.085 A 
ATOM      9  N   UNL     1      -0.104  -2.747  -4.444  0.00  0.00    -0.350 N 
ATOM     10  C   UNL     1      -0.485  -3.618  -3.520  0.00  0.00    +0.097 A 
ATOM     11  C   UNL     1      -1.098  -3.187  -2.351  0.00  0.00    +0.050 A 
ATOM     12  N   UNL     1      -0.264  -4.975  -3.722  0.00  0.00    -0.328 N 
ATOM     13  H   UNL     1       0.167  -5.281  -4.535  0.00  0.00    +0.148 HD
ATOM     14  H   UNL     1       0.326  -3.074  -5.250  0.00  0.00    +0.166 HD
BRANCH  12  15
ATOM     15  C   UNL     1      -0.682  -5.944  -2.706  0.00  0.00    +0.076 C 
ATOM     16  C   UNL     1       0.416  -6.083  -1.647  0.00  0.00    +0.050 C 
ATOM     17  C   UNL     1       0.004  -7.154  -0.633  0.00  0.00    +0.161 C 
ATOM     18  O   UNL     1      -0.229  -8.388  -1.315  0.00  0.00    -0.380 OA
ATOM     19  C   UNL     1      -1.277  -8.331  -2.284  0.00  0.00    +0.161 C 
ATOM     20  C   UNL     1      -0.917  -7.307  -3.364  0.00  0.00    +0.050 C 
ENDBRANCH  12  15
ENDBRANCH   2   6
BRANCH   3  21
ATOM     21  C   UNL     1      -4.362  -2.392  -1.236  0.00  0.00    +0.004 A 
ATOM     22  C   UNL     1      -4.382  -2.405  -2.630  0.00  0.00    +0.013 A 
ATOM     23  C   UNL     1      -5.319  -3.167  -3.297  0.00  0.00    +0.039 A 
ATOM     24  C   UNL     1      -6.240  -3.917  -2.584  0.00  0.00    +0.123 A 
ATOM     25  C   UNL     1      -6.225  -3.906  -1.198  0.00  0.00    +0.039 A 
ATOM     26  C   UNL     1      -5.287  -3.153  -0.523  0.00  0.00    +0.013 A 
ATOM     27  F   UNL     1      -7.157  -4.661  -3.241  0.00  0.00    -0.205 F 
ENDBRANCH   3  21
BRANCH   1  29
ATOM     28  C   UNL     1      -0.019   1.526   0.010  0.00  0.00    +0.015 C 
ATOM     29  C   UNL     1       0.002  -0.004   0.002  0.00  0.00    +0.052 C 
ATOM     30  C   UNL     1       0.742  -0.511   1.242  0.00  0.00    +0.015 C 
ENDBRANCH   1  29
TORSDOF 4
