REMARK  Name = CHEMBL339699
REMARK  7 active torsions:
REMARK  status: ('A' for Active; 'I' for Inactive)
REMARK    1  A    between atoms: C_4  and  O_7
REMARK    2  A    between atoms: O_7  and  C_8
REMARK    3  A    between atoms: C_8  and  C_9
REMARK    4  A    between atoms: C_9  and  C_10
REMARK    5  A    between atoms: C_10  and  N_11
REMARK    6  A    between atoms: C_14  and  C_22
REMARK    7  A    between atoms: C_15  and  C_16
REMARK                            x       y       z     vdW  Elec       q    Type
REMARK                         _______ _______ _______ _____ _____    ______ ____
ROOT
ATOM      1  N   UNL     1       6.200  -4.934   0.051  0.00  0.00    -0.330 N 
ATOM      2  C   UNL     1       7.034  -5.149  -0.989  0.00  0.00    +0.200 A 
ATOM      3  N   UNL     1       8.259  -5.243  -0.553  0.00  0.00    -0.235 NA
ATOM      4  C   UNL     1       8.275  -5.094   0.784  0.00  0.00    +0.097 A 
ATOM      5  C   UNL     1       6.969  -4.889   1.192  0.00  0.00    +0.077 A 
ENDROOT
BRANCH   4   6
ATOM      6  C   UNL     1       9.471  -5.136   1.657  0.00  0.00    +0.003 A 
ATOM      7  C   UNL     1       9.541  -4.321   2.787  0.00  0.00    +0.013 A 
ATOM      8  C   UNL     1      10.657  -4.364   3.597  0.00  0.00    +0.039 A 
ATOM      9  C   UNL     1      11.706  -5.215   3.291  0.00  0.00    +0.123 A 
ATOM     10  C   UNL     1      11.641  -6.027   2.170  0.00  0.00    +0.039 A 
ATOM     11  C   UNL     1      10.527  -5.996   1.356  0.00  0.00    +0.013 A 
ATOM     12  F   UNL     1      12.797  -5.253   4.087  0.00  0.00    -0.205 F 
ENDBRANCH   4   6
BRANCH   5  13
ATOM     13  C   UNL     1       6.495  -4.671   2.572  0.00  0.00    +0.003 A 
ATOM     14  C   UNL     1       5.719  -3.551   2.898  0.00  0.00    +0.030 A 
ATOM     15  C   UNL     1       5.298  -3.386   4.201  0.00  0.00    +0.111 A 
ATOM     16  N   UNL     1       5.617  -4.265   5.132  0.00  0.00    -0.263 NA
ATOM     17  C   UNL     1       6.346  -5.334   4.868  0.00  0.00    +0.111 A 
ATOM     18  C   UNL     1       6.805  -5.580   3.592  0.00  0.00    +0.030 A 
ENDBRANCH   5  13
BRANCH   1  19
ATOM     19  C   UNL     1       4.746  -4.771  -0.023  0.00  0.00    +0.126 C 
BRANCH  19  20
ATOM     20  C   UNL     1       4.067  -6.109   0.279  0.00  0.00    +0.062 C 
BRANCH  20  21
ATOM     21  C   UNL     1       2.550  -5.946   0.171  0.00  0.00    +0.231 C 
BRANCH  21  22
ATOM     22  O   UNL     1       1.916  -7.196   0.453  0.00  0.00    -0.492 OA
BRANCH  22  26
ATOM     23  C   UNL     1      -2.205  -7.283   0.293  0.00  0.00    +0.000 A 
ATOM     24  C   UNL     1      -1.502  -8.431   0.608  0.00  0.00    +0.004 A 
ATOM     25  C   UNL     1      -0.122  -8.405   0.661  0.00  0.00    +0.045 A 
ATOM     26  C   UNL     1       0.558  -7.225   0.400  0.00  0.00    +0.121 A 
ATOM     27  C   UNL     1      -0.149  -6.074   0.084  0.00  0.00    +0.045 A 
ATOM     28  C   UNL     1      -1.529  -6.106   0.032  0.00  0.00    +0.004 A 
ENDBRANCH  22  26
ENDBRANCH  21  22
ENDBRANCH  20  21
ENDBRANCH  19  20
ENDBRANCH   1  19
TORSDOF 7
