REMARK  Name = CHEMBL184052
REMARK  9 active torsions:
REMARK  status: ('A' for Active; 'I' for Inactive)
REMARK    1  A    between atoms: C_1  and  C_2
REMARK    2  A    between atoms: C_5  and  N_23
REMARK    3  A    between atoms: C_7  and  N_8
REMARK    4  A    between atoms: C_12  and  O_21
REMARK    5  A    between atoms: C_13  and  O_19
REMARK    6  A    between atoms: O_19  and  C_20
REMARK    7  A    between atoms: O_21  and  C_22
REMARK    8  A    between atoms: C_24  and  C_26
REMARK    9  A    between atoms: C_30  and  N_32
REMARK                            x       y       z     vdW  Elec       q    Type
REMARK                         _______ _______ _______ _____ _____    ______ ____
ROOT
ATOM      1  C   UNL     1      -0.148   1.589   0.080  0.00  0.00    +0.045 C 
ATOM      2  C   UNL     1       0.189   0.139  -0.154  0.00  0.00    -0.029 A 
ATOM      3  C   UNL     1       0.073  -0.401  -1.421  0.00  0.00    +0.007 A 
ATOM      4  C   UNL     1       0.382  -1.729  -1.640  0.00  0.00    +0.024 A 
ATOM      5  C   UNL     1       0.809  -2.528  -0.586  0.00  0.00    +0.035 A 
ATOM      6  C   UNL     1       0.926  -1.989   0.688  0.00  0.00    +0.046 A 
ATOM      7  C   UNL     1       0.620  -0.652   0.903  0.00  0.00    +0.037 A 
ENDROOT
BRANCH   7   8
ATOM      8  N   UNL     1       0.742  -0.104   2.183  0.00  0.00    -0.299 N 
ATOM      9  C   UNL     1       0.627  -0.915   3.295  0.00  0.00    +0.134 A 
ATOM     10  C   UNL     1       0.877  -0.408   4.592  0.00  0.00    +0.044 A 
ATOM     11  C   UNL     1       1.247   0.925   4.808  0.00  0.00    +0.062 A 
ATOM     12  C   UNL     1       1.476   1.365   6.081  0.00  0.00    +0.162 A 
ATOM     13  C   UNL     1       1.345   0.497   7.174  0.00  0.00    +0.164 A 
ATOM     14  C   UNL     1       0.982  -0.818   6.988  0.00  0.00    +0.078 A 
ATOM     15  C   UNL     1       0.742  -1.291   5.692  0.00  0.00    +0.080 A 
ATOM     16  N   UNL     1       0.386  -2.563   5.458  0.00  0.00    -0.235 NA
ATOM     17  C   UNL     1       0.167  -2.978   4.232  0.00  0.00    +0.223 A 
ATOM     18  N   UNL     1       0.275  -2.188   3.176  0.00  0.00    -0.220 NA
ATOM     19  H   UNL     1       0.907   0.846   2.291  0.00  0.00    +0.154 HD
BRANCH  13  20
ATOM     20  O   UNL     1       1.578   0.959   8.430  0.00  0.00    -0.491 OA
ATOM     21  C   UNL     1       1.428   0.026   9.502  0.00  0.00    +0.277 C 
ENDBRANCH  13  20
BRANCH  12  22
ATOM     22  O   UNL     1       1.836   2.660   6.289  0.00  0.00    -0.491 OA
ATOM     23  C   UNL     1       1.954   3.495   5.136  0.00  0.00    +0.277 C 
ENDBRANCH  12  22
ENDBRANCH   7   8
BRANCH   5  24
ATOM     24  N   UNL     1       1.120  -3.873  -0.808  0.00  0.00    -0.281 N 
ATOM     25  C   UNL     1       1.749  -4.240  -1.942  0.00  0.00    +0.248 C 
ATOM     26  O   UNL     1       1.966  -3.418  -2.811  0.00  0.00    -0.270 OA
ATOM     27  H   UNL     1       0.884  -4.541  -0.146  0.00  0.00    +0.155 HD
BRANCH  25  28
ATOM     28  C   UNL     1       2.175  -5.644  -2.129  0.00  0.00    +0.039 A 
ATOM     29  C   UNL     1       1.922  -6.591  -1.136  0.00  0.00    +0.013 A 
ATOM     30  C   UNL     1       2.320  -7.900  -1.313  0.00  0.00    +0.003 A 
ATOM     31  C   UNL     1       2.970  -8.279  -2.473  0.00  0.00    +0.023 A 
ATOM     32  C   UNL     1       3.227  -7.343  -3.468  0.00  0.00    +0.031 A 
ATOM     33  C   UNL     1       2.826  -6.026  -3.302  0.00  0.00    +0.036 A 
BRANCH  32  34
ATOM     34  N   UNL     1       3.886  -7.731  -4.638  0.00  0.00    -0.325 N 
ATOM     35  C   UNL     1       4.267  -6.739  -5.656  0.00  0.00    +0.133 C 
ATOM     36  C   UNL     1       5.747  -6.944  -5.999  0.00  0.00    +0.178 C 
ATOM     37  O   UNL     1       5.968  -8.316  -6.335  0.00  0.00    -0.377 OA
ATOM     38  C   UNL     1       5.700  -9.230  -5.268  0.00  0.00    +0.178 C 
ATOM     39  C   UNL     1       4.223  -9.142  -4.885  0.00  0.00    +0.133 C 
ENDBRANCH  32  34
ENDBRANCH  25  28
ENDBRANCH   5  24
TORSDOF 6
