REMARK  Name = CHEMBL261021
REMARK  5 active torsions:
REMARK  status: ('A' for Active; 'I' for Inactive)
REMARK    1  A    between atoms: C_1  and  C_2
REMARK    2  A    between atoms: C_5  and  C_25
REMARK    3  A    between atoms: C_7  and  N_8
REMARK    4  A    between atoms: N_13  and  C_19
REMARK    5  A    between atoms: N_27  and  C_28
REMARK                            x       y       z     vdW  Elec       q    Type
REMARK                         _______ _______ _______ _____ _____    ______ ____
ROOT
ATOM      1  N   UNL     1       0.025  -0.008   2.417  0.00  0.00    -0.299 N 
ATOM      2  C   UNL     1      -0.058  -0.701   3.609  0.00  0.00    +0.139 A 
ATOM      3  C   UNL     1      -0.168  -0.014   4.835  0.00  0.00    +0.079 A 
ATOM      4  C   UNL     1      -0.222   1.347   5.207  0.00  0.00    +0.148 A 
ATOM      5  N   UNL     1      -0.327   1.418   6.504  0.00  0.00    -0.172 NA
ATOM      6  N   UNL     1      -0.348   0.127   7.047  0.00  0.00    -0.214 N 
ATOM      7  C   UNL     1      -0.250  -0.769   6.021  0.00  0.00    +0.170 A 
ATOM      8  N   UNL     1      -0.220  -2.098   5.941  0.00  0.00    -0.195 NA
ATOM      9  C   UNL     1      -0.116  -2.701   4.769  0.00  0.00    +0.216 A 
ATOM     10  N   UNL     1      -0.042  -2.028   3.626  0.00  0.00    -0.199 NA
ATOM     11  N   UNL     1      -0.088  -4.084   4.731  0.00  0.00    -0.327 N 
ATOM     12  H   UNL     1      -0.085   0.955   2.406  0.00  0.00    +0.154 HD
ATOM     13  H   UNL     1      -0.145  -4.593   5.554  0.00  0.00    +0.145 HD
ATOM     14  H   UNL     1      -0.012  -4.544   3.880  0.00  0.00    +0.145 HD
ENDROOT
BRANCH   1  21
ATOM     15  C   UNL     1      -0.962   1.113  -0.001  0.00  0.00    +0.045 C 
ATOM     16  C   UNL     1      -0.195  -0.184   0.018  0.00  0.00    -0.029 A 
ATOM     17  C   UNL     1       0.048  -0.858  -1.164  0.00  0.00    +0.006 A 
ATOM     18  C   UNL     1       0.749  -2.047  -1.154  0.00  0.00    +0.013 A 
ATOM     19  C   UNL     1       1.215  -2.573   0.052  0.00  0.00    +0.038 A 
ATOM     20  C   UNL     1       0.969  -1.893   1.245  0.00  0.00    +0.036 A 
ATOM     21  C   UNL     1       0.269  -0.697   1.224  0.00  0.00    +0.036 A 
BRANCH  19  22
ATOM     22  C   UNL     1       1.966  -3.846   0.065  0.00  0.00    +0.244 C 
ATOM     23  O   UNL     1       2.370  -4.303   1.116  0.00  0.00    -0.270 OA
ATOM     24  N   UNL     1       2.201  -4.502  -1.089  0.00  0.00    -0.314 N 
ATOM     25  C   UNL     1       2.945  -5.764  -1.076  0.00  0.00    +0.128 C 
ATOM     26  H   UNL     1       1.879  -4.138  -1.928  0.00  0.00    +0.149 HD
ENDBRANCH  19  22
ENDBRANCH   1  21
BRANCH   6  27
ATOM     27  C   UNL     1      -0.450  -0.190   8.407  0.00  0.00    +0.068 A 
ATOM     28  C   UNL     1      -1.149  -1.321   8.807  0.00  0.00    +0.028 A 
ATOM     29  C   UNL     1      -1.249  -1.631  10.150  0.00  0.00    +0.002 A 
ATOM     30  C   UNL     1      -0.654  -0.816  11.095  0.00  0.00    +0.000 A 
ATOM     31  C   UNL     1       0.043   0.312  10.700  0.00  0.00    +0.002 A 
ATOM     32  C   UNL     1       0.151   0.623   9.359  0.00  0.00    +0.028 A 
ENDBRANCH   6  27
TORSDOF 3
