REMARK  Name = CHEMBL426969
REMARK  8 active torsions:
REMARK  status: ('A' for Active; 'I' for Inactive)
REMARK    1  A    between atoms: C_1  and  C_2
REMARK    2  A    between atoms: C_5  and  N_24
REMARK    3  A    between atoms: C_7  and  N_8
REMARK    4  A    between atoms: N_15  and  C_16
REMARK    5  A    between atoms: C_16  and  C_17
REMARK    6  A    between atoms: C_17  and  C_18
REMARK    7  A    between atoms: C_18  and  N_19
REMARK    8  A    between atoms: C_25  and  C_27
REMARK                            x       y       z     vdW  Elec       q    Type
REMARK                         _______ _______ _______ _____ _____    ______ ____
ROOT
ATOM      1  C   UNL     1      -0.181   1.495   0.058  0.00  0.00    +0.045 C 
ATOM      2  C   UNL     1       0.232   0.048  -0.006  0.00  0.00    -0.029 A 
ATOM      3  C   UNL     1       0.486  -0.545  -1.228  0.00  0.00    +0.007 A 
ATOM      4  C   UNL     1       0.864  -1.872  -1.291  0.00  0.00    +0.024 A 
ATOM      5  C   UNL     1       0.991  -2.616  -0.124  0.00  0.00    +0.035 A 
ATOM      6  C   UNL     1       0.737  -2.024   1.105  0.00  0.00    +0.046 A 
ATOM      7  C   UNL     1       0.362  -0.689   1.165  0.00  0.00    +0.037 A 
ENDROOT
BRANCH   7   8
ATOM      8  N   UNL     1       0.112  -0.087   2.402  0.00  0.00    -0.299 N 
ATOM      9  C   UNL     1      -0.378  -0.845   3.455  0.00  0.00    +0.128 A 
ATOM     10  C   UNL     1      -0.511  -0.287   4.728  0.00  0.00    +0.063 A 
ATOM     11  C   UNL     1      -1.003  -1.079   5.747  0.00  0.00    +0.118 A 
ATOM     12  N   UNL     1      -1.332  -2.336   5.489  0.00  0.00    -0.223 NA
ATOM     13  C   UNL     1      -1.195  -2.840   4.271  0.00  0.00    +0.217 A 
ATOM     14  N   UNL     1      -0.733  -2.112   3.266  0.00  0.00    -0.199 NA
ATOM     15  N   UNL     1      -1.550  -4.158   4.043  0.00  0.00    -0.313 N 
ATOM     16  H   UNL     1       0.280   0.860   2.523  0.00  0.00    +0.154 HD
ATOM     17  H   UNL     1      -1.455  -4.539   3.156  0.00  0.00    +0.149 HD
BRANCH  15  18
ATOM     18  C   UNL     1      -2.070  -4.978   5.140  0.00  0.00    +0.102 C 
BRANCH  18  19
ATOM     19  C   UNL     1      -2.382  -6.383   4.623  0.00  0.00    +0.000 C 
BRANCH  19  20
ATOM     20  C   UNL     1      -2.925  -7.239   5.769  0.00  0.00    -0.077 C 
BRANCH  20  21
ATOM     21  N   UNL     1      -3.225  -8.589   5.273  0.00  0.00    +0.380 N 
ATOM     22  C   UNL     1      -1.967  -9.299   4.927  0.00  0.00    -0.079 C 
ATOM     23  C   UNL     1      -2.376 -10.792   4.980  0.00  0.00    -0.020 C 
ATOM     24  C   UNL     1      -3.356 -10.839   6.175  0.00  0.00    -0.020 C 
ATOM     25  C   UNL     1      -3.862  -9.394   6.338  0.00  0.00    -0.079 C 
ATOM     26  H   UNL     1      -3.830  -8.537   4.467  0.00  0.00    -0.082 HD
ENDBRANCH  20  21
ENDBRANCH  19  20
ENDBRANCH  18  19
ENDBRANCH  15  18
ENDBRANCH   7   8
BRANCH   5  27
ATOM     27  N   UNL     1       1.373  -3.959  -0.188  0.00  0.00    -0.281 N 
ATOM     28  C   UNL     1       1.007  -4.714  -1.243  0.00  0.00    +0.248 C 
ATOM     29  O   UNL     1       0.268  -4.255  -2.092  0.00  0.00    -0.270 OA
ATOM     30  H   UNL     1       1.901  -4.348   0.526  0.00  0.00    +0.155 HD
BRANCH  28  31
ATOM     31  C   UNL     1       1.506  -6.103  -1.369  0.00  0.00    +0.042 A 
ATOM     32  C   UNL     1       2.353  -6.653  -0.399  0.00  0.00    +0.033 A 
ATOM     33  C   UNL     1       2.797  -7.950  -0.551  0.00  0.00    +0.113 A 
ATOM     34  N   UNL     1       2.435  -8.675  -1.592  0.00  0.00    -0.240 NA
ATOM     35  C   UNL     1       1.636  -8.198  -2.533  0.00  0.00    +0.122 A 
ATOM     36  C   UNL     1       1.139  -6.901  -2.453  0.00  0.00    +0.056 A 
ATOM     37  N   UNL     1       1.285  -9.003  -3.611  0.00  0.00    -0.311 N 
ATOM     38  C   UNL     1       1.605 -10.439  -3.619  0.00  0.00    +0.134 C 
ATOM     39  C   UNL     1       0.331 -11.217  -3.965  0.00  0.00    +0.178 C 
ATOM     40  O   UNL     1      -0.233 -10.686  -5.167  0.00  0.00    -0.377 OA
ATOM     41  C   UNL     1      -0.643  -9.320  -5.067  0.00  0.00    +0.178 C 
ATOM     42  C   UNL     1       0.577  -8.446  -4.774  0.00  0.00    +0.134 C 
ENDBRANCH  28  31
ENDBRANCH   5  27
TORSDOF 7
