REMARK  Name = CHEMBL593423
REMARK  4 active torsions:
REMARK  status: ('A' for Active; 'I' for Inactive)
REMARK    1  A    between atoms: C_1  and  C_2
REMARK    2  A    between atoms: C_2  and  C_5
REMARK    3  A    between atoms: C_11  and  S_14
REMARK    4  A    between atoms: S_14  and  C_15
REMARK                            x       y       z     vdW  Elec       q    Type
REMARK                         _______ _______ _______ _____ _____    ______ ____
ROOT
ATOM      1  C   UNL     1      -1.752  -1.157  -1.082  0.00  0.00    +0.144 A 
ATOM      2  N   UNL     1      -2.497  -2.213  -0.880  0.00  0.00    -0.133 NA
ATOM      3  N   UNL     1      -3.503  -2.209  -1.682  0.00  0.00    -0.129 NA
ATOM      4  C   UNL     1      -3.451  -1.131  -2.450  0.00  0.00    +0.161 A 
ATOM      5  N   UNL     1      -2.330  -0.432  -2.077  0.00  0.00    -0.285 N 
ATOM      6  C   UNL     1      -2.010   0.743  -2.695  0.00  0.00    +0.109 A 
ATOM      7  C   UNL     1      -2.797   1.237  -3.683  0.00  0.00    +0.029 A 
ATOM      8  C   UNL     1      -3.956   0.538  -4.082  0.00  0.00    +0.020 A 
ATOM      9  C   UNL     1      -4.277  -0.636  -3.478  0.00  0.00    +0.050 A 
ENDROOT
BRANCH   1  11
ATOM     10  C   UNL     1       0.791  -0.804  -1.185  0.00  0.00    +0.019 C 
ATOM     11  C   UNL     1      -0.486  -0.804  -0.344  0.00  0.00    +0.028 C 
ATOM     12  C   UNL     1      -0.371  -1.251   1.115  0.00  0.00    +0.015 C 
ATOM     13  C   UNL     1      -0.590   0.226   0.783  0.00  0.00    +0.015 C 
ENDBRANCH   1  11
BRANCH   7  14
ATOM     14  S   UNL     1      -2.371   2.754  -4.470  0.00  0.00    -0.085 S 
BRANCH  14  15
ATOM     15  C   UNL     1      -3.668   3.853  -4.007  0.00  0.00    +0.048 A 
ATOM     16  C   UNL     1      -4.638   3.442  -3.102  0.00  0.00    +0.021 A 
ATOM     17  C   UNL     1      -5.654   4.306  -2.740  0.00  0.00    +0.039 A 
ATOM     18  C   UNL     1      -5.707   5.580  -3.279  0.00  0.00    +0.126 A 
ATOM     19  C   UNL     1      -4.742   5.994  -4.181  0.00  0.00    +0.077 A 
ATOM     20  C   UNL     1      -3.719   5.136  -4.543  0.00  0.00    +0.140 A 
ATOM     21  F   UNL     1      -2.774   5.542  -5.419  0.00  0.00    -0.204 F 
ATOM     22  F   UNL     1      -6.702   6.422  -2.922  0.00  0.00    -0.205 F 
ENDBRANCH  14  15
ENDBRANCH   7  14
TORSDOF 3
