REMARK  Name = CHEMBL303144
REMARK  8 active torsions:
REMARK  status: ('A' for Active; 'I' for Inactive)
REMARK    1  A    between atoms: C_1  and  C_2
REMARK    2  A    between atoms: C_2  and  C_4
REMARK    3  A    between atoms: C_2  and  N_10
REMARK    4  A    between atoms: C_13  and  C_17
REMARK    5  A    between atoms: C_18  and  C_29
REMARK    6  A    between atoms: C_20  and  C_23
REMARK    7  A    between atoms: N_21  and  C_22
REMARK    8  A    between atoms: C_33  and  C_35
REMARK                            x       y       z     vdW  Elec       q    Type
REMARK                         _______ _______ _______ _____ _____    ______ ____
ROOT
ATOM      1  C   UNL     1      -3.428  -0.170   3.798  0.00  0.00    +0.077 A 
ATOM      2  C   UNL     1      -4.079   0.943   3.297  0.00  0.00    +0.097 A 
ATOM      3  N   UNL     1      -5.378   0.833   3.632  0.00  0.00    -0.231 NA
ATOM      4  C   UNL     1      -5.563  -0.270   4.303  0.00  0.00    +0.114 A 
ATOM      5  N   UNL     1      -4.390  -0.927   4.426  0.00  0.00    -0.330 N 
ATOM      6  C   UNL     1      -4.180  -2.208   5.106  0.00  0.00    +0.150 C 
ENDROOT
BRANCH   1  10
ATOM      7  N   UNL     1       0.711  -0.489   1.189  0.00  0.00    -0.322 N 
ATOM      8  C   UNL     1       0.030  -0.638   2.393  0.00  0.00    +0.120 A 
ATOM      9  C   UNL     1      -1.321  -0.330   2.459  0.00  0.00    +0.053 A 
ATOM     10  C   UNL     1      -1.991  -0.485   3.677  0.00  0.00    +0.005 A 
ATOM     11  C   UNL     1      -1.260  -0.949   4.781  0.00  0.00    +0.030 A 
ATOM     12  C   UNL     1       0.079  -1.231   4.628  0.00  0.00    +0.113 A 
ATOM     13  N   UNL     1       0.678  -1.077   3.461  0.00  0.00    -0.240 NA
ATOM     14  H   UNL     1       1.654  -0.707   1.135  0.00  0.00    +0.148 HD
BRANCH   7  16
ATOM     15  C   UNL     1      -0.019   1.526   0.010  0.00  0.00    +0.033 C 
ATOM     16  C   UNL     1       0.002  -0.004   0.002  0.00  0.00    +0.099 C 
BRANCH  16  17
ATOM     17  C   UNL     1       0.707  -0.490  -1.238  0.00  0.00    -0.028 A 
ATOM     18  C   UNL     1       2.089  -0.511  -1.284  0.00  0.00    +0.005 A 
ATOM     19  C   UNL     1       2.736  -0.957  -2.421  0.00  0.00    +0.000 A 
ATOM     20  C   UNL     1       2.002  -1.382  -3.512  0.00  0.00    +0.000 A 
ATOM     21  C   UNL     1       0.620  -1.362  -3.466  0.00  0.00    +0.000 A 
ATOM     22  C   UNL     1      -0.027  -0.920  -2.327  0.00  0.00    +0.005 A 
ENDBRANCH  16  17
ENDBRANCH   7  16
ENDBRANCH   1  10
BRANCH   4  23
ATOM     23  C   UNL     1      -6.885  -0.742   4.851  0.00  0.00    +0.052 C 
ATOM     24  C   UNL     1      -7.883  -0.917   3.702  0.00  0.00    -0.008 C 
ATOM     25  C   UNL     1      -9.244  -1.319   4.273  0.00  0.00    -0.082 C 
ATOM     26  N   UNL     1      -9.725  -0.274   5.186  0.00  0.00    +0.379 N 
ATOM     27  C   UNL     1      -8.810  -0.150   6.327  0.00  0.00    -0.082 C 
ATOM     28  C   UNL     1      -7.432   0.297   5.835  0.00  0.00    -0.008 C 
ATOM     29  H   UNL     1      -9.768   0.606   4.694  0.00  0.00    -0.086 HD
ATOM     30  H   UNL     1     -10.645  -0.517   5.519  0.00  0.00    -0.086 HD
ENDBRANCH   4  23
BRANCH   2  31
ATOM     31  C   UNL     1      -3.461   2.051   2.533  0.00  0.00    +0.003 A 
ATOM     32  C   UNL     1      -2.163   2.467   2.828  0.00  0.00    +0.010 A 
ATOM     33  C   UNL     1      -1.592   3.499   2.112  0.00  0.00    +0.001 A 
ATOM     34  C   UNL     1      -2.306   4.123   1.104  0.00  0.00    +0.012 A 
ATOM     35  C   UNL     1      -3.594   3.716   0.807  0.00  0.00    +0.055 A 
ATOM     36  C   UNL     1      -4.173   2.680   1.512  0.00  0.00    +0.022 A 
BRANCH  35  37
ATOM     37  C   UNL     1      -4.364   4.401  -0.292  0.00  0.00    +0.417 C 
ATOM     38  F   UNL     1      -3.574   5.406  -0.859  0.00  0.00    -0.166 F 
ATOM     39  F   UNL     1      -4.706   3.466  -1.275  0.00  0.00    -0.166 F 
ATOM     40  F   UNL     1      -5.529   4.967   0.238  0.00  0.00    -0.166 F 
ENDBRANCH  35  37
ENDBRANCH   2  31
TORSDOF 6
