REMARK  Name = CHEMBL591275
REMARK  8 active torsions:
REMARK  status: ('A' for Active; 'I' for Inactive)
REMARK    1  A    between atoms: C_1  and  C_2
REMARK    2  A    between atoms: C_5  and  N_21
REMARK    3  A    between atoms: C_7  and  N_8
REMARK    4  A    between atoms: N_8  and  C_9
REMARK    5  A    between atoms: N_17  and  C_20
REMARK    6  A    between atoms: C_22  and  C_24
REMARK    7  A    between atoms: C_25  and  C_34
REMARK    8  A    between atoms: C_28  and  C_30
REMARK                            x       y       z     vdW  Elec       q    Type
REMARK                         _______ _______ _______ _____ _____    ______ ____
ROOT
ATOM      1  N   UNL     1       1.863  -3.725  -0.269  0.00  0.00    -0.280 N 
ATOM      2  C   UNL     1       1.643  -4.416  -1.405  0.00  0.00    +0.269 C 
ATOM      3  O   UNL     1       0.975  -3.926  -2.296  0.00  0.00    -0.268 OA
ATOM      4  H   UNL     1       2.311  -4.151   0.478  0.00  0.00    +0.155 HD
ENDROOT
BRANCH   1   9
ATOM      5  C   UNL     1       0.166   1.678   0.125  0.00  0.00    +0.045 C 
ATOM      6  C   UNL     1       0.616   0.243   0.022  0.00  0.00    -0.029 A 
ATOM      7  C   UNL     1       1.019  -0.268  -1.197  0.00  0.00    +0.007 A 
ATOM      8  C   UNL     1       1.432  -1.582  -1.295  0.00  0.00    +0.024 A 
ATOM      9  C   UNL     1       1.444  -2.395  -0.168  0.00  0.00    +0.035 A 
ATOM     10  C   UNL     1       1.041  -1.885   1.057  0.00  0.00    +0.046 A 
ATOM     11  C   UNL     1       0.631  -0.562   1.154  0.00  0.00    +0.036 A 
BRANCH  11  12
ATOM     12  N   UNL     1       0.229  -0.043   2.388  0.00  0.00    -0.314 N 
ATOM     13  H   UNL     1      -0.162   0.843   2.436  0.00  0.00    +0.152 HD
BRANCH  12  14
ATOM     14  C   UNL     1       0.390  -0.801   3.551  0.00  0.00    +0.032 A 
ATOM     15  C   UNL     1       1.566  -1.525   3.750  0.00  0.00    +0.025 A 
ATOM     16  C   UNL     1       1.747  -2.272   4.878  0.00  0.00    +0.030 A 
ATOM     17  C   UNL     1       0.746  -2.318   5.851  0.00  0.00    +0.078 A 
ATOM     18  C   UNL     1      -0.447  -1.587   5.655  0.00  0.00    +0.067 A 
ATOM     19  C   UNL     1      -0.616  -0.825   4.502  0.00  0.00    +0.038 A 
ATOM     20  C   UNL     1      -1.480  -1.658   6.699  0.00  0.00    +0.261 A 
ATOM     21  O   UNL     1      -2.530  -1.052   6.592  0.00  0.00    -0.267 OA
ATOM     22  N   UNL     1      -1.218  -2.424   7.784  0.00  0.00    -0.302 N 
ATOM     23  C   UNL     1      -0.040  -3.094   7.889  0.00  0.00    +0.202 A 
ATOM     24  N   UNL     1       0.890  -3.050   6.984  0.00  0.00    -0.237 NA
ATOM     25  C   UNL     1      -2.211  -2.530   8.855  0.00  0.00    +0.153 C 
ENDBRANCH  12  14
ENDBRANCH  11  12
ENDBRANCH   1   9
BRANCH   2  26
ATOM     26  C   UNL     1       2.211  -5.762  -1.569  0.00  0.00    +0.152 A 
ATOM     27  C   UNL     1       2.074  -6.584  -2.679  0.00  0.00    +0.079 A 
ATOM     28  N   UNL     1       2.763  -7.732  -2.393  0.00  0.00    -0.334 N 
ATOM     29  H   UNL     1       2.856  -8.505  -2.972  0.00  0.00    +0.167 HD
ATOM     30  C   UNL     1       3.291  -7.591  -1.149  0.00  0.00    +0.213 A 
ATOM     31  N   UNL     1       2.968  -6.426  -0.668  0.00  0.00    -0.219 NA
BRANCH  27  32
ATOM     32  C   UNL     1       1.334  -6.281  -3.920  0.00  0.00    +0.003 A 
ATOM     33  C   UNL     1       0.062  -5.707  -3.855  0.00  0.00    +0.013 A 
ATOM     34  C   UNL     1      -0.626  -5.426  -5.017  0.00  0.00    +0.042 A 
ATOM     35  C   UNL     1      -0.058  -5.710  -6.248  0.00  0.00    +0.158 A 
ATOM     36  C   UNL     1       1.206  -6.280  -6.320  0.00  0.00    +0.159 A 
ATOM     37  C   UNL     1       1.905  -6.561  -5.163  0.00  0.00    +0.051 A 
ATOM     38  F   UNL     1       1.754  -6.555  -7.524  0.00  0.00    -0.202 F 
ATOM     39  F   UNL     1      -0.736  -5.432  -7.383  0.00  0.00    -0.202 F 
ENDBRANCH  27  32
BRANCH  30  40
ATOM     40  C   UNL     1       4.126  -8.624  -0.437  0.00  0.00    +0.450 C 
ATOM     41  F   UNL     1       4.209  -8.301   0.922  0.00  0.00    -0.163 F 
ATOM     42  F   UNL     1       3.534  -9.883  -0.581  0.00  0.00    -0.163 F 
ATOM     43  F   UNL     1       5.411  -8.646  -0.990  0.00  0.00    -0.163 F 
ENDBRANCH  30  40
ENDBRANCH   2  26
TORSDOF 6
