REMARK  Name = CHEMBL516127
REMARK  9 active torsions:
REMARK  status: ('A' for Active; 'I' for Inactive)
REMARK    1  A    between atoms: C_1  and  C_2
REMARK    2  A    between atoms: C_5  and  C_31
REMARK    3  A    between atoms: C_7  and  C_8
REMARK    4  A    between atoms: C_11  and  C_14
REMARK    5  A    between atoms: N_16  and  C_17
REMARK    6  A    between atoms: C_17  and  C_18
REMARK    7  A    between atoms: C_21  and  N_24
REMARK    8  A    between atoms: N_27  and  C_30
REMARK    9  A    between atoms: N_33  and  C_34
REMARK                            x       y       z     vdW  Elec       q    Type
REMARK                         _______ _______ _______ _____ _____    ______ ____
ROOT
ATOM      1  C   UNL     1       0.070  -0.014   2.520  0.00  0.00    -0.018 A 
ATOM      2  C   UNL     1       0.972   1.030   2.724  0.00  0.00    +0.009 A 
ATOM      3  C   UNL     1       0.965   1.723   3.914  0.00  0.00    +0.013 A 
ATOM      4  C   UNL     1       0.054   1.380   4.916  0.00  0.00    +0.037 A 
ATOM      5  C   UNL     1      -0.849   0.335   4.710  0.00  0.00    +0.013 A 
ATOM      6  C   UNL     1      -0.844  -0.354   3.518  0.00  0.00    +0.009 A 
ENDROOT
BRANCH   1  13
ATOM      7  C   UNL     1       0.026   1.438   0.023  0.00  0.00    +0.044 C 
ATOM      8  C   UNL     1       0.057  -0.068   0.027  0.00  0.00    -0.043 A 
ATOM      9  C   UNL     1       0.071  -0.761  -1.168  0.00  0.00    +0.005 A 
ATOM     10  C   UNL     1       0.099  -2.141  -1.173  0.00  0.00    +0.013 A 
ATOM     11  C   UNL     1       0.114  -2.845   0.033  0.00  0.00    +0.037 A 
ATOM     12  C   UNL     1       0.100  -2.152   1.242  0.00  0.00    +0.021 A 
ATOM     13  C   UNL     1       0.078  -0.760   1.238  0.00  0.00    -0.014 A 
BRANCH  11  14
ATOM     14  C   UNL     1       0.143  -4.324   0.028  0.00  0.00    +0.244 C 
ATOM     15  O   UNL     1       0.155  -4.935   1.078  0.00  0.00    -0.270 OA
ATOM     16  N   UNL     1       0.155  -4.993  -1.142  0.00  0.00    -0.308 N 
ATOM     17  H   UNL     1       0.145  -4.505  -1.980  0.00  0.00    +0.149 HD
BRANCH  16  18
ATOM     18  C   UNL     1       0.184  -6.458  -1.148  0.00  0.00    +0.073 C 
ATOM     19  C   UNL     1       1.133  -7.142  -2.134  0.00  0.00    +0.024 C 
ATOM     20  C   UNL     1      -0.376  -7.171  -2.380  0.00  0.00    +0.024 C 
ENDBRANCH  16  18
ENDBRANCH  11  14
ENDBRANCH   1  13
BRANCH   4  21
ATOM     21  C   UNL     1       0.046   2.123   6.193  0.00  0.00    +0.244 C 
ATOM     22  O   UNL     1       0.833   3.033   6.372  0.00  0.00    -0.270 OA
ATOM     23  N   UNL     1      -0.833   1.792   7.160  0.00  0.00    -0.307 N 
ATOM     24  H   UNL     1      -1.460   1.066   7.017  0.00  0.00    +0.149 HD
BRANCH  23  25
ATOM     25  C   UNL     1      -0.841   2.529   8.426  0.00  0.00    +0.139 C 
BRANCH  25  26
ATOM     26  C   UNL     1      -1.909   1.966   9.328  0.00  0.00    -0.030 A 
ATOM     27  C   UNL     1      -3.192   2.480   9.281  0.00  0.00    +0.007 A 
ATOM     28  C   UNL     1      -4.173   1.966  10.106  0.00  0.00    +0.023 A 
ATOM     29  C   UNL     1      -3.871   0.933  10.984  0.00  0.00    +0.030 A 
ATOM     30  C   UNL     1      -2.581   0.419  11.028  0.00  0.00    +0.023 A 
ATOM     31  C   UNL     1      -1.605   0.933  10.196  0.00  0.00    +0.007 A 
BRANCH  29  32
ATOM     32  N   UNL     1      -4.861   0.412  11.820  0.00  0.00    -0.333 N 
ATOM     33  C   UNL     1      -4.593  -0.758  12.671  0.00  0.00    +0.086 C 
ATOM     34  C   UNL     1      -5.031  -0.428  14.101  0.00  0.00    -0.060 C 
ATOM     35  N   UNL     1      -6.433   0.009  14.095  0.00  0.00    +0.380 N 
ATOM     36  C   UNL     1      -6.562   1.264  13.343  0.00  0.00    -0.060 C 
ATOM     37  C   UNL     1      -6.198   1.021  11.879  0.00  0.00    +0.086 C 
ATOM     38  C   UNL     1      -6.884   0.220  15.477  0.00  0.00    -0.096 C 
ATOM     39  H   UNL     1      -7.003  -0.701  13.662  0.00  0.00    -0.082 HD
ENDBRANCH  29  32
ENDBRANCH  25  26
ENDBRANCH  23  25
ENDBRANCH   4  21
TORSDOF 7
