REMARK  Name = CHEMBL203225
REMARK  4 active torsions:
REMARK  status: ('A' for Active; 'I' for Inactive)
REMARK    1  A    between atoms: C_1  and  C_2
REMARK    2  A    between atoms: C_8  and  C_10
REMARK    3  A    between atoms: C_15  and  C_19
REMARK    4  A    between atoms: N_25  and  C_26
REMARK                            x       y       z     vdW  Elec       q    Type
REMARK                         _______ _______ _______ _____ _____    ______ ____
ROOT
ATOM      1  C   UNL     1       0.137  -4.336  -0.692  0.00  0.00    +0.223 C 
ATOM      2  O   UNL     1       1.130  -4.999  -0.906  0.00  0.00    -0.275 OA
ATOM      3  N   UNL     1      -1.060  -4.940  -0.554  0.00  0.00    -0.270 N 
ATOM      4  C   UNL     1      -1.176  -6.314  -0.760  0.00  0.00    +0.125 A 
ATOM      5  C   UNL     1      -2.429  -6.910  -0.726  0.00  0.00    +0.052 A 
ATOM      6  C   UNL     1      -2.529  -8.286  -0.934  0.00  0.00    -0.013 A 
ATOM      7  C   UNL     1      -1.353  -9.006  -1.170  0.00  0.00    +0.028 A 
ATOM      8  C   UNL     1      -0.147  -8.338  -1.189  0.00  0.00    +0.113 A 
ATOM      9  N   UNL     1      -0.090  -7.035  -0.993  0.00  0.00    -0.240 NA
ATOM     10  H   UNL     1      -1.841  -4.418  -0.311  0.00  0.00    +0.156 HD
ENDROOT
BRANCH   1  18
ATOM     11  C   UNL     1      -1.219   1.605  -1.479  0.00  0.00    +0.109 C 
ATOM     12  C   UNL     1      -1.455   0.116  -1.510  0.00  0.00    +0.212 C 
ATOM     13  O   UNL     1      -2.583  -0.321  -1.433  0.00  0.00    -0.276 OA
ATOM     14  N   UNL     1      -0.411  -0.729  -1.623  0.00  0.00    -0.301 N 
ATOM     15  C   UNL     1       0.963  -0.215  -1.711  0.00  0.00    +0.108 C 
ATOM     16  C   UNL     1       1.812  -0.892  -0.631  0.00  0.00    +0.020 C 
ATOM     17  C   UNL     1       1.699  -2.411  -0.776  0.00  0.00    +0.016 C 
ATOM     18  C   UNL     1       0.242  -2.837  -0.581  0.00  0.00    +0.093 C 
ATOM     19  C   UNL     1      -0.625  -2.182  -1.655  0.00  0.00    +0.120 C 
ENDBRANCH   1  18
BRANCH   6  20
ATOM     20  C   UNL     1      -3.847  -8.967  -0.905  0.00  0.00    -0.013 A 
ATOM     21  C   UNL     1      -5.024  -8.245  -0.674  0.00  0.00    +0.028 A 
ATOM     22  C   UNL     1      -6.229  -8.912  -0.656  0.00  0.00    +0.113 A 
ATOM     23  N   UNL     1      -6.287 -10.216  -0.852  0.00  0.00    -0.240 NA
ATOM     24  C   UNL     1      -5.200 -10.939  -1.074  0.00  0.00    +0.123 A 
ATOM     25  C   UNL     1      -3.946 -10.342  -1.114  0.00  0.00    +0.052 A 
ATOM     26  N   UNL     1      -5.316 -12.311  -1.274  0.00  0.00    -0.299 N 
ATOM     27  H   UNL     1      -4.519 -12.857  -1.362  0.00  0.00    +0.154 HD
BRANCH  26  28
ATOM     28  C   UNL     1      -6.580 -12.903  -1.349  0.00  0.00    +0.032 A 
ATOM     29  C   UNL     1      -7.646 -12.199  -1.895  0.00  0.00    +0.023 A 
ATOM     30  C   UNL     1      -8.893 -12.787  -1.969  0.00  0.00    +0.002 A 
ATOM     31  C   UNL     1      -9.082 -14.074  -1.499  0.00  0.00    +0.000 A 
ATOM     32  C   UNL     1      -8.023 -14.777  -0.955  0.00  0.00    +0.002 A 
ATOM     33  C   UNL     1      -6.771 -14.197  -0.883  0.00  0.00    +0.023 A 
ENDBRANCH  26  28
ENDBRANCH   6  20
TORSDOF 3
