REMARK  Name = CHEMBL69929
REMARK  3 active torsions:
REMARK  status: ('A' for Active; 'I' for Inactive)
REMARK    1  A    between atoms: C_4  and  C_7
REMARK    2  A    between atoms: C_10  and  C_19
REMARK    3  A    between atoms: C_11  and  C_13
REMARK                            x       y       z     vdW  Elec       q    Type
REMARK                         _______ _______ _______ _____ _____    ______ ____
ROOT
ATOM      1  C   UNL     1       3.696  -0.685  -0.037  0.00  0.00    +0.139 A 
ATOM      2  N   UNL     1       4.881  -0.119  -0.045  0.00  0.00    -0.227 NA
ATOM      3  H   UNL     1       3.134  -2.699  -0.033  0.00  0.00    +0.167 HD
ATOM      4  C   UNL     1       5.831  -1.066  -0.060  0.00  0.00    +0.097 A 
ATOM      5  C   UNL     1       5.198  -2.299  -0.061  0.00  0.00    +0.074 A 
ATOM      6  N   UNL     1       3.846  -2.040  -0.041  0.00  0.00    -0.337 N 
ENDROOT
BRANCH   4   7
ATOM      7  C   UNL     1       7.295  -0.836  -0.073  0.00  0.00    +0.004 A 
ATOM      8  C   UNL     1       8.147  -1.711   0.600  0.00  0.00    +0.011 A 
ATOM      9  C   UNL     1       9.509  -1.493   0.585  0.00  0.00    +0.022 A 
ATOM     10  C   UNL     1      10.031  -0.407  -0.098  0.00  0.00    +0.059 A 
ATOM     11  C   UNL     1       9.190   0.465  -0.769  0.00  0.00    +0.060 A 
ATOM     12  C   UNL     1       7.825   0.253  -0.764  0.00  0.00    +0.031 A 
ATOM     13 CL   UNL     1       9.852   1.824  -1.623  0.00  0.00    -0.082 Cl
ATOM     14 CL   UNL     1      11.746  -0.138  -0.113  0.00  0.00    -0.082 Cl
ENDBRANCH   4   7
BRANCH   1  18
ATOM     15  C   UNL     1      -0.017   1.379   0.010  0.00  0.00    +0.000 A 
ATOM     16  C   UNL     1       1.168   2.094   0.002  0.00  0.00    +0.001 A 
ATOM     17  C   UNL     1       2.377   1.429  -0.013  0.00  0.00    +0.011 A 
ATOM     18  C   UNL     1       2.403   0.034  -0.021  0.00  0.00    +0.017 A 
ATOM     19  C   UNL     1       1.204  -0.681  -0.013  0.00  0.00    +0.011 A 
ATOM     20  C   UNL     1       0.002  -0.004   0.002  0.00  0.00    +0.001 A 
ENDBRANCH   1  18
BRANCH   5  21
ATOM     21  C   UNL     1       5.845  -3.624  -0.075  0.00  0.00    +0.003 A 
ATOM     22  C   UNL     1       6.920  -3.893  -0.933  0.00  0.00    +0.030 A 
ATOM     23  C   UNL     1       7.494  -5.146  -0.912  0.00  0.00    +0.111 A 
ATOM     24  N   UNL     1       7.044  -6.085  -0.101  0.00  0.00    -0.263 NA
ATOM     25  C   UNL     1       6.034  -5.875   0.723  0.00  0.00    +0.111 A 
ATOM     26  C   UNL     1       5.405  -4.650   0.774  0.00  0.00    +0.030 A 
ENDBRANCH   5  21
TORSDOF 3
