REMARK  Name = CHEMBL494469
REMARK  6 active torsions:
REMARK  status: ('A' for Active; 'I' for Inactive)
REMARK    1  A    between atoms: C_1  and  C_2
REMARK    2  A    between atoms: C_5  and  C_26
REMARK    3  A    between atoms: C_7  and  C_8
REMARK    4  A    between atoms: C_17  and  N_18
REMARK    5  A    between atoms: C_23  and  C_25
REMARK    6  A    between atoms: N_28  and  C_29
REMARK                            x       y       z     vdW  Elec       q    Type
REMARK                         _______ _______ _______ _____ _____    ______ ____
ROOT
ATOM      1  C   UNL     1      -0.026  -0.579   3.329  0.00  0.00    -0.017 A 
ATOM      2  C   UNL     1       0.946   0.432   3.382  0.00  0.00    +0.009 A 
ATOM      3  C   UNL     1       0.953   1.344   4.393  0.00  0.00    +0.012 A 
ATOM      4  C   UNL     1      -0.022   1.276   5.395  0.00  0.00    +0.023 A 
ATOM      5  C   UNL     1      -1.011   0.258   5.352  0.00  0.00    +0.006 A 
ATOM      6  C   UNL     1      -1.006  -0.667   4.302  0.00  0.00    +0.018 A 
ATOM      7  C   UNL     1      -1.971   0.232   6.382  0.00  0.00    +0.141 A 
ATOM      8  N   UNL     1      -1.915   1.138   7.330  0.00  0.00    -0.180 NA
ATOM      9  N   UNL     1      -1.026   2.059   7.376  0.00  0.00    -0.264 N 
ATOM     10  C   UNL     1      -0.072   2.191   6.471  0.00  0.00    +0.123 A 
ATOM     11  H   UNL     1      -1.054   2.690   8.112  0.00  0.00    +0.190 HD
ENDROOT
BRANCH   1  18
ATOM     12  C   UNL     1       0.161   0.362   0.604  0.00  0.00    +0.044 C 
ATOM     13  C   UNL     1       0.084  -1.114   0.896  0.00  0.00    -0.043 A 
ATOM     14  C   UNL     1       0.107  -2.024  -0.143  0.00  0.00    +0.005 A 
ATOM     15  C   UNL     1       0.037  -3.378   0.116  0.00  0.00    +0.013 A 
ATOM     16  C   UNL     1      -0.059  -3.835   1.432  0.00  0.00    +0.037 A 
ATOM     17  C   UNL     1      -0.084  -2.921   2.483  0.00  0.00    +0.021 A 
ATOM     18  C   UNL     1      -0.007  -1.558   2.215  0.00  0.00    -0.014 A 
BRANCH  16  19
ATOM     19  C   UNL     1      -0.135  -5.286   1.709  0.00  0.00    +0.244 C 
ATOM     20  O   UNL     1      -0.218  -5.682   2.855  0.00  0.00    -0.270 OA
ATOM     21  N   UNL     1      -0.112  -6.169   0.691  0.00  0.00    -0.308 N 
ATOM     22  H   UNL     1      -0.045  -5.852  -0.224  0.00  0.00    +0.149 HD
BRANCH  21  23
ATOM     23  C   UNL     1      -0.187  -7.606   0.966  0.00  0.00    +0.073 C 
ATOM     24  C   UNL     1       0.759  -8.524   0.189  0.00  0.00    +0.024 C 
ATOM     25  C   UNL     1      -0.734  -8.509  -0.142  0.00  0.00    +0.024 C 
ENDBRANCH  21  23
ENDBRANCH  16  19
ENDBRANCH   1  18
BRANCH  10  26
ATOM     26  N   UNL     1       0.863   3.208   6.575  0.00  0.00    -0.308 N 
ATOM     27  C   UNL     1       2.127   3.004   7.299  0.00  0.00    +0.135 C 
ATOM     28  C   UNL     1       2.306   4.157   8.294  0.00  0.00    +0.179 C 
ATOM     29  O   UNL     1       2.164   5.401   7.603  0.00  0.00    -0.376 OA
ATOM     30  C   UNL     1       0.873   5.604   7.023  0.00  0.00    +0.182 C 
ATOM     31  C   UNL     1       0.623   4.523   5.959  0.00  0.00    +0.097 C 
ATOM     32  C   UNL     1      -0.824   4.606   5.468  0.00  0.00    +0.030 C 
ENDBRANCH  10  26
TORSDOF 4
