REMARK  Name = CHEMBL484550
REMARK  11 active torsions:
REMARK  status: ('A' for Active; 'I' for Inactive)
REMARK    1  A    between atoms: C_1  and  C_2
REMARK    2  A    between atoms: C_3  and  C_11
REMARK    3  A    between atoms: C_5  and  C_7
REMARK    4  A    between atoms: C_7  and  C_8
REMARK    5  A    between atoms: C_7  and  C_9
REMARK    6  A    between atoms: C_7  and  C_10
REMARK    7  A    between atoms: C_11  and  C_13
REMARK    8  A    between atoms: N_15  and  C_16
REMARK    9  A    between atoms: C_19  and  C_26
REMARK   10  A    between atoms: C_29  and  C_32
REMARK   11  A    between atoms: C_32  and  N_33
REMARK                            x       y       z     vdW  Elec       q    Type
REMARK                         _______ _______ _______ _____ _____    ______ ____
ROOT
ATOM      1  C   UNL     1      -5.847  -2.094  -0.073  0.00  0.00    +0.042 A 
ATOM      2  C   UNL     1      -5.468  -3.421  -0.070  0.00  0.00    +0.024 A 
ATOM      3  C   UNL     1      -6.414  -4.432  -0.161  0.00  0.00    +0.011 A 
ATOM      4  C   UNL     1      -7.763  -4.135  -0.258  0.00  0.00    -0.009 A 
ATOM      5  C   UNL     1      -8.182  -2.783  -0.264  0.00  0.00    -0.008 A 
ATOM      6  C   UNL     1      -7.215  -1.754  -0.165  0.00  0.00    +0.004 A 
ATOM      7  C   UNL     1      -7.632  -0.414  -0.166  0.00  0.00    +0.010 A 
ATOM      8  C   UNL     1      -8.959  -0.121  -0.257  0.00  0.00    +0.001 A 
ATOM      9  C   UNL     1      -9.911  -1.134  -0.349  0.00  0.00    +0.001 A 
ATOM     10  C   UNL     1      -9.540  -2.445  -0.361  0.00  0.00    +0.009 A 
ENDROOT
BRANCH   4  11
ATOM     11  C   UNL     1      -8.760  -5.224  -0.355  0.00  0.00    +0.001 A 
ATOM     12  C   UNL     1      -8.597  -6.257  -1.286  0.00  0.00    +0.012 A 
ATOM     13  C   UNL     1      -9.558  -7.252  -1.337  0.00  0.00    +0.025 A 
ATOM     14  C   UNL     1     -10.639  -7.194  -0.475  0.00  0.00    +0.055 A 
ATOM     15  N   UNL     1     -10.766  -6.208   0.392  0.00  0.00    -0.258 NA
ATOM     16  C   UNL     1      -9.876  -5.242   0.482  0.00  0.00    +0.119 A 
BRANCH  14  17
ATOM     17  C   UNL     1     -11.688  -8.275  -0.528  0.00  0.00    +0.140 C 
BRANCH  17  18
ATOM     18  N   UNL     1     -11.384  -9.302   0.478  0.00  0.00    -0.292 NA
ATOM     19  C   UNL     1     -10.141 -10.013   0.145  0.00  0.00    +0.113 C 
ATOM     20  C   UNL     1      -9.831 -11.030   1.247  0.00  0.00    +0.175 C 
ATOM     21  O   UNL     1     -10.941 -11.919   1.394  0.00  0.00    -0.377 OA
ATOM     22  C   UNL     1     -12.168 -11.260   1.718  0.00  0.00    +0.175 C 
ATOM     23  C   UNL     1     -12.502 -10.245   0.621  0.00  0.00    +0.113 C 
ENDBRANCH  17  18
ENDBRANCH  14  17
ENDBRANCH   4  11
BRANCH   1  26
ATOM     24  C   UNL     1      -3.695  -1.352   0.600  0.00  0.00    +0.289 C 
ATOM     25  O   UNL     1      -3.501  -2.427   1.130  0.00  0.00    -0.266 OA
ATOM     26  N   UNL     1      -4.884  -1.092   0.021  0.00  0.00    -0.278 N 
ATOM     27  H   UNL     1      -5.069  -0.208  -0.332  0.00  0.00    +0.155 HD
BRANCH  24  28
ATOM     28  C   UNL     1      -2.620  -0.320   0.591  0.00  0.00    +0.251 C 
ATOM     29  O   UNL     1      -2.815   0.755   0.061  0.00  0.00    -0.282 OA
BRANCH  28  32
ATOM     30  C   UNL     1      -0.145   1.633   0.745  0.00  0.00    +0.087 C 
ATOM     31  C   UNL     1      -0.231   0.236   1.302  0.00  0.00    +0.113 A 
ATOM     32  C   UNL     1      -1.325  -0.603   1.222  0.00  0.00    +0.068 A 
ATOM     33  C   UNL     1      -0.917  -1.841   1.906  0.00  0.00    +0.057 A 
ATOM     34  C   UNL     1       0.342  -1.638   2.319  0.00  0.00    +0.111 A 
ATOM     35  O   UNL     1       0.741  -0.410   1.953  0.00  0.00    -0.464 OA
BRANCH  34  36
ATOM     36  C   UNL     1       1.182  -2.637   3.073  0.00  0.00    +0.020 C 
ATOM     37  C   UNL     1       1.349  -3.902   2.230  0.00  0.00    +0.019 C 
ATOM     38  C   UNL     1       2.557  -2.031   3.362  0.00  0.00    +0.019 C 
ATOM     39  C   UNL     1       0.492  -2.990   4.392  0.00  0.00    +0.019 C 
ENDBRANCH  34  36
ENDBRANCH  28  32
ENDBRANCH  24  28
ENDBRANCH   1  26
TORSDOF 7
