REMARK  Name = CHEMBL41723
REMARK  9 active torsions:
REMARK  status: ('A' for Active; 'I' for Inactive)
REMARK    1  A    between atoms: C_1  and  C_2
REMARK    2  A    between atoms: C_2  and  C_3
REMARK    3  A    between atoms: C_2  and  C_4
REMARK    4  A    between atoms: C_2  and  C_5
REMARK    5  A    between atoms: C_7  and  N_11
REMARK    6  A    between atoms: N_8  and  C_10
REMARK    7  A    between atoms: N_14  and  C_15
REMARK    8  A    between atoms: C_18  and  S_21
REMARK    9  A    between atoms: S_21  and  C_22
REMARK                            x       y       z     vdW  Elec       q    Type
REMARK                         _______ _______ _______ _____ _____    ______ ____
ROOT
ATOM      1  N   UNL     1       3.911  -0.868  -4.226  0.00  0.00    -0.254 N 
ATOM      2  C   UNL     1       4.936  -0.449  -3.458  0.00  0.00    +0.309 C 
ATOM      3  O   UNL     1       4.763   0.436  -2.643  0.00  0.00    -0.252 OA
ATOM      4  N   UNL     1       6.154  -1.011  -3.595  0.00  0.00    -0.269 N 
ATOM      5  H   UNL     1       4.049  -1.573  -4.877  0.00  0.00    +0.158 HD
ATOM      6  H   UNL     1       6.275  -1.766  -4.192  0.00  0.00    +0.156 HD
ENDROOT
BRANCH   1   9
ATOM      7  C   UNL     1       0.962   0.997  -3.398  0.00  0.00    +0.070 A 
ATOM      8  C   UNL     1       2.317   0.708  -3.217  0.00  0.00    +0.069 A 
ATOM      9  C   UNL     1       2.651  -0.286  -4.085  0.00  0.00    +0.124 A 
ATOM     10  N   UNL     1       1.539  -0.607  -4.785  0.00  0.00    -0.253 N 
ATOM     11  N   UNL     1       0.494   0.208  -4.332  0.00  0.00    -0.174 NA
ATOM     12  C   UNL     1       1.444  -1.629  -5.830  0.00  0.00    +0.174 C 
BRANCH   7  14
ATOM     13  C   UNL     1       0.536   3.428  -3.160  0.00  0.00    +0.017 C 
ATOM     14  C   UNL     1       0.172   2.035  -2.644  0.00  0.00    +0.006 C 
ATOM     15  C   UNL     1       0.501   1.942  -1.153  0.00  0.00    +0.017 C 
ATOM     16  C   UNL     1      -1.324   1.789  -2.852  0.00  0.00    +0.017 C 
ENDBRANCH   7  14
ENDBRANCH   1   9
BRANCH   4  17
ATOM     17  C   UNL     1       7.244  -0.505  -2.875  0.00  0.00    +0.035 A 
ATOM     18  C   UNL     1       8.508  -0.484  -3.451  0.00  0.00    +0.024 A 
ATOM     19  C   UNL     1       9.582   0.015  -2.742  0.00  0.00    +0.017 A 
ATOM     20  C   UNL     1       9.399   0.496  -1.452  0.00  0.00    +0.013 A 
ATOM     21  C   UNL     1       8.135   0.475  -0.875  0.00  0.00    +0.017 A 
ATOM     22  C   UNL     1       7.060  -0.019  -1.587  0.00  0.00    +0.024 A 
BRANCH  20  23
ATOM     23  S   UNL     1      10.770   1.133  -0.546  0.00  0.00    -0.089 S 
BRANCH  23  24
ATOM     24  C   UNL     1      10.759   2.856  -0.912  0.00  0.00    +0.016 A 
ATOM     25  C   UNL     1       9.794   3.402  -1.759  0.00  0.00    +0.035 A 
ATOM     26  C   UNL     1       9.821   4.756  -2.020  0.00  0.00    +0.112 A 
ATOM     27  N   UNL     1      10.743   5.531  -1.480  0.00  0.00    -0.263 NA
ATOM     28  C   UNL     1      11.673   5.053  -0.674  0.00  0.00    +0.112 A 
ATOM     29  C   UNL     1      11.712   3.712  -0.357  0.00  0.00    +0.035 A 
ENDBRANCH  23  24
ENDBRANCH  20  23
ENDBRANCH   4  17
TORSDOF 5
