REMARK  Name = CHEMBL161276
REMARK  7 active torsions:
REMARK  status: ('A' for Active; 'I' for Inactive)
REMARK    1  A    between atoms: C_1  and  C_2
REMARK    2  A    between atoms: C_2  and  C_4
REMARK    3  A    between atoms: C_2  and  N_10
REMARK    4  A    between atoms: C_15  and  C_17
REMARK    5  A    between atoms: C_19  and  N_33
REMARK    6  A    between atoms: C_22  and  C_23
REMARK    7  A    between atoms: C_27  and  C_29
REMARK                            x       y       z     vdW  Elec       q    Type
REMARK                         _______ _______ _______ _____ _____    ______ ____
ROOT
ATOM      1  C   UNL     1       0.820  -1.666   5.818  0.00  0.00    +0.031 A 
ATOM      2  C   UNL     1       0.208  -1.744   7.070  0.00  0.00    +0.057 A 
ATOM      3  C   UNL     1       0.954  -2.259   8.129  0.00  0.00    +0.144 A 
ATOM      4  N   UNL     1       2.203  -2.656   7.929  0.00  0.00    -0.134 NA
ATOM      5  N   UNL     1       2.772  -2.588   6.781  0.00  0.00    -0.147 NA
ATOM      6  C   UNL     1       2.149  -2.120   5.709  0.00  0.00    +0.103 A 
ENDROOT
BRANCH   1  12
ATOM      7  N   UNL     1      -0.529  -2.027   1.250  0.00  0.00    -0.307 N 
ATOM      8  C   UNL     1      -0.552  -1.315   2.436  0.00  0.00    +0.216 A 
ATOM      9  N   UNL     1      -1.222  -0.172   2.490  0.00  0.00    -0.223 NA
ATOM     10  C   UNL     1      -1.268   0.538   3.605  0.00  0.00    +0.116 A 
ATOM     11  C   UNL     1      -0.604   0.078   4.729  0.00  0.00    +0.048 A 
ATOM     12  C   UNL     1       0.093  -1.130   4.642  0.00  0.00    +0.078 A 
ATOM     13  N   UNL     1       0.091  -1.794   3.489  0.00  0.00    -0.214 NA
ATOM     14  H   UNL     1      -0.046  -2.867   1.198  0.00  0.00    +0.149 HD
BRANCH   7  16
ATOM     15  C   UNL     1      -0.333  -0.528  -0.673  0.00  0.00    +0.033 C 
ATOM     16  C   UNL     1      -1.234  -1.514   0.073  0.00  0.00    +0.100 C 
BRANCH  16  17
ATOM     17  C   UNL     1      -1.589  -2.660  -0.840  0.00  0.00    -0.027 A 
ATOM     18  C   UNL     1      -0.690  -3.692  -1.035  0.00  0.00    +0.005 A 
ATOM     19  C   UNL     1      -1.015  -4.742  -1.872  0.00  0.00    +0.000 A 
ATOM     20  C   UNL     1      -2.239  -4.762  -2.514  0.00  0.00    +0.000 A 
ATOM     21  C   UNL     1      -3.139  -3.731  -2.318  0.00  0.00    +0.000 A 
ATOM     22  C   UNL     1      -2.815  -2.682  -1.477  0.00  0.00    +0.005 A 
ENDBRANCH  16  17
ENDBRANCH   7  16
ENDBRANCH   1  12
BRANCH   3  23
ATOM     23  N   UNL     1       0.388  -2.356   9.395  0.00  0.00    -0.317 N 
ATOM     24  C   UNL     1       1.211  -2.689  10.568  0.00  0.00    +0.087 C 
ATOM     25  C   UNL     1       0.929  -1.659  11.667  0.00  0.00    -0.063 C 
ATOM     26  N   UNL     1      -0.514  -1.612  11.933  0.00  0.00    +0.381 N 
ATOM     27  C   UNL     1      -1.227  -1.126  10.745  0.00  0.00    -0.063 C 
ATOM     28  C   UNL     1      -1.050  -2.124   9.601  0.00  0.00    +0.087 C 
ATOM     29  H   UNL     1      -0.843  -2.537  12.166  0.00  0.00    -0.086 HD
ATOM     30  H   UNL     1      -0.692  -0.990  12.708  0.00  0.00    -0.086 HD
ENDBRANCH   3  23
BRANCH   6  31
ATOM     31  C   UNL     1       2.849  -2.068   4.404  0.00  0.00    +0.003 A 
ATOM     32  C   UNL     1       2.726  -0.944   3.588  0.00  0.00    +0.010 A 
ATOM     33  C   UNL     1       3.381  -0.901   2.374  0.00  0.00    +0.001 A 
ATOM     34  C   UNL     1       4.157  -1.971   1.965  0.00  0.00    +0.012 A 
ATOM     35  C   UNL     1       4.282  -3.089   2.771  0.00  0.00    +0.055 A 
ATOM     36  C   UNL     1       3.637  -3.141   3.990  0.00  0.00    +0.022 A 
BRANCH  35  37
ATOM     37  C   UNL     1       5.129  -4.251   2.318  0.00  0.00    +0.417 C 
ATOM     38  F   UNL     1       5.680  -3.966   1.064  0.00  0.00    -0.166 F 
ATOM     39  F   UNL     1       6.158  -4.465   3.242  0.00  0.00    -0.166 F 
ATOM     40  F   UNL     1       4.336  -5.399   2.228  0.00  0.00    -0.166 F 
ENDBRANCH  35  37
ENDBRANCH   6  31
TORSDOF 6
