REMARK  Name = CHEMBL437030
REMARK  7 active torsions:
REMARK  status: ('A' for Active; 'I' for Inactive)
REMARK    1  A    between atoms: C_1  and  C_2
REMARK    2  A    between atoms: C_2  and  C_3
REMARK    3  A    between atoms: C_2  and  S_4
REMARK    4  A    between atoms: S_4  and  N_7
REMARK    5  A    between atoms: C_10  and  C_17
REMARK    6  A    between atoms: C_18  and  C_29
REMARK    7  A    between atoms: C_20  and  C_23
REMARK                            x       y       z     vdW  Elec       q    Type
REMARK                         _______ _______ _______ _____ _____    ______ ____
ROOT
ATOM      1  N   UNL     1      -2.086  -2.164   0.061  0.00  0.00    -0.183 N 
ATOM      2  C   UNL     1      -1.802  -3.071  -0.948  0.00  0.00    +0.094 A 
ATOM      3  C   UNL     1      -1.734  -2.980  -2.327  0.00  0.00    +0.039 A 
ATOM      4  C   UNL     1      -1.412  -4.111  -3.077  0.00  0.00    +0.003 A 
ATOM      5  C   UNL     1      -1.160  -5.331  -2.435  0.00  0.00    +0.012 A 
ATOM      6  C   UNL     1      -1.227  -5.424  -1.076  0.00  0.00    +0.030 A 
ATOM      7  C   UNL     1      -1.548  -4.298  -0.310  0.00  0.00    +0.093 A 
ATOM      8  N   UNL     1      -1.685  -4.090   1.025  0.00  0.00    -0.213 NA
ATOM      9  C   UNL     1      -1.995  -2.836   1.246  0.00  0.00    +0.214 A 
ATOM     10  N   UNL     1      -2.203  -2.280   2.490  0.00  0.00    -0.328 N 
ATOM     11  H   UNL     1      -2.433  -1.341   2.569  0.00  0.00    +0.145 HD
ATOM     12  H   UNL     1      -2.119  -2.827   3.286  0.00  0.00    +0.145 HD
ENDROOT
BRANCH   4  13
ATOM     13  C   UNL     1      -1.338  -4.024  -4.547  0.00  0.00    +0.074 A 
ATOM     14  C   UNL     1      -1.915  -4.892  -5.461  0.00  0.00    +0.097 A 
ATOM     15  N   UNL     1      -1.606  -4.455  -6.692  0.00  0.00    -0.227 NA
ATOM     16  C   UNL     1      -0.873  -3.369  -6.601  0.00  0.00    +0.139 A 
ATOM     17  N   UNL     1      -0.687  -3.062  -5.283  0.00  0.00    -0.337 N 
ATOM     18  H   UNL     1      -0.188  -2.309  -4.932  0.00  0.00    +0.167 HD
BRANCH  16  19
ATOM     19  C   UNL     1      -0.339  -2.598  -7.744  0.00  0.00    +0.020 A 
ATOM     20  C   UNL     1       0.440  -1.453  -7.538  0.00  0.00    +0.031 A 
ATOM     21  C   UNL     1       0.918  -0.764  -8.633  0.00  0.00    +0.111 A 
ATOM     22  N   UNL     1       0.649  -1.170  -9.860  0.00  0.00    -0.263 NA
ATOM     23  C   UNL     1      -0.081  -2.243 -10.098  0.00  0.00    +0.111 A 
ATOM     24  C   UNL     1      -0.594  -2.995  -9.062  0.00  0.00    +0.031 A 
ENDBRANCH  16  19
BRANCH  14  25
ATOM     25  C   UNL     1      -2.727  -6.088  -5.138  0.00  0.00    +0.002 A 
ATOM     26  C   UNL     1      -3.680  -6.034  -4.121  0.00  0.00    +0.010 A 
ATOM     27  C   UNL     1      -4.433  -7.151  -3.824  0.00  0.00    +0.001 A 
ATOM     28  C   UNL     1      -4.244  -8.324  -4.533  0.00  0.00    +0.000 A 
ATOM     29  C   UNL     1      -3.299  -8.385  -5.542  0.00  0.00    +0.001 A 
ATOM     30  C   UNL     1      -2.544  -7.272  -5.852  0.00  0.00    +0.010 A 
ENDBRANCH  14  25
ENDBRANCH   4  13
BRANCH   1  31
ATOM     31  S   UNL     1      -2.458  -0.562  -0.134  0.00  0.00    +0.060 S 
ATOM     32  O   UNL     1      -3.228  -0.227   1.012  0.00  0.00    -0.153 OA
ATOM     33  O   UNL     1      -3.021  -0.476  -1.436  0.00  0.00    -0.153 OA
BRANCH  31  35
ATOM     34  C   UNL     1      -1.093   1.808  -0.133  0.00  0.00    +0.033 C 
ATOM     35  C   UNL     1      -0.861   0.297  -0.086  0.00  0.00    +0.148 C 
ATOM     36  C   UNL     1      -0.125  -0.066   1.205  0.00  0.00    +0.033 C 
ENDBRANCH  31  35
ENDBRANCH   1  31
TORSDOF 5
