REMARK  Name = CHEMBL255288
REMARK  7 active torsions:
REMARK  status: ('A' for Active; 'I' for Inactive)
REMARK    1  A    between atoms: C_1  and  C_2
REMARK    2  A    between atoms: C_5  and  C_20
REMARK    3  A    between atoms: C_7  and  N_8
REMARK    4  A    between atoms: C_9  and  C_11
REMARK    5  A    between atoms: N_16  and  C_17
REMARK    6  A    between atoms: C_17  and  C_18
REMARK    7  A    between atoms: C_17  and  C_19
REMARK                            x       y       z     vdW  Elec       q    Type
REMARK                         _______ _______ _______ _____ _____    ______ ____
ROOT
ATOM      1  C   UNL     1      -0.010   1.493   0.004  0.00  0.00    +0.045 C 
ATOM      2  C   UNL     1       0.015  -0.014   0.002  0.00  0.00    -0.029 A 
ATOM      3  C   UNL     1       0.027  -0.701  -1.198  0.00  0.00    +0.006 A 
ATOM      4  C   UNL     1       0.050  -2.081  -1.208  0.00  0.00    +0.013 A 
ATOM      5  C   UNL     1       0.062  -2.788  -0.003  0.00  0.00    +0.039 A 
ATOM      6  C   UNL     1       0.050  -2.094   1.207  0.00  0.00    +0.036 A 
ATOM      7  C   UNL     1       0.031  -0.708   1.206  0.00  0.00    +0.037 A 
ENDROOT
BRANCH   5   8
ATOM      8  C   UNL     1       0.086  -4.266  -0.011  0.00  0.00    +0.249 C 
ATOM      9  O   UNL     1       0.096  -4.879   1.038  0.00  0.00    -0.270 OA
ATOM     10  N   UNL     1       0.097  -4.933  -1.182  0.00  0.00    -0.265 N 
ATOM     11  C   UNL     1       0.120  -6.334  -1.189  0.00  0.00    +0.147 A 
ATOM     12  C   UNL     1       0.128  -7.165  -0.057  0.00  0.00    +0.064 A 
ATOM     13  C   UNL     1       0.151  -8.448  -0.484  0.00  0.00    +0.107 A 
ATOM     14  N   UNL     1       0.158  -8.435  -1.834  0.00  0.00    -0.283 N 
ATOM     15  N   UNL     1       0.133  -7.099  -2.255  0.00  0.00    -0.159 NA
ATOM     16  H   UNL     1       0.173  -9.214  -2.411  0.00  0.00    +0.188 HD
ATOM     17  H   UNL     1       0.089  -4.444  -2.019  0.00  0.00    +0.157 HD
ENDBRANCH   5   8
BRANCH   7  18
ATOM     18  N   UNL     1       0.025  -0.008   2.417  0.00  0.00    -0.281 N 
ATOM     19  C   UNL     1      -0.632  -0.509   3.481  0.00  0.00    +0.256 C 
ATOM     20  O   UNL     1      -1.150  -1.609   3.414  0.00  0.00    -0.269 OA
ATOM     21  H   UNL     1       0.493   0.839   2.490  0.00  0.00    +0.155 HD
BRANCH  19  22
ATOM     22  C   UNL     1      -0.723   0.267   4.717  0.00  0.00    +0.095 A 
ATOM     23  C   UNL     1      -1.336  -0.050   5.920  0.00  0.00    +0.133 A 
ATOM     24  N   UNL     1      -1.257   0.849   6.869  0.00  0.00    -0.233 NA
ATOM     25  C   UNL     1      -0.626   1.995   6.682  0.00  0.00    +0.159 A 
ATOM     26  S   UNL     1      -0.070   1.885   5.097  0.00  0.00    -0.048 S 
ATOM     27  N   UNL     1      -0.459   3.032   7.574  0.00  0.00    -0.321 N 
ATOM     28  H   UNL     1       0.030   3.826   7.309  0.00  0.00    +0.148 HD
BRANCH  27  29
ATOM     29  C   UNL     1      -1.019   2.934   8.924  0.00  0.00    +0.066 C 
ATOM     30  C   UNL     1      -0.038   2.189   9.831  0.00  0.00    +0.027 C 
ATOM     31  C   UNL     1      -1.261   4.339   9.479  0.00  0.00    +0.027 C 
ENDBRANCH  27  29
ENDBRANCH  19  22
ENDBRANCH   7  18
TORSDOF 4
