REMARK  Name = CHEMBL439238
REMARK  6 active torsions:
REMARK  status: ('A' for Active; 'I' for Inactive)
REMARK    1  A    between atoms: C_1  and  C_2
REMARK    2  A    between atoms: C_2  and  C_3
REMARK    3  A    between atoms: C_3  and  C_5
REMARK    4  A    between atoms: C_3  and  N_6
REMARK    5  A    between atoms: C_12  and  C_16
REMARK    6  A    between atoms: C_17  and  C_22
REMARK                            x       y       z     vdW  Elec       q    Type
REMARK                         _______ _______ _______ _____ _____    ______ ____
ROOT
ATOM      1  N   UNL     1      -2.308  -1.190   0.654  0.00  0.00    -0.321 N 
ATOM      2  C   UNL     1      -3.651  -0.915   0.812  0.00  0.00    +0.159 A 
ATOM      3  N   UNL     1      -4.606  -0.927  -0.090  0.00  0.00    -0.225 NA
ATOM      4  C   UNL     1      -5.891  -0.635   0.209  0.00  0.00    +0.080 A 
ATOM      5  C   UNL     1      -7.004  -0.612  -0.664  0.00  0.00    +0.029 A 
ATOM      6  C   UNL     1      -8.244  -0.296  -0.210  0.00  0.00    +0.012 A 
ATOM      7  C   UNL     1      -8.471   0.019   1.136  0.00  0.00    +0.002 A 
ATOM      8  C   UNL     1      -7.394   0.006   2.026  0.00  0.00    +0.027 A 
ATOM      9  C   UNL     1      -6.145  -0.314   1.563  0.00  0.00    +0.041 A 
ATOM     10  S   UNL     1      -4.534  -0.461   2.298  0.00  0.00    -0.052 S 
ATOM     11  H   UNL     1      -1.711  -1.147   1.417  0.00  0.00    +0.148 HD
ENDROOT
BRANCH   7  12
ATOM     12  C   UNL     1      -9.828   0.361   1.606  0.00  0.00    +0.074 A 
ATOM     13  C   UNL     1     -10.718   1.236   1.010  0.00  0.00    +0.099 A 
ATOM     14  N   UNL     1     -11.834   1.253   1.763  0.00  0.00    -0.235 NA
ATOM     15  C   UNL     1     -11.690   0.448   2.778  0.00  0.00    +0.197 A 
ATOM     16  N   UNL     1     -10.464  -0.133   2.722  0.00  0.00    -0.344 N 
ATOM     17  H   UNL     1     -10.103  -0.775   3.353  0.00  0.00    +0.167 HD
BRANCH  13  18
ATOM     18  C   UNL     1     -10.485   2.014  -0.229  0.00  0.00    +0.038 A 
ATOM     19  C   UNL     1      -9.295   2.721  -0.398  0.00  0.00    +0.013 A 
ATOM     20  C   UNL     1      -9.083   3.444  -1.554  0.00  0.00    +0.001 A 
ATOM     21  C   UNL     1     -10.048   3.469  -2.546  0.00  0.00    +0.003 A 
ATOM     22  C   UNL     1     -11.231   2.770  -2.385  0.00  0.00    +0.039 A 
ATOM     23  C   UNL     1     -11.453   2.037  -1.235  0.00  0.00    +0.133 A 
ATOM     24  F   UNL     1     -12.606   1.350  -1.081  0.00  0.00    -0.205 F 
ENDBRANCH  13  18
ENDBRANCH   7  12
BRANCH   1  25
ATOM     25  C   UNL     1      -1.784  -1.547  -0.667  0.00  0.00    +0.069 C 
ATOM     26  C   UNL     1      -1.968  -3.048  -0.901  0.00  0.00    +0.028 C 
BRANCH  25  28
ATOM     27  C   UNL     1      -0.121   0.317  -0.627  0.00  0.00    +0.005 C 
ATOM     28  C   UNL     1      -0.296  -1.199  -0.736  0.00  0.00    +0.018 C 
ENDBRANCH  25  28
ENDBRANCH   1  25
TORSDOF 4
