REMARK  Name = CHEMBL403200
REMARK  7 active torsions:
REMARK  status: ('A' for Active; 'I' for Inactive)
REMARK    1  A    between atoms: C_1  and  C_2
REMARK    2  A    between atoms: C_5  and  C_20
REMARK    3  A    between atoms: C_7  and  N_8
REMARK    4  A    between atoms: C_9  and  C_11
REMARK    5  A    between atoms: N_16  and  C_17
REMARK    6  A    between atoms: C_17  and  C_18
REMARK    7  A    between atoms: C_17  and  C_19
REMARK                            x       y       z     vdW  Elec       q    Type
REMARK                         _______ _______ _______ _____ _____    ______ ____
ROOT
ATOM      1  C   UNL     1      -0.010   1.493   0.004  0.00  0.00    +0.045 C 
ATOM      2  C   UNL     1       0.015  -0.014   0.002  0.00  0.00    -0.029 A 
ATOM      3  C   UNL     1       0.027  -0.701  -1.198  0.00  0.00    +0.006 A 
ATOM      4  C   UNL     1       0.050  -2.081  -1.208  0.00  0.00    +0.013 A 
ATOM      5  C   UNL     1       0.061  -2.788  -0.003  0.00  0.00    +0.039 A 
ATOM      6  C   UNL     1       0.049  -2.094   1.207  0.00  0.00    +0.036 A 
ATOM      7  C   UNL     1       0.031  -0.708   1.206  0.00  0.00    +0.037 A 
ENDROOT
BRANCH   5   8
ATOM      8  C   UNL     1       0.085  -4.266  -0.011  0.00  0.00    +0.249 C 
ATOM      9  O   UNL     1       0.094  -4.879   1.038  0.00  0.00    -0.270 OA
ATOM     10  N   UNL     1       0.096  -4.933  -1.182  0.00  0.00    -0.264 N 
ATOM     11  C   UNL     1       0.118  -6.327  -1.189  0.00  0.00    +0.168 A 
ATOM     12  C   UNL     1       0.126  -7.165  -0.051  0.00  0.00    +0.088 A 
ATOM     13  C   UNL     1       0.148  -8.442  -0.473  0.00  0.00    +0.232 A 
ATOM     14  O   UNL     1       0.155  -8.439  -1.815  0.00  0.00    -0.361 OA
ATOM     15  N   UNL     1       0.131  -7.092  -2.251  0.00  0.00    -0.063 NA
ATOM     16  H   UNL     1       0.088  -4.444  -2.019  0.00  0.00    +0.157 HD
ENDBRANCH   5   8
BRANCH   7  17
ATOM     17  N   UNL     1       0.025  -0.008   2.417  0.00  0.00    -0.281 N 
ATOM     18  C   UNL     1      -0.632  -0.509   3.481  0.00  0.00    +0.256 C 
ATOM     19  O   UNL     1      -1.151  -1.609   3.414  0.00  0.00    -0.269 OA
ATOM     20  H   UNL     1       0.494   0.838   2.490  0.00  0.00    +0.155 HD
BRANCH  18  21
ATOM     21  C   UNL     1      -0.723   0.268   4.717  0.00  0.00    +0.095 A 
ATOM     22  C   UNL     1      -1.336  -0.050   5.920  0.00  0.00    +0.133 A 
ATOM     23  N   UNL     1      -1.257   0.850   6.868  0.00  0.00    -0.233 NA
ATOM     24  C   UNL     1      -0.626   1.996   6.681  0.00  0.00    +0.159 A 
ATOM     25  S   UNL     1      -0.068   1.885   5.097  0.00  0.00    -0.048 S 
ATOM     26  N   UNL     1      -0.458   3.033   7.574  0.00  0.00    -0.321 N 
ATOM     27  H   UNL     1       0.030   3.828   7.308  0.00  0.00    +0.148 HD
BRANCH  26  28
ATOM     28  C   UNL     1      -1.019   2.936   8.924  0.00  0.00    +0.066 C 
ATOM     29  C   UNL     1      -0.038   2.191   9.831  0.00  0.00    +0.027 C 
ATOM     30  C   UNL     1      -1.261   4.341   9.478  0.00  0.00    +0.027 C 
ENDBRANCH  26  28
ENDBRANCH  18  21
ENDBRANCH   7  17
TORSDOF 4
