REMARK  Name = CHEMBL245230
REMARK  11 active torsions:
REMARK  status: ('A' for Active; 'I' for Inactive)
REMARK    1  A    between atoms: C_1  and  C_2
REMARK    2  A    between atoms: C_2  and  C_3
REMARK    3  A    between atoms: C_2  and  C_4
REMARK    4  A    between atoms: C_2  and  C_5
REMARK    5  A    between atoms: C_7  and  N_18
REMARK    6  A    between atoms: C_8  and  O_16
REMARK    7  A    between atoms: C_9  and  N_11
REMARK    8  A    between atoms: N_11  and  S_12
REMARK    9  A    between atoms: S_12  and  C_15
REMARK   10  A    between atoms: O_16  and  C_17
REMARK   11  A    between atoms: N_21  and  C_22
REMARK                            x       y       z     vdW  Elec       q    Type
REMARK                         _______ _______ _______ _____ _____    ______ ____
ROOT
ATOM      1  C   UNL     1       0.729  -0.494  -1.227  0.00  0.00    -0.038 A 
ATOM      2  C   UNL     1       0.859  -1.850  -1.462  0.00  0.00    +0.031 A 
ATOM      3  C   UNL     1       1.492  -2.300  -2.613  0.00  0.00    +0.079 A 
ATOM      4  C   UNL     1       1.997  -1.384  -3.530  0.00  0.00    +0.166 A 
ATOM      5  C   UNL     1       1.864  -0.020  -3.289  0.00  0.00    +0.117 A 
ATOM      6  C   UNL     1       1.224   0.420  -2.138  0.00  0.00    +0.034 A 
ENDROOT
BRANCH   3   7
ATOM      7  N   UNL     1       1.623  -3.675  -2.849  0.00  0.00    -0.266 N 
ATOM      8  C   UNL     1       0.757  -4.541  -2.288  0.00  0.00    +0.308 C 
ATOM      9  O   UNL     1      -0.198  -4.125  -1.661  0.00  0.00    -0.252 OA
ATOM     10  N   UNL     1       0.948  -5.868  -2.423  0.00  0.00    -0.269 N 
ATOM     11  H   UNL     1       2.338  -4.003  -3.417  0.00  0.00    +0.156 HD
ATOM     12  H   UNL     1       1.752  -6.201  -2.852  0.00  0.00    +0.156 HD
BRANCH  10  13
ATOM     13  C   UNL     1      -0.010  -6.764  -1.944  0.00  0.00    +0.042 A 
ATOM     14  C   UNL     1      -1.324  -6.371  -1.811  0.00  0.00    +0.024 A 
ATOM     15  C   UNL     1      -2.287  -7.256  -1.335  0.00  0.00    +0.002 A 
ATOM     16  C   UNL     1      -1.959  -8.531  -0.987  0.00  0.00    +0.008 A 
ATOM     17  C   UNL     1      -0.630  -8.971  -1.108  0.00  0.00    -0.016 A 
ATOM     18  C   UNL     1       0.358  -8.082  -1.597  0.00  0.00    +0.003 A 
ATOM     19  C   UNL     1       1.684  -8.525  -1.722  0.00  0.00    +0.010 A 
ATOM     20  C   UNL     1       2.002  -9.803  -1.378  0.00  0.00    +0.001 A 
ATOM     21  C   UNL     1       1.030 -10.681  -0.903  0.00  0.00    +0.001 A 
ATOM     22  C   UNL     1      -0.263 -10.282  -0.757  0.00  0.00    +0.008 A 
ENDBRANCH  10  13
ENDBRANCH   3   7
BRANCH   1  24
ATOM     23  C   UNL     1       0.025   1.519   0.038  0.00  0.00    +0.015 C 
ATOM     24  C   UNL     1       0.041  -0.011   0.023  0.00  0.00    -0.013 C 
ATOM     25  C   UNL     1       0.795  -0.525   1.251  0.00  0.00    +0.015 C 
ATOM     26  C   UNL     1      -1.395  -0.536   0.050  0.00  0.00    +0.015 C 
ENDBRANCH   1  24
BRANCH   4  27
ATOM     27  O   UNL     1       2.619  -1.820  -4.659  0.00  0.00    -0.491 OA
ATOM     28  C   UNL     1       1.800  -2.029  -5.811  0.00  0.00    +0.277 C 
ENDBRANCH   4  27
BRANCH   5  29
ATOM     29  N   UNL     1       2.370   0.906  -4.208  0.00  0.00    -0.099 NA
BRANCH  29  30
ATOM     30  S   UNL     1       2.211   2.530  -3.920  0.00  0.00    +0.060 S 
ATOM     31  O   UNL     1       0.810   2.765  -3.936  0.00  0.00    -0.154 OA
ATOM     32  O   UNL     1       2.972   2.765  -2.744  0.00  0.00    -0.154 OA
ATOM     33  C   UNL     1       2.995   3.334  -5.344  0.00  0.00    +0.220 C 
ENDBRANCH  29  30
ENDBRANCH   5  29
TORSDOF 6
