REMARK  Name = CHEMBL84777
REMARK  8 active torsions:
REMARK  status: ('A' for Active; 'I' for Inactive)
REMARK    1  A    between atoms: C_1  and  C_2
REMARK    2  A    between atoms: C_6  and  N_8
REMARK    3  A    between atoms: C_9  and  N_17
REMARK    4  A    between atoms: C_11  and  C_13
REMARK    5  A    between atoms: C_13  and  C_14
REMARK    6  A    between atoms: C_13  and  C_15
REMARK    7  A    between atoms: C_13  and  C_16
REMARK    8  A    between atoms: N_20  and  C_21
REMARK                            x       y       z     vdW  Elec       q    Type
REMARK                         _______ _______ _______ _____ _____    ______ ____
ROOT
ATOM      1  N   UNL     1       0.041  -2.793   2.398  0.00  0.00    -0.218 N 
ATOM      2  C   UNL     1      -0.563  -3.989   2.633  0.00  0.00    +0.130 A 
ATOM      3  C   UNL     1      -0.296  -4.334   3.922  0.00  0.00    +0.069 A 
ATOM      4  C   UNL     1       0.488  -3.323   4.484  0.00  0.00    +0.071 A 
ATOM      5  N   UNL     1       0.695  -2.405   3.574  0.00  0.00    -0.169 NA
ENDROOT
BRANCH   1  11
ATOM      6  C   UNL     1      -0.055   1.517   0.030  0.00  0.00    +0.044 C 
ATOM      7  C   UNL     1      -0.029   0.011   0.016  0.00  0.00    -0.048 A 
ATOM      8  C   UNL     1      -0.028  -0.669  -1.188  0.00  0.00    +0.003 A 
ATOM      9  C   UNL     1      -0.004  -2.051  -1.206  0.00  0.00    +0.002 A 
ATOM     10  C   UNL     1       0.019  -2.758  -0.019  0.00  0.00    +0.028 A 
ATOM     11  C   UNL     1       0.018  -2.079   1.192  0.00  0.00    +0.068 A 
ATOM     12  C   UNL     1      -0.000  -0.690   1.206  0.00  0.00    +0.031 A 
ENDBRANCH   1  11
BRANCH   2  13
ATOM     13  N   UNL     1      -1.316  -4.727   1.720  0.00  0.00    -0.254 N 
ATOM     14  C   UNL     1      -1.860  -5.903   2.090  0.00  0.00    +0.309 C 
ATOM     15  O   UNL     1      -1.693  -6.322   3.219  0.00  0.00    -0.252 OA
ATOM     16  N   UNL     1      -2.588  -6.616   1.208  0.00  0.00    -0.269 N 
ATOM     17  H   UNL     1      -1.449  -4.393   0.819  0.00  0.00    +0.158 HD
ATOM     18  H   UNL     1      -2.778  -6.252   0.329  0.00  0.00    +0.156 HD
BRANCH  16  19
ATOM     19  C   UNL     1      -3.071  -7.881   1.560  0.00  0.00    +0.035 A 
ATOM     20  C   UNL     1      -3.477  -8.133   2.864  0.00  0.00    +0.023 A 
ATOM     21  C   UNL     1      -3.953  -9.383   3.208  0.00  0.00    +0.002 A 
ATOM     22  C   UNL     1      -4.027 -10.383   2.256  0.00  0.00    +0.000 A 
ATOM     23  C   UNL     1      -3.623 -10.135   0.957  0.00  0.00    +0.002 A 
ATOM     24  C   UNL     1      -3.151  -8.886   0.605  0.00  0.00    +0.023 A 
ENDBRANCH  16  19
ENDBRANCH   2  13
BRANCH   4  25
ATOM     25  C   UNL     1       1.012  -3.296   5.897  0.00  0.00    +0.006 C 
ATOM     26  C   UNL     1       2.177  -4.279   6.027  0.00  0.00    +0.017 C 
ATOM     27  C   UNL     1       1.495  -1.885   6.235  0.00  0.00    +0.017 C 
ATOM     28  C   UNL     1      -0.105  -3.699   6.862  0.00  0.00    +0.017 C 
ENDBRANCH   4  25
TORSDOF 4
