REMARK  Name = CHEMBL97227
REMARK  4 active torsions:
REMARK  status: ('A' for Active; 'I' for Inactive)
REMARK    1  A    between atoms: C_5  and  C_7
REMARK    2  A    between atoms: C_9  and  C_26
REMARK    3  A    between atoms: N_17  and  C_18
REMARK    4  A    between atoms: C_26  and  N_27
REMARK                            x       y       z     vdW  Elec       q    Type
REMARK                         _______ _______ _______ _____ _____    ______ ____
ROOT
ATOM      1  C   UNL     1       1.246  -2.166  -0.022  0.00  0.00    -0.010 A 
ATOM      2  C   UNL     1       0.743  -2.872  -1.116  0.00  0.00    +0.014 A 
ATOM      3  C   UNL     1       0.771  -4.252  -1.117  0.00  0.00    -0.031 A 
ATOM      4  C   UNL     1       1.295  -4.943  -0.040  0.00  0.00    +0.029 A 
ATOM      5  C   UNL     1       1.798  -4.250   1.054  0.00  0.00    +0.048 A 
ATOM      6  C   UNL     1       1.775  -2.861   1.054  0.00  0.00    -0.001 A 
ATOM      7  C   UNL     1       2.336  -2.140   2.257  0.00  0.00    +0.143 C 
ATOM      8  N   UNL     1       2.873  -2.975   3.345  0.00  0.00    -0.295 N 
ATOM      9  C   UNL     1       2.841  -4.314   3.219  0.00  0.00    +0.311 C 
ATOM     10  O   UNL     1       3.288  -4.992   4.124  0.00  0.00    -0.252 OA
ATOM     11  N   UNL     1       2.329  -4.936   2.149  0.00  0.00    -0.221 N 
ATOM     12  H   UNL     1       3.246  -2.565   4.141  0.00  0.00    +0.151 HD
ENDROOT
BRANCH  11  13
ATOM     13  C   UNL     1       2.342  -6.337   2.119  0.00  0.00    +0.079 A 
ATOM     14  C   UNL     1       1.260  -7.054   2.612  0.00  0.00    +0.064 A 
ATOM     15  C   UNL     1       1.277  -8.436   2.579  0.00  0.00    +0.022 A 
ATOM     16  C   UNL     1       2.369  -9.104   2.057  0.00  0.00    +0.003 A 
ATOM     17  C   UNL     1       3.449  -8.393   1.566  0.00  0.00    +0.022 A 
ATOM     18  C   UNL     1       3.436  -7.011   1.590  0.00  0.00    +0.064 A 
ATOM     19 CL   UNL     1       4.788  -6.119   0.966  0.00  0.00    -0.082 Cl
ATOM     20 CL   UNL     1      -0.112  -6.217   3.268  0.00  0.00    -0.082 Cl
ENDBRANCH  11  13
BRANCH   1  25
ATOM     21  C   UNL     1      -0.017   1.376   0.010  0.00  0.00    +0.001 A 
ATOM     22  C   UNL     1       1.170   2.087   0.002  0.00  0.00    +0.001 A 
ATOM     23  C   UNL     1       2.382   1.420  -0.013  0.00  0.00    +0.020 A 
ATOM     24  C   UNL     1       2.413   0.039  -0.021  0.00  0.00    +0.049 A 
ATOM     25  C   UNL     1       1.219  -0.682  -0.013  0.00  0.00    +0.001 A 
ATOM     26  C   UNL     1       0.002  -0.004   0.002  0.00  0.00    +0.010 A 
ATOM     27 CL   UNL     1       3.934  -0.797  -0.042  0.00  0.00    -0.083 Cl
ENDBRANCH   1  25
BRANCH   3  28
ATOM     28  C   UNL     1       0.228  -5.011  -2.300  0.00  0.00    +0.119 C 
BRANCH  28  29
ATOM     29  N   UNL     1       1.303  -5.231  -3.276  0.00  0.00    -0.302 NA
ATOM     30  C   UNL     1       2.331  -6.130  -2.733  0.00  0.00    +0.065 C 
ATOM     31  C   UNL     1       3.459  -6.286  -3.755  0.00  0.00    -0.067 C 
ATOM     32  N   UNL     1       2.916  -6.835  -5.005  0.00  0.00    +0.381 N 
ATOM     33  C   UNL     1       1.908  -5.914  -5.548  0.00  0.00    -0.067 C 
ATOM     34  C   UNL     1       0.767  -5.755  -4.540  0.00  0.00    +0.065 C 
ATOM     35  H   UNL     1       3.662  -6.949  -5.674  0.00  0.00    -0.086 HD
ATOM     36  H   UNL     1       2.489  -7.730  -4.821  0.00  0.00    -0.086 HD
ENDBRANCH  28  29
ENDBRANCH   3  28
TORSDOF 4
