REMARK  Name = CHEMBL200820
REMARK  9 active torsions:
REMARK  status: ('A' for Active; 'I' for Inactive)
REMARK    1  A    between atoms: C_1  and  C_2
REMARK    2  A    between atoms: C_2  and  C_3
REMARK    3  A    between atoms: C_2  and  C_4
REMARK    4  A    between atoms: C_2  and  N_33
REMARK    5  A    between atoms: C_5  and  C_6
REMARK    6  A    between atoms: C_9  and  O_31
REMARK    7  A    between atoms: C_10  and  C_12
REMARK    8  A    between atoms: N_22  and  C_23
REMARK    9  A    between atoms: O_31  and  C_32
REMARK                            x       y       z     vdW  Elec       q    Type
REMARK                         _______ _______ _______ _____ _____    ______ ____
ROOT
ATOM      1  C   UNL     1      -5.804  -4.698   0.134  0.00  0.00    +0.079 A 
ATOM      2  C   UNL     1      -6.421  -5.428  -0.884  0.00  0.00    +0.046 A 
ATOM      3  C   UNL     1      -7.125  -5.096  -2.058  0.00  0.00    +0.017 A 
ATOM      4  C   UNL     1      -7.598  -6.109  -2.833  0.00  0.00    +0.044 A 
ATOM      5  C   UNL     1      -7.388  -7.447  -2.467  0.00  0.00    +0.125 A 
ATOM      6  N   UNL     1      -6.735  -7.783  -1.375  0.00  0.00    -0.211 NA
ATOM      7  C   UNL     1      -6.232  -6.847  -0.552  0.00  0.00    +0.183 A 
ATOM      8  N   UNL     1      -5.552  -6.888   0.580  0.00  0.00    -0.153 NA
ATOM      9  N   UNL     1      -5.280  -5.583   1.006  0.00  0.00    -0.274 N 
ATOM     10  H   UNL     1      -4.790  -5.351   1.810  0.00  0.00    +0.189 HD
ATOM     11  N   UNL     1      -7.887  -8.451  -3.283  0.00  0.00    -0.297 N 
ATOM     12  H   UNL     1      -8.288  -8.227  -4.138  0.00  0.00    +0.154 HD
ENDROOT
BRANCH  11  13
ATOM     13  C   UNL     1      -7.812  -9.788  -2.874  0.00  0.00    +0.068 A 
ATOM     14  C   UNL     1      -7.888 -10.108  -1.526  0.00  0.00    +0.029 A 
ATOM     15  C   UNL     1      -7.814 -11.428  -1.124  0.00  0.00    +0.040 A 
ATOM     16  C   UNL     1      -7.664 -12.432  -2.065  0.00  0.00    +0.126 A 
ATOM     17  C   UNL     1      -7.588 -12.117  -3.411  0.00  0.00    +0.078 A 
ATOM     18  C   UNL     1      -7.667 -10.798  -3.819  0.00  0.00    +0.147 A 
ATOM     19  F   UNL     1      -7.599 -10.491  -5.133  0.00  0.00    -0.203 F 
ATOM     20  F   UNL     1      -7.592 -13.722  -1.669  0.00  0.00    -0.205 F 
ENDBRANCH  11  13
BRANCH   1  25
ATOM     21  C   UNL     1      -4.443  -1.192   0.243  0.00  0.00    +0.026 A 
ATOM     22  C   UNL     1      -5.617  -0.454   0.424  0.00  0.00    +0.020 A 
ATOM     23  C   UNL     1      -6.834  -1.096   0.508  0.00  0.00    +0.047 A 
ATOM     24  C   UNL     1      -6.904  -2.478   0.415  0.00  0.00    +0.129 A 
ATOM     25  C   UNL     1      -5.733  -3.228   0.233  0.00  0.00    +0.043 A 
ATOM     26  C   UNL     1      -4.502  -2.579   0.143  0.00  0.00    +0.030 A 
BRANCH  21  28
ATOM     27  C   UNL     1      -2.147   0.030   0.085  0.00  0.00    -0.110 C 
ATOM     28  C   UNL     1      -3.182  -0.520   0.156  0.00  0.00    -0.068 C 
BRANCH  27  30
ATOM     29  C   UNL     1      -1.064   2.229   0.136  0.00  0.00    +0.002 C 
ATOM     30  C   UNL     1      -0.850   0.720  -0.004  0.00  0.00    -0.012 C 
ATOM     31  C   UNL     1       0.068   0.229   1.117  0.00  0.00    +0.002 C 
BRANCH  30  32
ATOM     32  N   UNL     1      -0.231   0.432  -1.305  0.00  0.00    +0.389 N 
ATOM     33  H   UNL     1       0.658   0.906  -1.367  0.00  0.00    -0.088 HD
ATOM     34  H   UNL     1      -0.090  -0.562  -1.398  0.00  0.00    -0.088 HD
ATOM     35  H   UNL     1      -0.836   0.756  -2.045  0.00  0.00    -0.088 HD
ENDBRANCH  30  32
ENDBRANCH  27  30
ENDBRANCH  21  28
BRANCH  24  36
ATOM     36  O   UNL     1      -8.105  -3.104   0.500  0.00  0.00    -0.494 OA
ATOM     37  C   UNL     1      -9.256  -2.278   0.685  0.00  0.00    +0.277 C 
ENDBRANCH  24  36
ENDBRANCH   1  25
TORSDOF 6
