REMARK  Name = CHEMBL522689
REMARK  7 active torsions:
REMARK  status: ('A' for Active; 'I' for Inactive)
REMARK    1  A    between atoms: C_1  and  C_2
REMARK    2  A    between atoms: C_2  and  C_3
REMARK    3  A    between atoms: C_3  and  C_5
REMARK    4  A    between atoms: C_3  and  N_6
REMARK    5  A    between atoms: C_11  and  C_17
REMARK    6  A    between atoms: C_18  and  C_28
REMARK    7  A    between atoms: N_26  and  C_27
REMARK                            x       y       z     vdW  Elec       q    Type
REMARK                         _______ _______ _______ _____ _____    ______ ____
ROOT
ATOM      1  N   UNL     1       2.125  -0.091  -1.209  0.00  0.00    -0.325 N 
ATOM      2  C   UNL     1       2.844   0.056  -2.385  0.00  0.00    +0.149 A 
ATOM      3  C   UNL     1       4.203   0.441  -2.353  0.00  0.00    +0.025 A 
ATOM      4  C   UNL     1       4.887   0.692  -1.158  0.00  0.00    +0.012 A 
ATOM      5  C   UNL     1       6.197   1.060  -1.194  0.00  0.00    +0.009 A 
ATOM      6  C   UNL     1       6.875   1.194  -2.416  0.00  0.00    -0.013 A 
ATOM      7  C   UNL     1       6.224   0.953  -3.615  0.00  0.00    +0.018 A 
ATOM      8  C   UNL     1       4.878   0.573  -3.595  0.00  0.00    +0.006 A 
ATOM      9  C   UNL     1       4.147   0.309  -4.770  0.00  0.00    +0.143 A 
ATOM     10  N   UNL     1       2.886  -0.043  -4.672  0.00  0.00    -0.155 NA
ATOM     11  N   UNL     1       2.272  -0.168  -3.555  0.00  0.00    -0.134 NA
ATOM     12  H   UNL     1       2.553   0.075  -0.355  0.00  0.00    +0.148 HD
ENDROOT
BRANCH   6  13
ATOM     13  C   UNL     1       8.302   1.597  -2.424  0.00  0.00    +0.031 A 
ATOM     14  C   UNL     1       8.675   2.855  -1.965  0.00  0.00    -0.039 A 
ATOM     15  C   UNL     1      10.005   3.237  -1.970  0.00  0.00    +0.005 A 
ATOM     16  C   UNL     1      10.978   2.376  -2.429  0.00  0.00    +0.015 A 
ATOM     17  C   UNL     1      10.624   1.109  -2.895  0.00  0.00    +0.063 A 
ATOM     18  C   UNL     1       9.281   0.710  -2.889  0.00  0.00    +0.177 A 
ATOM     19  O   UNL     1       9.233  -0.545  -3.378  0.00  0.00    -0.352 OA
ATOM     20  N   UNL     1      10.540  -0.975  -3.701  0.00  0.00    -0.062 NA
ATOM     21  C   UNL     1      11.391  -0.023  -3.438  0.00  0.00    +0.169 A 
ATOM     22  N   UNL     1      12.766  -0.073  -3.622  0.00  0.00    -0.329 N 
ATOM     23  C   UNL     1      13.387  -1.278  -4.178  0.00  0.00    +0.127 C 
ATOM     24  C   UNL     1       7.623   3.809  -1.459  0.00  0.00    +0.044 C 
ATOM     25  H   UNL     1      13.316   0.689  -3.383  0.00  0.00    +0.147 HD
ENDBRANCH   6  13
BRANCH   1  26
ATOM     26  C   UNL     1       0.718  -0.497  -1.257  0.00  0.00    +0.068 C 
ATOM     27  C   UNL     1       0.630  -2.023  -1.329  0.00  0.00    +0.028 C 
BRANCH  26  29
ATOM     28  C   UNL     1      -0.019   1.526   0.010  0.00  0.00    +0.005 C 
ATOM     29  C   UNL     1       0.002  -0.004   0.002  0.00  0.00    +0.018 C 
ENDBRANCH  26  29
ENDBRANCH   1  26
TORSDOF 3
