REMARK  Name = CHEMBL452471
REMARK  6 active torsions:
REMARK  status: ('A' for Active; 'I' for Inactive)
REMARK    1  A    between atoms: C_1  and  S_2
REMARK    2  A    between atoms: S_2  and  C_3
REMARK    3  A    between atoms: C_6  and  C_16
REMARK    4  A    between atoms: C_7  and  C_9
REMARK    5  A    between atoms: N_22  and  C_23
REMARK    6  A    between atoms: C_23  and  C_24
REMARK                            x       y       z     vdW  Elec       q    Type
REMARK                         _______ _______ _______ _____ _____    ______ ____
ROOT
ATOM      1  C   UNL     1       0.946  -0.413  -1.440  0.00  0.00    +0.167 A 
ATOM      2  N   UNL     1       1.217  -1.671  -1.881  0.00  0.00    -0.332 N 
ATOM      3  H   UNL     1       1.064  -2.497  -1.396  0.00  0.00    +0.168 HD
ATOM      4  C   UNL     1       1.751  -1.552  -3.152  0.00  0.00    +0.075 A 
ATOM      5  C   UNL     1       1.782  -0.199  -3.434  0.00  0.00    +0.098 A 
ATOM      6  N   UNL     1       1.279   0.453  -2.369  0.00  0.00    -0.221 NA
ENDROOT
BRANCH   4   7
ATOM      7  C   UNL     1       2.198  -2.648  -4.030  0.00  0.00    +0.005 A 
ATOM      8  C   UNL     1       3.442  -2.591  -4.679  0.00  0.00    +0.030 A 
ATOM      9  C   UNL     1       3.823  -3.635  -5.490  0.00  0.00    +0.113 A 
ATOM     10  N   UNL     1       3.038  -4.683  -5.665  0.00  0.00    -0.240 NA
ATOM     11  C   UNL     1       1.856  -4.782  -5.073  0.00  0.00    +0.120 A 
ATOM     12  C   UNL     1       1.397  -3.777  -4.235  0.00  0.00    +0.053 A 
ATOM     13  N   UNL     1       1.070  -5.908  -5.292  0.00  0.00    -0.324 N 
ATOM     14  H   UNL     1       1.388  -6.616  -5.875  0.00  0.00    +0.148 HD
BRANCH  13  15
ATOM     15  C   UNL     1      -0.238  -6.026  -4.642  0.00  0.00    +0.145 C 
BRANCH  15  16
ATOM     16  C   UNL     1      -0.881  -7.329  -5.041  0.00  0.00    +0.007 A 
ATOM     17  C   UNL     1      -0.799  -8.541  -4.440  0.00  0.00    +0.013 A 
ATOM     18  C   UNL     1      -1.483  -9.609  -4.989  0.00  0.00    +0.008 A 
ATOM     19  C   UNL     1      -2.216  -9.413  -6.112  0.00  0.00    +0.045 A 
ATOM     20  S   UNL     1      -1.957  -7.674  -6.423  0.00  0.00    -0.100 S 
ENDBRANCH  15  16
ENDBRANCH  13  15
ENDBRANCH   4   7
BRANCH   5  21
ATOM     21  C   UNL     1       2.275   0.422  -4.685  0.00  0.00    +0.003 A 
ATOM     22  C   UNL     1       1.939  -0.132  -5.921  0.00  0.00    +0.013 A 
ATOM     23  C   UNL     1       2.401   0.450  -7.083  0.00  0.00    +0.039 A 
ATOM     24  C   UNL     1       3.197   1.582  -7.025  0.00  0.00    +0.123 A 
ATOM     25  C   UNL     1       3.533   2.137  -5.800  0.00  0.00    +0.039 A 
ATOM     26  C   UNL     1       3.071   1.566  -4.632  0.00  0.00    +0.013 A 
ATOM     27  F   UNL     1       3.647   2.148  -8.166  0.00  0.00    -0.205 F 
ENDBRANCH   5  21
BRANCH   1  29
ATOM     28  C   UNL     1       0.132   1.801   0.103  0.00  0.00    +0.093 C 
ATOM     29  S   UNL     1       0.250  -0.009   0.128  0.00  0.00    -0.091 S 
ENDBRANCH   1  29
TORSDOF 5
