REMARK  Name = CHEMBL120300
REMARK  4 active torsions:
REMARK  status: ('A' for Active; 'I' for Inactive)
REMARK    1  A    between atoms: C_4  and  N_8
REMARK    2  A    between atoms: C_12  and  N_19
REMARK    3  A    between atoms: N_19  and  S_20
REMARK    4  A    between atoms: S_20  and  C_23
REMARK                            x       y       z     vdW  Elec       q    Type
REMARK                         _______ _______ _______ _____ _____    ______ ____
ROOT
ATOM      1  N   UNL     1       3.625  -0.652  -0.036  0.00  0.00    -0.221 N 
ATOM      2  C   UNL     1       4.199  -0.966  -1.272  0.00  0.00    +0.048 A 
ATOM      3  C   UNL     1       3.568  -0.608  -2.457  0.00  0.00    +0.026 A 
ATOM      4  C   UNL     1       4.148  -0.924  -3.669  0.00  0.00    +0.028 A 
ATOM      5  C   UNL     1       5.361  -1.600  -3.710  0.00  0.00    +0.075 A 
ATOM      6  C   UNL     1       5.994  -1.959  -2.525  0.00  0.00    +0.033 A 
ATOM      7  C   UNL     1       5.413  -1.642  -1.319  0.00  0.00    -0.007 A 
ATOM      8  C   UNL     1       6.070  -2.015  -0.010  0.00  0.00    +0.143 C 
ATOM      9  N   UNL     1       5.365  -1.629   1.224  0.00  0.00    -0.295 N 
ATOM     10  C   UNL     1       4.195  -0.970   1.133  0.00  0.00    +0.311 C 
ATOM     11  O   UNL     1       3.627  -0.653   2.160  0.00  0.00    -0.252 OA
ATOM     12  H   UNL     1       5.741  -1.843   2.092  0.00  0.00    +0.151 HD
ENDROOT
BRANCH   1  16
ATOM     13  C   UNL     1      -0.017   1.379   0.010  0.00  0.00    +0.003 A 
ATOM     14  C   UNL     1       1.169   2.089   0.002  0.00  0.00    +0.022 A 
ATOM     15  C   UNL     1       2.378   1.420  -0.013  0.00  0.00    +0.064 A 
ATOM     16  C   UNL     1       2.401   0.030  -0.021  0.00  0.00    +0.079 A 
ATOM     17  C   UNL     1       1.208  -0.680  -0.013  0.00  0.00    +0.064 A 
ATOM     18  C   UNL     1       0.002  -0.004   0.002  0.00  0.00    +0.022 A 
ATOM     19 CL   UNL     1       1.230  -2.416  -0.023  0.00  0.00    -0.082 Cl
ATOM     20 CL   UNL     1       3.867   2.313  -0.023  0.00  0.00    -0.082 Cl
ENDBRANCH   1  16
BRANCH   5  21
ATOM     21  N   UNL     1       5.945  -1.919  -4.941  0.00  0.00    -0.098 NA
BRANCH  21  22
ATOM     22  S   UNL     1       5.190  -1.491  -6.351  0.00  0.00    +0.092 S 
ATOM     23  O   UNL     1       3.988  -2.247  -6.413  0.00  0.00    -0.148 OA
ATOM     24  O   UNL     1       5.200  -0.071  -6.402  0.00  0.00    -0.148 OA
BRANCH  22  25
ATOM     25  C   UNL     1       6.206  -2.051  -7.677  0.00  0.00    +0.112 A 
ATOM     26  C   UNL     1       7.191  -1.226  -8.188  0.00  0.00    +0.032 A 
ATOM     27  C   UNL     1       7.989  -1.664  -9.227  0.00  0.00    +0.042 A 
ATOM     28  C   UNL     1       7.803  -2.929  -9.758  0.00  0.00    +0.142 A 
ATOM     29  C   UNL     1       6.816  -3.755  -9.246  0.00  0.00    +0.078 A 
ATOM     30  C   UNL     1       6.021  -3.316  -8.201  0.00  0.00    +0.051 A 
ATOM     31 CL   UNL     1       6.580  -5.341  -9.909  0.00  0.00    -0.081 Cl
ATOM     32  F   UNL     1       8.583  -3.357 -10.775  0.00  0.00    -0.204 F 
ENDBRANCH  22  25
ENDBRANCH  21  22
ENDBRANCH   5  21
TORSDOF 4
