REMARK  Name = CHEMBL126023
REMARK  3 active torsions:
REMARK  status: ('A' for Active; 'I' for Inactive)
REMARK    1  A    between atoms: C_6  and  C_7
REMARK    2  A    between atoms: C_8  and  C_15
REMARK    3  A    between atoms: N_9  and  C_12
REMARK                            x       y       z     vdW  Elec       q    Type
REMARK                         _______ _______ _______ _____ _____    ______ ____
ROOT
ATOM      1  C   UNL     1      -1.269  -0.765   0.011  0.00  0.00    +0.097 A 
ATOM      2  C   UNL     1      -1.508  -1.968  -0.628  0.00  0.00    +0.077 A 
ATOM      3  N   UNL     1      -2.815  -2.299  -0.346  0.00  0.00    -0.327 N 
ATOM      4  C   UNL     1      -3.319  -1.318   0.432  0.00  0.00    +0.200 A 
ATOM      5  N   UNL     1      -2.403  -0.415   0.646  0.00  0.00    -0.235 NA
ENDROOT
BRANCH   1  11
ATOM      6  C   UNL     1      -0.017   1.390   0.010  0.00  0.00    +0.013 A 
ATOM      7  C   UNL     1       1.170   2.094   0.002  0.00  0.00    +0.039 A 
ATOM      8  C   UNL     1       2.379   1.418  -0.013  0.00  0.00    +0.123 A 
ATOM      9  C   UNL     1       2.403   0.032  -0.021  0.00  0.00    +0.039 A 
ATOM     10  C   UNL     1       1.222  -0.680  -0.013  0.00  0.00    +0.013 A 
ATOM     11  C   UNL     1       0.002  -0.004   0.002  0.00  0.00    +0.003 A 
ATOM     12  F   UNL     1       3.538   2.111  -0.022  0.00  0.00    -0.205 F 
ENDBRANCH   1  11
BRANCH   2  13
ATOM     13  C   UNL     1      -0.556  -2.742  -1.448  0.00  0.00    +0.003 A 
ATOM     14  C   UNL     1      -0.435  -4.129  -1.295  0.00  0.00    +0.030 A 
ATOM     15  C   UNL     1       0.468  -4.812  -2.081  0.00  0.00    +0.111 A 
ATOM     16  N   UNL     1       1.212  -4.176  -2.967  0.00  0.00    -0.263 NA
ATOM     17  C   UNL     1       1.131  -2.870  -3.143  0.00  0.00    +0.111 A 
ATOM     18  C   UNL     1       0.250  -2.110  -2.404  0.00  0.00    +0.030 A 
ENDBRANCH   2  13
BRANCH   3  19
ATOM     19  C   UNL     1      -3.526  -3.494  -0.807  0.00  0.00    +0.089 C 
ATOM     20  C   UNL     1      -5.032  -3.565  -0.543  0.00  0.00    +0.027 C 
ATOM     21  C   UNL     1      -4.072  -4.445   0.260  0.00  0.00    +0.027 C 
ENDBRANCH   3  19
TORSDOF 3
