REMARK  Name = CHEMBL142697
REMARK  4 active torsions:
REMARK  status: ('A' for Active; 'I' for Inactive)
REMARK    1  A    between atoms: C_1  and  N_2
REMARK    2  A    between atoms: C_8  and  N_10
REMARK    3  A    between atoms: N_19  and  C_20
REMARK    4  A    between atoms: C_28  and  C_30
REMARK                            x       y       z     vdW  Elec       q    Type
REMARK                         _______ _______ _______ _____ _____    ______ ____
ROOT
ATOM      1  N   UNL     1      -1.044  -2.665   2.250  0.00  0.00    -0.326 N 
ATOM      2  C   UNL     1      -2.081  -3.530   2.568  0.00  0.00    +0.122 A 
ATOM      3  C   UNL     1      -2.413  -4.547   1.683  0.00  0.00    +0.070 A 
ATOM      4  C   UNL     1      -3.452  -5.410   2.007  0.00  0.00    +0.063 A 
ATOM      5  C   UNL     1      -4.130  -5.215   3.230  0.00  0.00    +0.025 A 
ATOM      6  C   UNL     1      -5.192  -6.082   3.580  0.00  0.00    +0.017 A 
ATOM      7  C   UNL     1      -5.534  -7.083   2.729  0.00  0.00    +0.071 A 
ATOM      8  C   UNL     1      -4.840  -7.256   1.514  0.00  0.00    +0.256 A 
ATOM      9  O   UNL     1      -5.162  -8.160   0.763  0.00  0.00    -0.267 OA
ATOM     10  N   UNL     1      -3.828  -6.436   1.171  0.00  0.00    -0.274 N 
ATOM     11  C   UNL     1      -3.732  -4.159   4.072  0.00  0.00    +0.084 A 
ATOM     12  N   UNL     1      -2.729  -3.370   3.714  0.00  0.00    -0.231 NA
ATOM     13  H   UNL     1      -0.738  -2.014   2.900  0.00  0.00    +0.148 HD
ENDROOT
BRANCH   1  21
ATOM     14  C   UNL     1       2.512   0.401   1.360  0.00  0.00    -0.095 C 
ATOM     15  N   UNL     1       1.660  -0.698   0.888  0.00  0.00    +0.382 N 
ATOM     16  C   UNL     1       0.224  -0.321   0.974  0.00  0.00    -0.067 C 
ATOM     17  C   UNL     1      -0.115  -0.457   2.477  0.00  0.00    -0.017 C 
ATOM     18  C   UNL     1       0.904  -1.480   3.021  0.00  0.00    -0.017 C 
ATOM     19  C   UNL     1       1.765  -1.870   1.797  0.00  0.00    -0.067 C 
ATOM     20  C   UNL     1       1.078  -3.054   1.097  0.00  0.00    +0.007 C 
ATOM     21  C   UNL     1      -0.410  -2.735   0.930  0.00  0.00    +0.069 C 
ATOM     22  C   UNL     1      -0.575  -1.392   0.214  0.00  0.00    +0.007 C 
ATOM     23  H   UNL     1       1.905  -0.958  -0.056  0.00  0.00    -0.081 HD
ENDBRANCH   1  21
BRANCH  10  24
ATOM     24  C   UNL     1      -3.155  -6.630  -0.043  0.00  0.00    +0.087 A 
ATOM     25  C   UNL     1      -3.596  -5.989  -1.194  0.00  0.00    +0.066 A 
ATOM     26  C   UNL     1      -2.929  -6.182  -2.389  0.00  0.00    +0.022 A 
ATOM     27  C   UNL     1      -1.825  -7.012  -2.440  0.00  0.00    +0.003 A 
ATOM     28  C   UNL     1      -1.383  -7.652  -1.297  0.00  0.00    +0.022 A 
ATOM     29  C   UNL     1      -2.041  -7.459  -0.097  0.00  0.00    +0.066 A 
ATOM     30 CL   UNL     1      -1.480  -8.256   1.340  0.00  0.00    -0.081 Cl
ATOM     31 CL   UNL     1      -4.983  -4.947  -1.131  0.00  0.00    -0.081 Cl
ENDBRANCH  10  24
BRANCH  11  32
ATOM     32  C   UNL     1      -4.428  -3.935   5.359  0.00  0.00    +0.019 A 
ATOM     33  C   UNL     1      -4.596  -4.989   6.258  0.00  0.00    +0.011 A 
ATOM     34  C   UNL     1      -5.245  -4.774   7.456  0.00  0.00    +0.001 A 
ATOM     35  C   UNL     1      -5.730  -3.516   7.768  0.00  0.00    +0.001 A 
ATOM     36  C   UNL     1      -5.568  -2.467   6.882  0.00  0.00    +0.020 A 
ATOM     37  C   UNL     1      -4.915  -2.667   5.682  0.00  0.00    +0.050 A 
ATOM     38 CL   UNL     1      -4.705  -1.347   4.574  0.00  0.00    -0.083 Cl
ENDBRANCH  11  32
TORSDOF 3
