REMARK  Name = CHEMBL62459
REMARK  5 active torsions:
REMARK  status: ('A' for Active; 'I' for Inactive)
REMARK    1  A    between atoms: C_1  and  C_2
REMARK    2  A    between atoms: C_2  and  C_3
REMARK    3  A    between atoms: C_2  and  C_4
REMARK    4  A    between atoms: C_2  and  C_5
REMARK    5  A    between atoms: N_14  and  C_15
REMARK                            x       y       z     vdW  Elec       q    Type
REMARK                         _______ _______ _______ _____ _____    ______ ____
ROOT
ATOM      1  C   UNL     1       0.717  -0.512  -1.222  0.00  0.00    +0.043 A 
ATOM      2  C   UNL     1       1.994  -0.236  -1.573  0.00  0.00    +0.068 A 
ATOM      3  C   UNL     1       2.255  -0.880  -2.792  0.00  0.00    +0.148 A 
ATOM      4  N   UNL     1       1.167  -1.518  -3.156  0.00  0.00    -0.158 NA
ATOM      5  H   UNL     1      -0.714  -1.662  -2.187  0.00  0.00    +0.189 HD
ATOM      6  N   UNL     1       0.188  -1.304  -2.178  0.00  0.00    -0.279 N 
ATOM      7  N   UNL     1       3.465  -0.847  -3.499  0.00  0.00    -0.253 N 
ATOM      8  C   UNL     1       4.511  -0.149  -3.012  0.00  0.00    +0.309 C 
ATOM      9  O   UNL     1       4.404   0.451  -1.960  0.00  0.00    -0.252 OA
ATOM     10  N   UNL     1       5.674  -0.117  -3.691  0.00  0.00    -0.268 N 
ATOM     11  H   UNL     1       3.550  -1.326  -4.338  0.00  0.00    +0.158 HD
ATOM     12  H   UNL     1       5.781  -0.648  -4.495  0.00  0.00    +0.156 HD
ENDROOT
BRANCH  10  13
ATOM     13  C   UNL     1       6.729   0.682  -3.235  0.00  0.00    +0.055 A 
ATOM     14  C   UNL     1       6.931   0.856  -1.872  0.00  0.00    +0.025 A 
ATOM     15  C   UNL     1       7.973   1.645  -1.424  0.00  0.00    +0.003 A 
ATOM     16  C   UNL     1       8.815   2.262  -2.331  0.00  0.00    +0.021 A 
ATOM     17  C   UNL     1       8.618   2.091  -3.689  0.00  0.00    +0.061 A 
ATOM     18  C   UNL     1       7.579   1.298  -4.144  0.00  0.00    +0.080 A 
ATOM     19 CL   UNL     1       7.335   1.078  -5.849  0.00  0.00    -0.080 Cl
ATOM     20 CL   UNL     1       9.677   2.868  -4.824  0.00  0.00    -0.082 Cl
ENDBRANCH  10  13
BRANCH   1  22
ATOM     21  C   UNL     1      -0.018   1.504   0.020  0.00  0.00    +0.017 C 
ATOM     22  C   UNL     1       0.012  -0.025   0.018  0.00  0.00    +0.004 C 
ATOM     23  C   UNL     1       0.758  -0.523   1.257  0.00  0.00    +0.017 C 
ATOM     24  C   UNL     1      -1.420  -0.564   0.035  0.00  0.00    +0.017 C 
ENDBRANCH   1  22
TORSDOF 2
