REMARK  Name = CHEMBL262866
REMARK  9 active torsions:
REMARK  status: ('A' for Active; 'I' for Inactive)
REMARK    1  A    between atoms: C_1  and  C_2
REMARK    2  A    between atoms: C_2  and  N_3
REMARK    3  A    between atoms: C_4  and  C_6
REMARK    4  A    between atoms: C_10  and  C_11
REMARK    5  A    between atoms: N_16  and  C_17
REMARK    6  A    between atoms: C_19  and  N_24
REMARK    7  A    between atoms: C_22  and  C_23
REMARK    8  A    between atoms: C_25  and  C_27
REMARK    9  A    between atoms: C_31  and  N_33
REMARK                            x       y       z     vdW  Elec       q    Type
REMARK                         _______ _______ _______ _____ _____    ______ ____
ROOT
ATOM      1  C   UNL     1       3.090  -6.535  -5.765  0.00  0.00    +0.037 A 
ATOM      2  C   UNL     1       3.820  -6.104  -6.863  0.00  0.00    +0.046 A 
ATOM      3  C   UNL     1       4.438  -7.031  -7.690  0.00  0.00    +0.035 A 
ATOM      4  C   UNL     1       4.324  -8.389  -7.415  0.00  0.00    +0.024 A 
ATOM      5  C   UNL     1       3.596  -8.815  -6.321  0.00  0.00    +0.007 A 
ATOM      6  C   UNL     1       2.985  -7.894  -5.493  0.00  0.00    -0.029 A 
ATOM      7  C   UNL     1       2.198  -8.363  -4.296  0.00  0.00    +0.045 C 
ENDROOT
BRANCH   1  18
ATOM      8  C   UNL     1       0.829  -2.068  -2.890  0.00  0.00    +0.060 A 
ATOM      9  C   UNL     1       0.923  -1.313  -4.048  0.00  0.00    +0.126 A 
ATOM     10  N   UNL     1       1.427  -2.082  -5.024  0.00  0.00    -0.234 N 
ATOM     11  C   UNL     1       1.669  -3.348  -4.520  0.00  0.00    +0.109 A 
ATOM     12  C   UNL     1       1.309  -3.358  -3.192  0.00  0.00    -0.008 A 
ATOM     13  C   UNL     1       1.407  -4.526  -2.244  0.00  0.00    +0.047 C 
ATOM     14  C   UNL     1       2.208  -4.329  -5.390  0.00  0.00    +0.151 A 
ATOM     15  N   UNL     1       2.461  -4.007  -6.647  0.00  0.00    -0.217 NA
ATOM     16  C   UNL     1       2.222  -2.783  -7.117  0.00  0.00    +0.245 A 
ATOM     17  N   UNL     1       1.727  -1.835  -6.371  0.00  0.00    -0.155 NA
ATOM     18  N   UNL     1       2.466  -5.604  -4.930  0.00  0.00    -0.297 N 
ATOM     19  H   UNL     1       2.214  -5.854  -4.027  0.00  0.00    +0.154 HD
BRANCH   8  21
ATOM     20  N   UNL     1      -0.105  -0.336  -1.437  0.00  0.00    -0.312 N 
ATOM     21  C   UNL     1       0.325  -1.605  -1.583  0.00  0.00    +0.246 C 
ATOM     22  O   UNL     1       0.299  -2.369  -0.637  0.00  0.00    -0.270 OA
ATOM     23  H   UNL     1      -0.084   0.273  -2.192  0.00  0.00    +0.149 HD
BRANCH  20  25
ATOM     24  C   UNL     1      -1.027   1.590  -0.245  0.00  0.00    +0.024 C 
ATOM     25  C   UNL     1      -0.605   0.123  -0.139  0.00  0.00    +0.101 C 
ENDBRANCH  20  25
ENDBRANCH   8  21
ENDBRANCH   1  18
BRANCH   3  26
ATOM     26  N   UNL     1       5.174  -6.601  -8.798  0.00  0.00    -0.281 N 
ATOM     27  C   UNL     1       5.249  -7.374  -9.899  0.00  0.00    +0.248 C 
ATOM     28  O   UNL     1       4.604  -8.402  -9.965  0.00  0.00    -0.270 OA
ATOM     29  H   UNL     1       5.631  -5.745  -8.774  0.00  0.00    +0.155 HD
BRANCH  27  30
ATOM     30  C   UNL     1       6.117  -6.973 -11.027  0.00  0.00    +0.039 A 
ATOM     31  C   UNL     1       6.864  -5.796 -10.951  0.00  0.00    +0.013 A 
ATOM     32  C   UNL     1       7.672  -5.423 -12.005  0.00  0.00    +0.003 A 
ATOM     33  C   UNL     1       7.746  -6.212 -13.138  0.00  0.00    +0.023 A 
ATOM     34  C   UNL     1       7.006  -7.385 -13.223  0.00  0.00    +0.037 A 
ATOM     35  C   UNL     1       6.196  -7.772 -12.167  0.00  0.00    +0.036 A 
BRANCH  34  36
ATOM     36  N   UNL     1       7.085  -8.180 -14.373  0.00  0.00    -0.271 N 
ATOM     37  C   UNL     1       7.999  -7.928 -15.493  0.00  0.00    +0.114 C 
ATOM     38  C   UNL     1       8.049  -9.251 -16.289  0.00  0.00    +0.029 C 
ATOM     39  C   UNL     1       6.688  -9.889 -15.927  0.00  0.00    +0.098 C 
ATOM     40  C   UNL     1       6.336  -9.275 -14.590  0.00  0.00    +0.220 C 
ATOM     41  O   UNL     1       5.499  -9.707 -13.826  0.00  0.00    -0.275 OA
ENDBRANCH  34  36
ENDBRANCH  27  30
ENDBRANCH   3  26
TORSDOF 6
