REMARK  Name = CHEMBL225418
REMARK  12 active torsions:
REMARK  status: ('A' for Active; 'I' for Inactive)
REMARK    1  A    between atoms: C_1  and  C_2
REMARK    2  A    between atoms: C_5  and  C_29
REMARK    3  A    between atoms: C_7  and  N_8
REMARK    4  A    between atoms: N_15  and  C_16
REMARK    5  A    between atoms: N_15  and  C_17
REMARK    6  A    between atoms: C_17  and  C_18
REMARK    7  A    between atoms: C_18  and  C_19
REMARK    8  A    between atoms: C_18  and  C_20
REMARK    9  A    between atoms: C_18  and  C_21
REMARK   10  A    between atoms: N_22  and  C_23
REMARK   11  A    between atoms: N_31  and  O_32
REMARK   12  A    between atoms: O_32  and  C_33
REMARK                            x       y       z     vdW  Elec       q    Type
REMARK                         _______ _______ _______ _____ _____    ______ ____
ROOT
ATOM      1  N   UNL     1       0.048  -0.014   2.414  0.00  0.00    -0.283 N 
ATOM      2  C   UNL     1       0.162  -0.710   3.602  0.00  0.00    +0.225 A 
ATOM      3  N   UNL     1       0.374  -2.022   3.587  0.00  0.00    -0.181 NA
ATOM      4  C   UNL     1       0.483  -2.691   4.730  0.00  0.00    +0.221 A 
ATOM      5  N   UNL     1       0.381  -2.048   5.889  0.00  0.00    -0.181 NA
ATOM      6  C   UNL     1       0.168  -0.736   5.904  0.00  0.00    +0.223 A 
ATOM      7  N   UNL     1       0.064  -0.066   4.761  0.00  0.00    -0.181 NA
ATOM      8  N   UNL     1       0.061  -0.068   7.107  0.00  0.00    -0.302 N 
ATOM      9  C   UNL     1       0.181  -0.806   8.368  0.00  0.00    +0.132 C 
ATOM     10  N   UNL     1       0.704  -4.053   4.714  0.00  0.00    -0.312 N 
ATOM     11  H   UNL     1      -0.018   0.954   2.422  0.00  0.00    +0.155 HD
ATOM     12  H   UNL     1       0.855  -4.530   5.545  0.00  0.00    +0.149 HD
ENDROOT
BRANCH   1  19
ATOM     13  C   UNL     1       1.248   1.220   0.153  0.00  0.00    +0.045 C 
ATOM     14  C   UNL     1       0.603  -0.139   0.067  0.00  0.00    -0.029 A 
ATOM     15  C   UNL     1       0.591  -0.821  -1.136  0.00  0.00    +0.006 A 
ATOM     16  C   UNL     1       0.003  -2.066  -1.222  0.00  0.00    +0.013 A 
ATOM     17  C   UNL     1      -0.583  -2.642  -0.093  0.00  0.00    +0.040 A 
ATOM     18  C   UNL     1      -0.571  -1.954   1.120  0.00  0.00    +0.036 A 
ATOM     19  C   UNL     1       0.028  -0.706   1.198  0.00  0.00    +0.037 A 
BRANCH  17  20
ATOM     20  C   UNL     1      -1.214  -3.976  -0.183  0.00  0.00    +0.267 C 
ATOM     21  O   UNL     1      -1.642  -4.515   0.819  0.00  0.00    -0.268 OA
ATOM     22  N   UNL     1      -1.316  -4.594  -1.376  0.00  0.00    -0.191 N 
ATOM     23  H   UNL     1      -0.975  -4.164  -2.176  0.00  0.00    +0.183 HD
BRANCH  22  24
ATOM     24  O   UNL     1      -1.921  -5.872  -1.462  0.00  0.00    -0.283 OA
ATOM     25  C   UNL     1      -1.961  -6.407  -2.787  0.00  0.00    +0.226 C 
ENDBRANCH  22  24
ENDBRANCH  17  20
ENDBRANCH   1  19
BRANCH  10  26
ATOM     26  C   UNL     1       0.708  -4.780   3.442  0.00  0.00    +0.054 C 
ATOM     27  C   UNL     1       2.145  -4.868   2.879  0.00  0.00    +0.001 C 
ATOM     28  C   UNL     1       2.613  -6.270   3.344  0.00  0.00    -0.081 C 
ATOM     29  N   UNL     1       1.388  -7.099   3.212  0.00  0.00    +0.380 N 
ATOM     30  C   UNL     1       0.267  -6.239   3.658  0.00  0.00    -0.060 C 
ATOM     31  H   UNL     1       1.255  -7.372   2.250  0.00  0.00    -0.086 HD
ATOM     32  H   UNL     1       1.456  -7.916   3.801  0.00  0.00    -0.086 HD
ENDBRANCH  10  26
BRANCH   8  33
ATOM     33  C   UNL     1      -0.173   1.378   7.125  0.00  0.00    +0.113 C 
BRANCH  33  34
ATOM     34  C   UNL     1      -1.678   1.651   7.131  0.00  0.00    -0.022 C 
ATOM     35  C   UNL     1      -2.306   1.018   8.375  0.00  0.00    +0.012 C 
ATOM     36  C   UNL     1      -1.923   3.161   7.149  0.00  0.00    +0.012 C 
ATOM     37  C   UNL     1      -2.312   1.046   5.877  0.00  0.00    +0.012 C 
ENDBRANCH  33  34
ENDBRANCH   8  33
TORSDOF 6
