REMARK  Name = CHEMBL383348
REMARK  11 active torsions:
REMARK  status: ('A' for Active; 'I' for Inactive)
REMARK    1  A    between atoms: C_1  and  C_2
REMARK    2  A    between atoms: C_2  and  C_3
REMARK    3  A    between atoms: C_3  and  N_4
REMARK    4  A    between atoms: C_9  and  C_11
REMARK    5  A    between atoms: C_12  and  C_31
REMARK    6  A    between atoms: C_16  and  C_20
REMARK    7  A    between atoms: C_20  and  O_21
REMARK    8  A    between atoms: O_21  and  C_22
REMARK    9  A    between atoms: C_22  and  C_23
REMARK   10  A    between atoms: C_26  and  O_29
REMARK   11  A    between atoms: O_29  and  C_30
REMARK                            x       y       z     vdW  Elec       q    Type
REMARK                         _______ _______ _______ _____ _____    ______ ____
ROOT
ATOM      1  C   UNL     1      -3.651  -6.214   0.016  0.00  0.00    +0.093 A 
ATOM      2  C   UNL     1      -2.627  -7.015  -0.455  0.00  0.00    +0.074 A 
ATOM      3  N   UNL     1      -2.997  -8.292  -0.264  0.00  0.00    -0.343 N 
ATOM      4  C   UNL     1      -4.181  -8.330   0.294  0.00  0.00    +0.088 A 
ATOM      5  N   UNL     1      -4.624  -7.072   0.488  0.00  0.00    -0.322 N 
ATOM      6  C   UNL     1      -5.954  -7.066   1.115  0.00  0.00    +0.115 C 
ATOM      7  C   UNL     1      -6.138  -8.480   1.707  0.00  0.00    +0.035 C 
ATOM      8  C   UNL     1      -5.213  -9.323   0.796  0.00  0.00    +0.074 C 
ATOM      9  H   UNL     1      -2.467  -9.068  -0.503  0.00  0.00    +0.167 HD
ENDROOT
BRANCH   1  15
ATOM     10  N   UNL     1      -1.413  -1.998   0.005  0.00  0.00    -0.313 N 
ATOM     11  C   UNL     1      -2.603  -2.707   0.012  0.00  0.00    +0.216 A 
ATOM     12  N   UNL     1      -3.750  -2.042   0.021  0.00  0.00    -0.223 NA
ATOM     13  C   UNL     1      -4.910  -2.682   0.029  0.00  0.00    +0.116 A 
ATOM     14  C   UNL     1      -4.921  -4.063   0.027  0.00  0.00    +0.050 A 
ATOM     15  C   UNL     1      -3.694  -4.740   0.017  0.00  0.00    +0.094 A 
ATOM     16  N   UNL     1      -2.565  -4.029   0.005  0.00  0.00    -0.213 NA
ATOM     17  H   UNL     1      -0.567  -2.472  -0.006  0.00  0.00    +0.149 HD
BRANCH  10  18
ATOM     18  C   UNL     1      -1.433  -0.534   0.013  0.00  0.00    +0.104 C 
BRANCH  18  20
ATOM     19  C   UNL     1      -0.019   1.526   0.010  0.00  0.00    +0.005 C 
ATOM     20  C   UNL     1       0.002  -0.004   0.002  0.00  0.00    +0.015 C 
ENDBRANCH  18  20
ENDBRANCH  10  18
ENDBRANCH   1  15
BRANCH   2  21
ATOM     21  C   UNL     1      -1.356  -6.550  -1.057  0.00  0.00    +0.001 A 
ATOM     22  C   UNL     1      -1.364  -5.527  -2.005  0.00  0.00    +0.013 A 
ATOM     23  C   UNL     1      -0.177  -5.098  -2.563  0.00  0.00    +0.039 A 
ATOM     24  C   UNL     1       1.021  -5.682  -2.184  0.00  0.00    +0.123 A 
ATOM     25  C   UNL     1       1.034  -6.699  -1.243  0.00  0.00    +0.039 A 
ATOM     26  C   UNL     1      -0.147  -7.130  -0.674  0.00  0.00    +0.013 A 
ATOM     27  F   UNL     1       2.180  -5.259  -2.734  0.00  0.00    -0.205 F 
ENDBRANCH   2  21
BRANCH   6  28
ATOM     28  C   UNL     1      -6.012  -6.015   2.225  0.00  0.00    +0.185 C 
BRANCH  28  29
ATOM     29  O   UNL     1      -7.341  -5.941   2.744  0.00  0.00    -0.373 OA
BRANCH  29  30
ATOM     30  C   UNL     1      -7.505  -4.984   3.791  0.00  0.00    +0.195 C 
BRANCH  30  31
ATOM     31  C   UNL     1      -8.937  -4.991   4.260  0.00  0.00    -0.022 A 
ATOM     32  C   UNL     1      -9.864  -4.159   3.661  0.00  0.00    +0.009 A 
ATOM     33  C   UNL     1     -11.177  -4.163   4.089  0.00  0.00    +0.046 A 
ATOM     34  C   UNL     1     -11.566  -5.005   5.121  0.00  0.00    +0.120 A 
ATOM     35  C   UNL     1     -10.634  -5.840   5.721  0.00  0.00    +0.046 A 
ATOM     36  C   UNL     1      -9.323  -5.835   5.285  0.00  0.00    +0.009 A 
BRANCH  34  37
ATOM     37  O   UNL     1     -12.857  -5.011   5.545  0.00  0.00    -0.495 OA
ATOM     38  C   UNL     1     -13.185  -5.903   6.612  0.00  0.00    +0.277 C 
ENDBRANCH  34  37
ENDBRANCH  30  31
ENDBRANCH  29  30
ENDBRANCH  28  29
ENDBRANCH   6  28
TORSDOF 9
