REMARK  Name = CHEMBL415679
REMARK  14 active torsions:
REMARK  status: ('A' for Active; 'I' for Inactive)
REMARK    1  A    between atoms: C_1  and  C_2
REMARK    2  A    between atoms: C_2  and  C_3
REMARK    3  A    between atoms: C_2  and  C_4
REMARK    4  A    between atoms: C_4  and  C_5
REMARK    5  A    between atoms: N_7  and  C_8
REMARK    6  A    between atoms: C_11  and  C_14
REMARK    7  A    between atoms: C_14  and  C_15
REMARK    8  A    between atoms: C_18  and  N_21
REMARK    9  A    between atoms: N_24  and  C_25
REMARK   10  A    between atoms: C_27  and  C_31
REMARK   11  A    between atoms: N_29  and  C_30
REMARK   12  A    between atoms: C_31  and  C_32
REMARK   13  A    between atoms: C_31  and  C_33
REMARK   14  A    between atoms: C_31  and  C_34
REMARK                            x       y       z     vdW  Elec       q    Type
REMARK                         _______ _______ _______ _____ _____    ______ ____
ROOT
ATOM      1  C   UNL     1      -2.246  -8.942   1.128  0.00  0.00    -0.043 A 
ATOM      2  C   UNL     1      -1.047  -9.123   1.792  0.00  0.00    +0.006 A 
ATOM      3  C   UNL     1      -1.038  -9.609   3.084  0.00  0.00    +0.023 A 
ATOM      4  C   UNL     1      -2.235  -9.916   3.718  0.00  0.00    +0.035 A 
ATOM      5  C   UNL     1      -3.438  -9.733   3.048  0.00  0.00    +0.023 A 
ATOM      6  C   UNL     1      -3.441  -9.241   1.758  0.00  0.00    +0.006 A 
ENDROOT
BRANCH   4   7
ATOM      7  N   UNL     1      -2.229 -10.409   5.027  0.00  0.00    -0.269 N 
ATOM      8  C   UNL     1      -1.309  -9.970   5.908  0.00  0.00    +0.309 C 
ATOM      9  O   UNL     1      -0.432  -9.211   5.544  0.00  0.00    -0.252 OA
ATOM     10  N   UNL     1      -1.360 -10.374   7.193  0.00  0.00    -0.254 N 
ATOM     11  H   UNL     1      -2.888 -11.066   5.301  0.00  0.00    +0.156 HD
ATOM     12  H   UNL     1      -2.059 -10.980   7.484  0.00  0.00    +0.158 HD
BRANCH  10  13
ATOM     13  C   UNL     1      -0.407  -9.920   8.105  0.00  0.00    +0.124 A 
ATOM     14  C   UNL     1       0.620  -9.068   7.838  0.00  0.00    +0.069 A 
ATOM     15  C   UNL     1       1.334  -8.873   9.024  0.00  0.00    +0.070 A 
ATOM     16  N   UNL     1       0.764  -9.578   9.967  0.00  0.00    -0.174 NA
ATOM     17  N   UNL     1      -0.339 -10.242   9.417  0.00  0.00    -0.253 N 
ATOM     18  C   UNL     1      -1.256 -11.132  10.135  0.00  0.00    +0.174 C 
BRANCH  15  19
ATOM     19  C   UNL     1       2.553  -8.002   9.187  0.00  0.00    +0.006 C 
ATOM     20  C   UNL     1       2.131  -6.532   9.195  0.00  0.00    +0.017 C 
ATOM     21  C   UNL     1       3.249  -8.341  10.507  0.00  0.00    +0.017 C 
ATOM     22  C   UNL     1       3.516  -8.251   8.024  0.00  0.00    +0.017 C 
ENDBRANCH  15  19
ENDBRANCH  10  13
ENDBRANCH   4   7
BRANCH   1  23
ATOM     23  C   UNL     1      -2.252  -8.411  -0.282  0.00  0.00    +0.070 C 
BRANCH  23  27
ATOM     24  C   UNL     1      -2.455  -4.142  -0.197  0.00  0.00    +0.033 A 
ATOM     25  C   UNL     1      -1.222  -4.781  -0.194  0.00  0.00    +0.023 A 
ATOM     26  C   UNL     1      -1.160  -6.160  -0.222  0.00  0.00    +0.006 A 
ATOM     27  C   UNL     1      -2.324  -6.906  -0.252  0.00  0.00    -0.043 A 
ATOM     28  C   UNL     1      -3.554  -6.273  -0.255  0.00  0.00    +0.006 A 
ATOM     29  C   UNL     1      -3.623  -4.894  -0.221  0.00  0.00    +0.023 A 
BRANCH  24  32
ATOM     30  C   UNL     1      -3.513  -2.131   0.507  0.00  0.00    +0.217 C 
ATOM     31  O   UNL     1      -4.394  -2.787   1.021  0.00  0.00    -0.275 OA
ATOM     32  N   UNL     1      -2.522  -2.745  -0.169  0.00  0.00    -0.285 N 
ATOM     33  H   UNL     1      -1.854  -2.218  -0.636  0.00  0.00    +0.155 HD
BRANCH  30  34
ATOM     34  C   UNL     1      -3.526  -0.629   0.625  0.00  0.00    +0.099 C 
BRANCH  34  36
ATOM     35  C   UNL     1      -4.696   1.321   1.662  0.00  0.00    +0.008 C 
ATOM     36  C   UNL     1      -4.748  -0.192   1.436  0.00  0.00    -0.008 C 
ATOM     37  C   UNL     1      -6.023  -0.549   0.669  0.00  0.00    +0.008 C 
ENDBRANCH  34  36
ENDBRANCH  30  34
ENDBRANCH  24  32
ENDBRANCH  23  27
ENDBRANCH   1  23
TORSDOF 8
