REMARK  Name = CHEMBL219796
REMARK  3 active torsions:
REMARK  status: ('A' for Active; 'I' for Inactive)
REMARK    1  A    between atoms: C_1  and  N_2
REMARK    2  A    between atoms: N_11  and  C_12
REMARK    3  A    between atoms: C_20  and  C_22
REMARK                            x       y       z     vdW  Elec       q    Type
REMARK                         _______ _______ _______ _____ _____    ______ ____
ROOT
ATOM      1  C   UNL     1       0.458   1.461   0.220  0.00  0.00    +0.127 C 
ATOM      2  N   UNL     1       0.465  -0.004   0.205  0.00  0.00    -0.332 N 
ATOM      3  C   UNL     1       0.830  -0.684  -0.948  0.00  0.00    +0.121 A 
ATOM      4  C   UNL     1       1.192   0.040  -2.078  0.00  0.00    +0.070 A 
ATOM      5  C   UNL     1       1.556  -0.647  -3.229  0.00  0.00    +0.063 A 
ATOM      6  C   UNL     1       1.544  -2.058  -3.203  0.00  0.00    +0.025 A 
ATOM      7  C   UNL     1       1.911  -2.776  -4.364  0.00  0.00    +0.017 A 
ATOM      8  C   UNL     1       2.268  -2.089  -5.480  0.00  0.00    +0.071 A 
ATOM      9  C   UNL     1       2.272  -0.680  -5.479  0.00  0.00    +0.256 A 
ATOM     10  O   UNL     1       2.596  -0.080  -6.490  0.00  0.00    -0.267 OA
ATOM     11  N   UNL     1       1.924   0.015  -4.379  0.00  0.00    -0.271 N 
ATOM     12  C   UNL     1       1.164  -2.716  -2.017  0.00  0.00    +0.085 A 
ATOM     13  N   UNL     1       0.831  -2.010  -0.946  0.00  0.00    -0.231 NA
ATOM     14  H   UNL     1       0.214  -0.498   1.001  0.00  0.00    +0.147 HD
ENDROOT
BRANCH  11  15
ATOM     15  C   UNL     1       1.936   1.416  -4.405  0.00  0.00    +0.120 A 
ATOM     16  C   UNL     1       0.794   2.116  -4.777  0.00  0.00    +0.150 A 
ATOM     17  C   UNL     1       0.810   3.499  -4.802  0.00  0.00    +0.040 A 
ATOM     18  C   UNL     1       1.960   4.186  -4.457  0.00  0.00    +0.006 A 
ATOM     19  C   UNL     1       3.098   3.493  -4.086  0.00  0.00    +0.040 A 
ATOM     20  C   UNL     1       3.088   2.110  -4.053  0.00  0.00    +0.150 A 
ATOM     21  F   UNL     1       4.199   1.435  -3.685  0.00  0.00    -0.203 F 
ATOM     22  F   UNL     1      -0.330   1.447  -5.115  0.00  0.00    -0.203 F 
ENDBRANCH  11  15
BRANCH  12  23
ATOM     23  C   UNL     1       1.143  -4.195  -1.965  0.00  0.00    +0.036 A 
ATOM     24  C   UNL     1       2.266  -4.926  -2.356  0.00  0.00    +0.016 A 
ATOM     25  C   UNL     1       2.241  -6.303  -2.305  0.00  0.00    +0.039 A 
ATOM     26  C   UNL     1       1.103  -6.964  -1.868  0.00  0.00    +0.126 A 
ATOM     27  C   UNL     1      -0.015  -6.246  -1.479  0.00  0.00    +0.077 A 
ATOM     28  C   UNL     1       0.000  -4.865  -1.520  0.00  0.00    +0.135 A 
ATOM     29  F   UNL     1      -1.089  -4.164  -1.135  0.00  0.00    -0.205 F 
ATOM     30  F   UNL     1       1.086  -8.314  -1.821  0.00  0.00    -0.205 F 
ENDBRANCH  12  23
TORSDOF 2
