REMARK  Name = CHEMBL439238
REMARK  6 active torsions:
REMARK  status: ('A' for Active; 'I' for Inactive)
REMARK    1  A    between atoms: C_1  and  C_2
REMARK    2  A    between atoms: C_2  and  C_3
REMARK    3  A    between atoms: C_3  and  C_5
REMARK    4  A    between atoms: C_3  and  N_6
REMARK    5  A    between atoms: C_12  and  C_16
REMARK    6  A    between atoms: C_17  and  C_22
REMARK                            x       y       z     vdW  Elec       q    Type
REMARK                         _______ _______ _______ _____ _____    ______ ____
ROOT
ATOM      1  N   UNL     1       1.844  -0.931   1.550  0.00  0.00    -0.321 N 
ATOM      2  C   UNL     1       2.630  -0.665   2.652  0.00  0.00    +0.159 A 
ATOM      3  N   UNL     1       2.305  -0.702   3.925  0.00  0.00    -0.225 NA
ATOM      4  C   UNL     1       3.186  -0.416   4.908  0.00  0.00    +0.080 A 
ATOM      5  C   UNL     1       2.961  -0.419   6.306  0.00  0.00    +0.029 A 
ATOM      6  C   UNL     1       3.955  -0.105   7.175  0.00  0.00    +0.012 A 
ATOM      7  C   UNL     1       5.239   0.234   6.728  0.00  0.00    +0.002 A 
ATOM      8  C   UNL     1       5.495   0.246   5.354  0.00  0.00    +0.027 A 
ATOM      9  C   UNL     1       4.489  -0.071   4.480  0.00  0.00    +0.041 A 
ATOM     10  S   UNL     1       4.352  -0.191   2.713  0.00  0.00    -0.052 S 
ATOM     11  H   UNL     1       2.221  -0.869   0.659  0.00  0.00    +0.148 HD
ENDROOT
BRANCH   7  12
ATOM     12  C   UNL     1       6.304   0.572   7.692  0.00  0.00    +0.072 A 
ATOM     13  C   UNL     1       6.201   1.423   8.777  0.00  0.00    +0.074 A 
ATOM     14  N   UNL     1       7.401   1.447   9.388  0.00  0.00    -0.345 N 
ATOM     15  C   UNL     1       8.231   0.669   8.751  0.00  0.00    +0.171 A 
ATOM     16  N   UNL     1       7.596   0.100   7.695  0.00  0.00    -0.345 N 
ATOM     17  H   UNL     1       7.982  -0.522   7.059  0.00  0.00    +0.167 HD
ATOM     18  H   UNL     1       7.615   1.964  10.181  0.00  0.00    +0.167 HD
BRANCH  13  19
ATOM     19  C   UNL     1       4.992   2.172   9.192  0.00  0.00    +0.036 A 
ATOM     20  C   UNL     1       4.364   1.874  10.401  0.00  0.00    +0.013 A 
ATOM     21  C   UNL     1       3.239   2.575  10.783  0.00  0.00    +0.001 A 
ATOM     22  C   UNL     1       2.731   3.572   9.968  0.00  0.00    +0.003 A 
ATOM     23  C   UNL     1       3.348   3.874   8.768  0.00  0.00    +0.039 A 
ATOM     24  C   UNL     1       4.480   3.183   8.377  0.00  0.00    +0.133 A 
ATOM     25  F   UNL     1       5.085   3.482   7.207  0.00  0.00    -0.205 F 
ENDBRANCH  13  19
ENDBRANCH   7  12
BRANCH   1  26
ATOM     26  C   UNL     1       0.439  -1.308   1.726  0.00  0.00    +0.069 C 
ATOM     27  C   UNL     1       0.343  -2.815   1.975  0.00  0.00    +0.028 C 
BRANCH  26  29
ATOM     28  C   UNL     1      -0.355   0.570   0.283  0.00  0.00    +0.005 C 
ATOM     29  C   UNL     1      -0.347  -0.949   0.464  0.00  0.00    +0.018 C 
ENDBRANCH  26  29
ENDBRANCH   1  26
TORSDOF 4
