REMARK  Name = CHEMBL69319
REMARK  9 active torsions:
REMARK  status: ('A' for Active; 'I' for Inactive)
REMARK    1  A    between atoms: C_1  and  C_2
REMARK    2  A    between atoms: C_2  and  C_32
REMARK    3  A    between atoms: C_5  and  C_8
REMARK    4  A    between atoms: C_11  and  C_21
REMARK    5  A    between atoms: C_12  and  C_14
REMARK    6  A    between atoms: N_27  and  C_28
REMARK    7  A    between atoms: C_28  and  C_29
REMARK    8  A    between atoms: N_34  and  C_35
REMARK    9  A    between atoms: N_34  and  C_36
REMARK                            x       y       z     vdW  Elec       q    Type
REMARK                         _______ _______ _______ _____ _____    ______ ____
ROOT
ATOM      1  C   UNL     1      -0.101  -3.818   1.677  0.00  0.00    +0.165 A 
ATOM      2  N   UNL     1      -0.950  -4.727   1.290  0.00  0.00    -0.225 NA
ATOM      3  H   UNL     1       1.771  -3.973   2.581  0.00  0.00    +0.167 HD
ATOM      4  C   UNL     1      -0.456  -5.951   1.564  0.00  0.00    +0.115 A 
ATOM      5  C   UNL     1       0.781  -5.775   2.160  0.00  0.00    +0.076 A 
ATOM      6  N   UNL     1       0.990  -4.419   2.218  0.00  0.00    -0.337 N 
ENDROOT
BRANCH   4   7
ATOM      7  C   UNL     1      -1.115  -7.244   1.280  0.00  0.00    +0.096 A 
ATOM      8  C   UNL     1      -2.508  -7.322   1.166  0.00  0.00    +0.050 A 
ATOM      9  C   UNL     1      -3.079  -8.552   0.900  0.00  0.00    +0.116 A 
ATOM     10  N   UNL     1      -2.297  -9.613   0.761  0.00  0.00    -0.223 NA
ATOM     11  C   UNL     1      -0.981  -9.511   0.874  0.00  0.00    +0.216 A 
ATOM     12  N   UNL     1      -0.392  -8.352   1.123  0.00  0.00    -0.213 NA
ATOM     13  N   UNL     1      -0.202 -10.645   0.723  0.00  0.00    -0.313 N 
ATOM     14  H   UNL     1       0.763 -10.584   0.803  0.00  0.00    +0.149 HD
BRANCH  13  15
ATOM     15  C   UNL     1      -0.834 -11.936   0.441  0.00  0.00    +0.108 C 
BRANCH  15  16
ATOM     16  C   UNL     1       0.244 -13.016   0.321  0.00  0.00    +0.006 C 
ATOM     17  C   UNL     1       0.400 -13.710  -1.034  0.00  0.00    +0.005 C 
ATOM     18  C   UNL     1      -0.223 -14.462   0.144  0.00  0.00    +0.005 C 
ENDBRANCH  15  16
ENDBRANCH  13  15
ENDBRANCH   4   7
BRANCH   1  23
ATOM     19  C   UNL     1      -0.182   1.546  -0.109  0.00  0.00    +0.025 C 
ATOM     20  C   UNL     1       0.030   0.035  -0.001  0.00  0.00    +0.091 C 
ATOM     21  C   UNL     1      -1.324  -0.664   0.159  0.00  0.00    +0.181 C 
ATOM     22  O   UNL     1      -1.103  -2.059   0.392  0.00  0.00    -0.344 OA
ATOM     23  C   UNL     1      -0.296  -2.330   1.541  0.00  0.00    +0.318 C 
ATOM     24  O   UNL     1       0.975  -1.694   1.391  0.00  0.00    -0.344 OA
ATOM     25  C   UNL     1       0.895  -0.275   1.226  0.00  0.00    +0.181 C 
BRANCH  20  26
ATOM     26  C   UNL     1       0.718  -0.469  -1.243  0.00  0.00    +0.225 C 
ATOM     27  O   UNL     1       1.769  -1.068  -1.154  0.00  0.00    -0.275 OA
ATOM     28  N   UNL     1       0.165  -0.254  -2.454  0.00  0.00    -0.307 N 
ATOM     29  C   UNL     1       0.768  -0.848  -3.650  0.00  0.00    +0.131 C 
ATOM     30  C   UNL     1      -1.038   0.573  -2.573  0.00  0.00    +0.131 C 
ENDBRANCH  20  26
ENDBRANCH   1  23
BRANCH   5  31
ATOM     31  C   UNL     1       1.694  -6.834   2.634  0.00  0.00    +0.001 A 
ATOM     32  C   UNL     1       1.196  -7.913   3.368  0.00  0.00    +0.013 A 
ATOM     33  C   UNL     1       2.054  -8.899   3.808  0.00  0.00    +0.039 A 
ATOM     34  C   UNL     1       3.408  -8.820   3.524  0.00  0.00    +0.123 A 
ATOM     35  C   UNL     1       3.908  -7.752   2.796  0.00  0.00    +0.039 A 
ATOM     36  C   UNL     1       3.059  -6.763   2.346  0.00  0.00    +0.013 A 
ATOM     37  F   UNL     1       4.244  -9.789   3.958  0.00  0.00    -0.205 F 
ENDBRANCH   5  31
TORSDOF 6
