REMARK  Name = CHEMBL1092675
REMARK  7 active torsions:
REMARK  status: ('A' for Active; 'I' for Inactive)
REMARK    1  A    between atoms: C_1  and  C_2
REMARK    2  A    between atoms: C_2  and  N_3
REMARK    3  A    between atoms: N_10  and  C_11
REMARK    4  A    between atoms: C_11  and  C_13
REMARK    5  A    between atoms: C_11  and  C_14
REMARK    6  A    between atoms: C_20  and  C_22
REMARK    7  A    between atoms: C_26  and  C_28
REMARK                            x       y       z     vdW  Elec       q    Type
REMARK                         _______ _______ _______ _____ _____    ______ ____
ROOT
ATOM      1  N   UNL     1      -1.289  -0.715   0.164  0.00  0.00    -0.252 N 
ATOM      2  C   UNL     1      -1.999  -1.058  -0.981  0.00  0.00    +0.133 A 
ATOM      3  C   UNL     1      -1.339  -1.231  -2.198  0.00  0.00    +0.064 A 
ATOM      4  C   UNL     1      -2.085  -1.572  -3.310  0.00  0.00    +0.118 A 
ATOM      5  N   UNL     1      -3.395  -1.724  -3.189  0.00  0.00    -0.223 NA
ATOM      6  C   UNL     1      -3.995  -1.553  -2.020  0.00  0.00    +0.217 A 
ATOM      7  N   UNL     1      -3.315  -1.231  -0.930  0.00  0.00    -0.199 NA
ATOM      8  N   UNL     1      -5.367  -1.721  -1.935  0.00  0.00    -0.307 N 
ATOM      9  C   UNL     1      -1.918  -0.655   1.354  0.00  0.00    +0.252 C 
ATOM     10  O   UNL     1      -3.087  -0.977   1.441  0.00  0.00    -0.270 OA
ATOM     11  H   UNL     1      -5.818  -1.599  -1.085  0.00  0.00    +0.149 HD
ENDROOT
BRANCH   9  12
ATOM     12  C   UNL     1      -1.186  -0.197   2.554  0.00  0.00    +0.038 A 
ATOM     13  C   UNL     1      -0.229   0.815   2.448  0.00  0.00    +0.013 A 
ATOM     14  C   UNL     1       0.449   1.238   3.572  0.00  0.00    +0.001 A 
ATOM     15  C   UNL     1       0.184   0.662   4.802  0.00  0.00    +0.003 A 
ATOM     16  C   UNL     1      -0.762  -0.341   4.913  0.00  0.00    -0.050 A 
ATOM     17  C   UNL     1      -1.453  -0.769   3.799  0.00  0.00    +0.016 A 
ATOM     18  C   UNL     1      -1.044  -0.963   6.257  0.00  0.00    +0.044 C 
ENDBRANCH   9  12
BRANCH   1  20
ATOM     19  C   UNL     1       0.340   0.984  -0.502  0.00  0.00    +0.025 C 
ATOM     20  C   UNL     1       0.143  -0.419   0.076  0.00  0.00    +0.112 C 
ENDBRANCH   1  20
BRANCH   8  21
ATOM     21  C   UNL     1      -6.136  -2.082  -3.128  0.00  0.00    +0.100 C 
ATOM     22  C   UNL     1      -6.109  -3.601  -3.311  0.00  0.00    +0.033 C 
BRANCH  21  23
ATOM     23  C   UNL     1      -7.561  -1.621  -2.965  0.00  0.00    -0.027 A 
ATOM     24  C   UNL     1      -8.191  -1.740  -1.740  0.00  0.00    +0.005 A 
ATOM     25  C   UNL     1      -9.498  -1.316  -1.591  0.00  0.00    +0.000 A 
ATOM     26  C   UNL     1     -10.176  -0.774  -2.667  0.00  0.00    +0.000 A 
ATOM     27  C   UNL     1      -9.546  -0.654  -3.891  0.00  0.00    +0.000 A 
ATOM     28  C   UNL     1      -8.238  -1.073  -4.040  0.00  0.00    +0.005 A 
ENDBRANCH  21  23
ENDBRANCH   8  21
TORSDOF 4
