REMARK  Name = CHEMBL450809
REMARK  14 active torsions:
REMARK  status: ('A' for Active; 'I' for Inactive)
REMARK    1  A    between atoms: C_1  and  C_2
REMARK    2  A    between atoms: C_6  and  N_8
REMARK    3  A    between atoms: C_9  and  C_17
REMARK    4  A    between atoms: C_11  and  C_13
REMARK    5  A    between atoms: C_13  and  C_14
REMARK    6  A    between atoms: C_13  and  C_15
REMARK    7  A    between atoms: C_13  and  C_16
REMARK    8  A    between atoms: C_17  and  C_20
REMARK    9  A    between atoms: N_18  and  O_19
REMARK   10  A    between atoms: N_22  and  C_23
REMARK   11  A    between atoms: C_26  and  O_33
REMARK   12  A    between atoms: O_33  and  C_34
REMARK   13  A    between atoms: C_34  and  C_35
REMARK   14  A    between atoms: C_35  and  N_36
REMARK                            x       y       z     vdW  Elec       q    Type
REMARK                         _______ _______ _______ _____ _____    ______ ____
ROOT
ATOM      1  C   UNL     1      -1.996  -4.271   0.179  0.00  0.00    +0.272 C 
ATOM      2  O   UNL     1      -1.633  -3.175  -0.199  0.00  0.00    -0.268 OA
ATOM      3  N   UNL     1      -2.697  -5.072  -0.647  0.00  0.00    -0.280 N 
ATOM      4  H   UNL     1      -3.045  -5.918  -0.324  0.00  0.00    +0.155 HD
ENDROOT
BRANCH   3   5
ATOM      5  C   UNL     1      -2.924  -4.684  -1.970  0.00  0.00    +0.042 A 
ATOM      6  C   UNL     1      -2.161  -3.688  -2.540  0.00  0.00    +0.027 A 
ATOM      7  C   UNL     1      -2.375  -3.290  -3.856  0.00  0.00    +0.048 A 
ATOM      8  C   UNL     1      -3.353  -3.882  -4.622  0.00  0.00    +0.128 A 
ATOM      9  C   UNL     1      -4.150  -4.905  -4.070  0.00  0.00    +0.026 A 
ATOM     10  C   UNL     1      -3.930  -5.314  -2.732  0.00  0.00    +0.007 A 
ATOM     11  C   UNL     1      -4.723  -6.336  -2.185  0.00  0.00    +0.010 A 
ATOM     12  C   UNL     1      -5.686  -6.923  -2.948  0.00  0.00    +0.001 A 
ATOM     13  C   UNL     1      -5.899  -6.525  -4.266  0.00  0.00    +0.001 A 
ATOM     14  C   UNL     1      -5.157  -5.529  -4.824  0.00  0.00    +0.012 A 
BRANCH   8  15
ATOM     15  O   UNL     1      -3.549  -3.482  -5.906  0.00  0.00    -0.490 OA
BRANCH  15  16
ATOM     16  C   UNL     1      -2.704  -2.440  -6.397  0.00  0.00    +0.244 C 
BRANCH  16  17
ATOM     17  C   UNL     1      -3.071  -2.127  -7.849  0.00  0.00    +0.125 C 
BRANCH  17  18
ATOM     18  N   UNL     1      -4.452  -1.630  -7.909  0.00  0.00    -0.295 NA
ATOM     19  C   UNL     1      -4.998  -1.752  -9.268  0.00  0.00    +0.112 C 
ATOM     20  C   UNL     1      -6.455  -1.281  -9.272  0.00  0.00    +0.175 C 
ATOM     21  O   UNL     1      -6.517   0.062  -8.782  0.00  0.00    -0.377 OA
ATOM     22  C   UNL     1      -5.994   0.217  -7.460  0.00  0.00    +0.175 C 
ATOM     23  C   UNL     1      -4.533  -0.240  -7.438  0.00  0.00    +0.112 C 
ENDBRANCH  17  18
ENDBRANCH  16  17
ENDBRANCH  15  16
ENDBRANCH   8  15
ENDBRANCH   3   5
BRANCH   1  24
ATOM     24  C   UNL     1      -1.667  -4.728   1.550  0.00  0.00    +0.189 C 
ATOM     25  N   UNL     1      -0.897  -4.002   2.312  0.00  0.00    -0.080 NA
BRANCH  24  27
ATOM     26  N   UNL     1      -3.530  -6.354   2.127  0.00  0.00    -0.230 N 
ATOM     27  C   UNL     1      -2.210  -6.005   2.053  0.00  0.00    +0.101 A 
ATOM     28  C   UNL     1      -1.482  -7.071   2.536  0.00  0.00    +0.055 A 
ATOM     29  C   UNL     1      -2.384  -8.069   2.903  0.00  0.00    +0.069 A 
ATOM     30  N   UNL     1      -3.600  -7.644   2.667  0.00  0.00    -0.170 NA
BRANCH  26  36
ATOM     31  C   UNL     1      -7.921  -5.965  -0.053  0.00  0.00    +0.044 C 
ATOM     32  C   UNL     1      -6.758  -5.347   0.680  0.00  0.00    -0.048 A 
ATOM     33  C   UNL     1      -6.763  -3.994   0.968  0.00  0.00    +0.003 A 
ATOM     34  C   UNL     1      -5.698  -3.423   1.639  0.00  0.00    +0.002 A 
ATOM     35  C   UNL     1      -4.625  -4.202   2.025  0.00  0.00    +0.028 A 
ATOM     36  C   UNL     1      -4.617  -5.561   1.738  0.00  0.00    +0.066 A 
ATOM     37  C   UNL     1      -5.691  -6.132   1.068  0.00  0.00    +0.031 A 
ENDBRANCH  26  36
BRANCH  29  38
ATOM     38  C   UNL     1      -2.020  -9.412   3.482  0.00  0.00    +0.006 C 
ATOM     39  C   UNL     1      -1.605  -9.241   4.945  0.00  0.00    +0.017 C 
ATOM     40  C   UNL     1      -3.229 -10.346   3.401  0.00  0.00    +0.017 C 
ATOM     41  C   UNL     1      -0.858 -10.011   2.689  0.00  0.00    +0.017 C 
ENDBRANCH  29  38
ENDBRANCH  24  27
BRANCH  25  42
ATOM     42  O   UNL     1      -0.466  -2.727   1.872  0.00  0.00    -0.409 OA
ATOM     43  H   UNL     1       0.101  -2.264   2.504  0.00  0.00    +0.328 HD
ENDBRANCH  25  42
ENDBRANCH   1  24
TORSDOF 10
