REMARK  Name = CHEMBL270611
REMARK  8 active torsions:
REMARK  status: ('A' for Active; 'I' for Inactive)
REMARK    1  A    between atoms: C_5  and  C_7
REMARK    2  A    between atoms: C_9  and  O_26
REMARK    3  A    between atoms: N_17  and  C_18
REMARK    4  A    between atoms: O_26  and  C_27
REMARK    5  A    between atoms: C_27  and  C_28
REMARK    6  A    between atoms: C_28  and  N_29
REMARK    7  A    between atoms: C_30  and  C_32
REMARK    8  A    between atoms: C_32  and  N_35
REMARK                            x       y       z     vdW  Elec       q    Type
REMARK                         _______ _______ _______ _____ _____    ______ ____
ROOT
ATOM      1  C   UNL     1       1.248  -2.163  -0.023  0.00  0.00    -0.004 A 
ATOM      2  C   UNL     1       0.748  -2.865  -1.110  0.00  0.00    +0.055 A 
ATOM      3  C   UNL     1       0.773  -4.255  -1.118  0.00  0.00    +0.123 A 
ATOM      4  C   UNL     1       1.295  -4.959  -0.045  0.00  0.00    +0.072 A 
ATOM      5  C   UNL     1       1.801  -4.279   1.055  0.00  0.00    +0.061 A 
ATOM      6  C   UNL     1       1.787  -2.872   1.072  0.00  0.00    +0.007 A 
ATOM      7  C   UNL     1       2.310  -2.184   2.194  0.00  0.00    +0.016 A 
ATOM      8  C   UNL     1       2.820  -2.898   3.230  0.00  0.00    +0.071 A 
ATOM      9  C   UNL     1       2.829  -4.306   3.187  0.00  0.00    +0.256 A 
ATOM     10  O   UNL     1       3.292  -4.933   4.125  0.00  0.00    -0.267 OA
ATOM     11  N   UNL     1       2.324  -4.971   2.131  0.00  0.00    -0.274 N 
ENDROOT
BRANCH  11  12
ATOM     12  C   UNL     1       2.345  -6.371   2.114  0.00  0.00    +0.087 A 
ATOM     13  C   UNL     1       1.266  -7.090   2.614  0.00  0.00    +0.066 A 
ATOM     14  C   UNL     1       1.290  -8.472   2.596  0.00  0.00    +0.022 A 
ATOM     15  C   UNL     1       2.386  -9.139   2.081  0.00  0.00    +0.003 A 
ATOM     16  C   UNL     1       3.462  -8.427   1.583  0.00  0.00    +0.022 A 
ATOM     17  C   UNL     1       3.442  -7.045   1.592  0.00  0.00    +0.066 A 
ATOM     18 CL   UNL     1       4.790  -6.152   0.959  0.00  0.00    -0.081 Cl
ATOM     19 CL   UNL     1      -0.111  -6.253   3.261  0.00  0.00    -0.081 Cl
ENDBRANCH  11  12
BRANCH   1  24
ATOM     20  C   UNL     1      -0.017   1.375   0.010  0.00  0.00    +0.001 A 
ATOM     21  C   UNL     1       1.170   2.087   0.002  0.00  0.00    +0.001 A 
ATOM     22  C   UNL     1       2.382   1.421  -0.013  0.00  0.00    +0.020 A 
ATOM     23  C   UNL     1       2.414   0.040  -0.022  0.00  0.00    +0.049 A 
ATOM     24  C   UNL     1       1.221  -0.682  -0.014  0.00  0.00    +0.001 A 
ATOM     25  C   UNL     1       0.002  -0.004   0.002  0.00  0.00    +0.010 A 
ATOM     26 CL   UNL     1       3.937  -0.794  -0.042  0.00  0.00    -0.083 Cl
ENDBRANCH   1  24
BRANCH   3  27
ATOM     27  O   UNL     1       0.281  -4.930  -2.189  0.00  0.00    -0.490 OA
BRANCH  27  28
ATOM     28  C   UNL     1      -0.244  -4.147  -3.264  0.00  0.00    +0.247 C 
BRANCH  28  29
ATOM     29  C   UNL     1      -0.748  -5.075  -4.371  0.00  0.00    +0.145 C 
BRANCH  29  30
ATOM     30  N   UNL     1      -1.881  -5.859  -3.873  0.00  0.00    -0.313 N 
ATOM     31  C   UNL     1      -2.491  -6.749  -4.680  0.00  0.00    +0.202 C 
ATOM     32  O   UNL     1      -2.102  -6.901  -5.819  0.00  0.00    -0.277 OA
ATOM     33  H   UNL     1      -2.192  -5.737  -2.962  0.00  0.00    +0.149 HD
BRANCH  31  34
ATOM     34  C   UNL     1      -3.657  -7.556  -4.168  0.00  0.00    +0.007 C 
ATOM     35  C   UNL     1      -3.689  -9.047  -4.510  0.00  0.00    -0.005 C 
ATOM     36  C   UNL     1      -4.658  -8.083  -5.198  0.00  0.00    -0.005 C 
BRANCH  34  37
ATOM     37  N   UNL     1      -4.182  -7.148  -2.858  0.00  0.00    +0.388 N 
ATOM     38  H   UNL     1      -4.853  -6.404  -2.982  0.00  0.00    -0.089 HD
ATOM     39  H   UNL     1      -4.631  -7.936  -2.416  0.00  0.00    -0.089 HD
ATOM     40  H   UNL     1      -3.424  -6.824  -2.277  0.00  0.00    -0.089 HD
ENDBRANCH  34  37
ENDBRANCH  31  34
ENDBRANCH  29  30
ENDBRANCH  28  29
ENDBRANCH  27  28
ENDBRANCH   3  27
TORSDOF 8
