REMARK  Name = CHEMBL494270
REMARK  8 active torsions:
REMARK  status: ('A' for Active; 'I' for Inactive)
REMARK    1  A    between atoms: C_1  and  C_2
REMARK    2  A    between atoms: C_5  and  C_27
REMARK    3  A    between atoms: C_7  and  C_8
REMARK    4  A    between atoms: C_17  and  N_18
REMARK    5  A    between atoms: N_18  and  C_19
REMARK    6  A    between atoms: C_19  and  C_20
REMARK    7  A    between atoms: C_20  and  N_21
REMARK    8  A    between atoms: N_29  and  C_30
REMARK                            x       y       z     vdW  Elec       q    Type
REMARK                         _______ _______ _______ _____ _____    ______ ____
ROOT
ATOM      1  C   UNL     1       0.025   0.030   2.495  0.00  0.00    -0.017 A 
ATOM      2  C   UNL     1       0.943   1.071   2.699  0.00  0.00    +0.009 A 
ATOM      3  C   UNL     1       0.968   1.763   3.871  0.00  0.00    +0.012 A 
ATOM      4  C   UNL     1       0.066   1.434   4.890  0.00  0.00    +0.023 A 
ATOM      5  C   UNL     1      -0.868   0.382   4.696  0.00  0.00    +0.006 A 
ATOM      6  C   UNL     1      -0.882  -0.314   3.482  0.00  0.00    +0.018 A 
ATOM      7  C   UNL     1      -1.754   0.089   5.749  0.00  0.00    +0.141 A 
ATOM      8  N   UNL     1      -1.684   0.791   6.857  0.00  0.00    -0.180 NA
ATOM      9  N   UNL     1      -0.844   1.740   7.040  0.00  0.00    -0.264 N 
ATOM     10  C   UNL     1       0.039   2.112   6.130  0.00  0.00    +0.120 A 
ATOM     11  H   UNL     1      -0.857   2.210   7.888  0.00  0.00    +0.190 HD
ENDROOT
BRANCH   1  18
ATOM     12  C   UNL     1      -0.018   1.503   0.010  0.00  0.00    +0.044 C 
ATOM     13  C   UNL     1       0.002  -0.004   0.002  0.00  0.00    -0.043 A 
ATOM     14  C   UNL     1       0.006  -0.686  -1.199  0.00  0.00    +0.005 A 
ATOM     15  C   UNL     1       0.025  -2.067  -1.216  0.00  0.00    +0.013 A 
ATOM     16  C   UNL     1       0.041  -2.781  -0.016  0.00  0.00    +0.037 A 
ATOM     17  C   UNL     1       0.037  -2.097   1.199  0.00  0.00    +0.021 A 
ATOM     18  C   UNL     1       0.023  -0.706   1.207  0.00  0.00    -0.014 A 
BRANCH  16  19
ATOM     19  C   UNL     1       0.061  -4.259  -0.034  0.00  0.00    +0.244 C 
ATOM     20  O   UNL     1       0.074  -4.880   1.012  0.00  0.00    -0.270 OA
ATOM     21  N   UNL     1       0.064  -4.919  -1.209  0.00  0.00    -0.308 N 
ATOM     22  H   UNL     1       0.053  -4.424  -2.043  0.00  0.00    +0.149 HD
BRANCH  21  23
ATOM     23  C   UNL     1       0.084  -6.384  -1.226  0.00  0.00    +0.073 C 
ATOM     24  C   UNL     1       1.024  -7.066  -2.222  0.00  0.00    +0.024 C 
ATOM     25  C   UNL     1      -0.487  -7.083  -2.462  0.00  0.00    +0.024 C 
ENDBRANCH  21  23
ENDBRANCH  16  19
ENDBRANCH   1  18
BRANCH  10  26
ATOM     26  N   UNL     1       0.923   3.147   6.386  0.00  0.00    -0.331 N 
ATOM     27  H   UNL     1       1.568   3.413   5.712  0.00  0.00    +0.147 HD
BRANCH  26  28
ATOM     28  C   UNL     1       0.883   3.842   7.676  0.00  0.00    +0.084 C 
BRANCH  28  29
ATOM     29  C   UNL     1       1.955   4.934   7.700  0.00  0.00    -0.060 C 
BRANCH  29  30
ATOM     30  N   UNL     1       1.915   5.630   8.993  0.00  0.00    +0.384 N 
ATOM     31  C   UNL     1       0.635   6.339   9.129  0.00  0.00    -0.050 C 
ATOM     32  C   UNL     1       0.596   7.063  10.477  0.00  0.00    +0.141 C 
ATOM     33  O   UNL     1       1.706   7.961  10.562  0.00  0.00    -0.383 OA
ATOM     34  C   UNL     1       2.976   7.320  10.412  0.00  0.00    +0.141 C 
ATOM     35  C   UNL     1       3.019   6.596   9.064  0.00  0.00    -0.050 C 
ATOM     36  H   UNL     1       2.008   4.958   9.740  0.00  0.00    -0.082 HD
ENDBRANCH  29  30
ENDBRANCH  28  29
ENDBRANCH  26  28
ENDBRANCH  10  26
TORSDOF 7
