REMARK  Name = CHEMBL381864
REMARK  9 active torsions:
REMARK  status: ('A' for Active; 'I' for Inactive)
REMARK    1  A    between atoms: C_1  and  C_2
REMARK    2  A    between atoms: C_2  and  C_3
REMARK    3  A    between atoms: C_5  and  C_24
REMARK    4  A    between atoms: C_6  and  C_8
REMARK    5  A    between atoms: N_14  and  C_15
REMARK    6  A    between atoms: C_15  and  C_16
REMARK    7  A    between atoms: C_16  and  C_17
REMARK    8  A    between atoms: C_17  and  C_18
REMARK    9  A    between atoms: C_28  and  C_30
REMARK                            x       y       z     vdW  Elec       q    Type
REMARK                         _______ _______ _______ _____ _____    ______ ____
ROOT
ATOM      1  C   UNL     1       2.000  -1.971  -4.845  0.00  0.00    -0.005 A 
ATOM      2  C   UNL     1       3.310  -2.377  -5.139  0.00  0.00    +0.029 A 
ATOM      3  C   UNL     1       3.589  -2.890  -6.386  0.00  0.00    +0.113 A 
ATOM      4  N   UNL     1       2.645  -3.003  -7.302  0.00  0.00    -0.240 NA
ATOM      5  C   UNL     1       1.394  -2.634  -7.070  0.00  0.00    +0.119 A 
ATOM      6  C   UNL     1       1.025  -2.112  -5.837  0.00  0.00    +0.052 A 
ATOM      7  N   UNL     1       0.438  -2.774  -8.070  0.00  0.00    -0.329 N 
ATOM      8  H   UNL     1       0.689  -3.142  -8.932  0.00  0.00    +0.147 HD
ENDROOT
BRANCH   1  12
ATOM      9  C   UNL     1       0.673  -0.745  -1.187  0.00  0.00    +0.079 A 
ATOM     10  N   UNL     1       1.753  -0.139  -1.607  0.00  0.00    -0.243 NA
ATOM     11  C   UNL     1       2.301  -0.430  -2.775  0.00  0.00    +0.086 A 
ATOM     12  C   UNL     1       1.658  -1.416  -3.521  0.00  0.00    +0.047 A 
ATOM     13  S   UNL     1       0.309  -1.825  -2.425  0.00  0.00    -0.071 S 
BRANCH  11  14
ATOM     14  C   UNL     1       3.524   0.251  -3.261  0.00  0.00    +0.002 A 
ATOM     15  C   UNL     1       3.616   0.661  -4.591  0.00  0.00    +0.010 A 
ATOM     16  C   UNL     1       4.757   1.295  -5.037  0.00  0.00    +0.001 A 
ATOM     17  C   UNL     1       5.809   1.524  -4.168  0.00  0.00    +0.003 A 
ATOM     18  C   UNL     1       5.725   1.119  -2.848  0.00  0.00    -0.050 A 
ATOM     19  C   UNL     1       4.586   0.490  -2.389  0.00  0.00    +0.013 A 
ATOM     20  C   UNL     1       6.875   1.372  -1.909  0.00  0.00    +0.044 C 
ENDBRANCH  11  14
BRANCH   9  22
ATOM     21  C   UNL     1      -1.138   0.545  -0.089  0.00  0.00    +0.011 C 
ATOM     22  C   UNL     1      -0.069  -0.531   0.107  0.00  0.00    +0.059 C 
ENDBRANCH   9  22
ENDBRANCH   1  12
BRANCH   7  23
ATOM     23  C   UNL     1      -0.948  -2.368  -7.822  0.00  0.00    +0.103 C 
BRANCH  23  24
ATOM     24  C   UNL     1      -1.787  -2.626  -9.075  0.00  0.00    +0.023 C 
BRANCH  24  25
ATOM     25  C   UNL     1      -3.234  -2.202  -8.816  0.00  0.00    +0.036 C 
BRANCH  25  26
ATOM     26  C   UNL     1      -4.061  -2.456 -10.050  0.00  0.00    -0.047 A 
ATOM     27  C   UNL     1      -4.183  -1.474 -11.014  0.00  0.00    +0.003 A 
ATOM     28  C   UNL     1      -4.941  -1.707 -12.146  0.00  0.00    +0.000 A 
ATOM     29  C   UNL     1      -5.577  -2.923 -12.314  0.00  0.00    +0.000 A 
ATOM     30  C   UNL     1      -5.454  -3.906 -11.350  0.00  0.00    +0.000 A 
ATOM     31  C   UNL     1      -4.692  -3.674 -10.220  0.00  0.00    +0.003 A 
ENDBRANCH  25  26
ENDBRANCH  24  25
ENDBRANCH  23  24
ENDBRANCH   7  23
TORSDOF 7
