REMARK  Name = CHEMBL495118
REMARK  3 active torsions:
REMARK  status: ('A' for Active; 'I' for Inactive)
REMARK    1  A    between atoms: C_1  and  C_2
REMARK    2  A    between atoms: C_13  and  C_19
REMARK    3  A    between atoms: N_28  and  C_29
REMARK                            x       y       z     vdW  Elec       q    Type
REMARK                         _______ _______ _______ _____ _____    ______ ____
ROOT
ATOM      1  C   UNL     1      -1.373  -0.741   2.423  0.00  0.00    +0.030 C 
ATOM      2  C   UNL     1      -0.530  -1.251   1.252  0.00  0.00    +0.097 C 
ATOM      3  C   UNL     1      -1.340  -1.159  -0.046  0.00  0.00    +0.182 C 
ATOM      4  O   UNL     1      -0.488  -1.460  -1.154  0.00  0.00    -0.376 OA
ATOM      5  C   UNL     1       0.596  -0.545  -1.325  0.00  0.00    +0.179 C 
ATOM      6  C   UNL     1       1.506  -0.605  -0.092  0.00  0.00    +0.135 C 
ATOM      7  N   UNL     1       0.675  -0.418   1.108  0.00  0.00    -0.306 N 
ATOM      8  C   UNL     1       1.016   0.515   2.074  0.00  0.00    +0.150 A 
ATOM      9  C   UNL     1       1.865   0.163   3.147  0.00  0.00    +0.025 A 
ATOM     10  C   UNL     1       2.400  -1.122   3.294  0.00  0.00    +0.012 A 
ATOM     11  C   UNL     1       3.212  -1.399   4.350  0.00  0.00    +0.009 A 
ATOM     12  C   UNL     1       3.523  -0.412   5.298  0.00  0.00    -0.012 A 
ATOM     13  C   UNL     1       3.009   0.869   5.179  0.00  0.00    +0.018 A 
ATOM     14  C   UNL     1       2.173   1.170   4.099  0.00  0.00    +0.003 A 
ATOM     15  C   UNL     1       1.611   2.447   3.908  0.00  0.00    +0.112 A 
ATOM     16  N   UNL     1       0.835   2.655   2.870  0.00  0.00    -0.282 N 
ATOM     17  N   UNL     1       0.557   1.753   2.004  0.00  0.00    -0.158 NA
ATOM     18  H   UNL     1       0.455   3.539   2.750  0.00  0.00    +0.188 HD
ENDROOT
BRANCH  12  19
ATOM     19  C   UNL     1       4.411  -0.744   6.439  0.00  0.00    +0.046 A 
ATOM     20  C   UNL     1       3.916  -0.723   7.739  0.00  0.00    +0.052 A 
ATOM     21  C   UNL     1       4.741  -1.032   8.808  0.00  0.00    +0.021 A 
ATOM     22  C   UNL     1       6.062  -1.364   8.599  0.00  0.00    +0.016 A 
ATOM     23  C   UNL     1       6.577  -1.390   7.301  0.00  0.00    +0.063 A 
ATOM     24  C   UNL     1       5.750  -1.085   6.212  0.00  0.00    +0.178 A 
ATOM     25  O   UNL     1       6.499  -1.194   5.096  0.00  0.00    -0.352 OA
ATOM     26  N   UNL     1       7.814  -1.576   5.447  0.00  0.00    -0.062 NA
ATOM     27  C   UNL     1       7.904  -1.694   6.743  0.00  0.00    +0.169 A 
ATOM     28  N   UNL     1       9.036  -2.053   7.460  0.00  0.00    -0.329 N 
ATOM     29  C   UNL     1      10.292  -2.326   6.757  0.00  0.00    +0.127 C 
ATOM     30 CL   UNL     1       2.255  -0.306   8.024  0.00  0.00    -0.083 Cl
ATOM     31  H   UNL     1       8.996  -2.124   8.427  0.00  0.00    +0.147 HD
ENDBRANCH  12  19
TORSDOF 1
