REMARK  Name = CHEMBL597429
REMARK  9 active torsions:
REMARK  status: ('A' for Active; 'I' for Inactive)
REMARK    1  A    between atoms: C_1  and  N_2
REMARK    2  A    between atoms: N_2  and  C_3
REMARK    3  A    between atoms: C_4  and  C_6
REMARK    4  A    between atoms: C_6  and  C_8
REMARK    5  A    between atoms: C_15  and  C_20
REMARK    6  A    between atoms: C_16  and  O_18
REMARK    7  A    between atoms: O_18  and  C_19
REMARK    8  A    between atoms: C_25  and  C_28
REMARK    9  A    between atoms: C_28  and  C_29
REMARK                            x       y       z     vdW  Elec       q    Type
REMARK                         _______ _______ _______ _____ _____    ______ ____
ROOT
ATOM      1  C   UNL     1       2.188  -2.801  -2.793  0.00  0.00    +0.053 A 
ATOM      2  C   UNL     1       1.704  -2.231  -3.954  0.00  0.00    +0.097 A 
ATOM      3  N   UNL     1       0.517  -2.795  -4.275  0.00  0.00    -0.345 N 
ATOM      4  H   UNL     1      -0.014  -2.557  -5.051  0.00  0.00    +0.167 HD
ATOM      5  C   UNL     1       0.165  -3.753  -3.351  0.00  0.00    +0.143 A 
ATOM      6  C   UNL     1       1.188  -3.809  -2.387  0.00  0.00    +0.031 A 
ATOM      7  C   UNL     1       1.095  -4.703  -1.329  0.00  0.00    +0.030 A 
ATOM      8  C   UNL     1      -0.031  -5.530  -1.264  0.00  0.00    +0.099 A 
ATOM      9  C   UNL     1      -1.013  -5.422  -2.264  0.00  0.00    +0.229 A 
ATOM     10  N   UNL     1      -0.889  -4.554  -3.250  0.00  0.00    -0.194 NA
ENDROOT
BRANCH   8  11
ATOM     11  C   UNL     1      -0.186  -6.500  -0.164  0.00  0.00    +0.252 C 
ATOM     12  O   UNL     1      -0.446  -7.662  -0.410  0.00  0.00    -0.270 OA
ATOM     13  N   UNL     1      -0.039  -6.098   1.114  0.00  0.00    -0.297 N 
ATOM     14  C   UNL     1      -0.066  -7.073   2.213  0.00  0.00    +0.108 C 
ATOM     15  C   UNL     1      -1.113  -6.630   3.240  0.00  0.00    +0.023 C 
ATOM     16  C   UNL     1      -0.814  -5.195   3.680  0.00  0.00    -0.004 C 
ATOM     17  C   UNL     1      -0.898  -4.261   2.471  0.00  0.00    +0.023 C 
ATOM     18  C   UNL     1       0.156  -4.678   1.435  0.00  0.00    +0.108 C 
BRANCH  16  19
ATOM     19  C   UNL     1      -1.837  -4.762   4.732  0.00  0.00    +0.038 C 
BRANCH  19  20
ATOM     20  C   UNL     1      -1.472  -3.396   5.255  0.00  0.00    -0.047 A 
ATOM     21  C   UNL     1      -0.634  -3.277   6.348  0.00  0.00    +0.006 A 
ATOM     22  C   UNL     1      -0.298  -2.025   6.828  0.00  0.00    +0.038 A 
ATOM     23  C   UNL     1      -0.801  -0.891   6.214  0.00  0.00    +0.123 A 
ATOM     24  C   UNL     1      -1.640  -1.012   5.119  0.00  0.00    +0.038 A 
ATOM     25  C   UNL     1      -1.971  -2.264   4.638  0.00  0.00    +0.006 A 
ATOM     26  F   UNL     1      -0.474   0.333   6.683  0.00  0.00    -0.205 F 
ENDBRANCH  19  20
ENDBRANCH  16  19
ENDBRANCH   8  11
BRANCH   1  27
ATOM     27  C   UNL     1       3.438  -2.477  -2.108  0.00  0.00    +0.249 C 
ATOM     28  O   UNL     1       3.744  -3.066  -1.090  0.00  0.00    -0.282 OA
BRANCH  27  32
ATOM     29  C   UNL     1       6.389  -0.110  -2.573  0.00  0.00    +0.132 C 
ATOM     30  N   UNL     1       5.552  -1.219  -2.109  0.00  0.00    -0.301 N 
ATOM     31  C   UNL     1       6.034  -2.105  -1.047  0.00  0.00    +0.132 C 
ATOM     32  C   UNL     1       4.339  -1.423  -2.659  0.00  0.00    +0.287 C 
ATOM     33  O   UNL     1       3.979  -0.750  -3.603  0.00  0.00    -0.266 OA
ENDBRANCH  27  32
ENDBRANCH   1  27
BRANCH   9  34
ATOM     34  O   UNL     1      -2.107  -6.218  -2.212  0.00  0.00    -0.479 OA
ATOM     35  C   UNL     1      -3.072  -6.064  -3.255  0.00  0.00    +0.279 C 
ENDBRANCH   9  34
TORSDOF 6
