REMARK  Name = CHEMBL212128
REMARK  6 active torsions:
REMARK  status: ('A' for Active; 'I' for Inactive)
REMARK    1  A    between atoms: C_1  and  C_2
REMARK    2  A    between atoms: C_5  and  N_20
REMARK    3  A    between atoms: C_7  and  C_8
REMARK    4  A    between atoms: N_18  and  C_19
REMARK    5  A    between atoms: C_21  and  C_23
REMARK    6  A    between atoms: C_27  and  C_29
REMARK                            x       y       z     vdW  Elec       q    Type
REMARK                         _______ _______ _______ _____ _____    ______ ____
ROOT
ATOM      1  C   UNL     1      -0.044   1.502   0.029  0.00  0.00    +0.044 C 
ATOM      2  C   UNL     1      -0.017  -0.004   0.015  0.00  0.00    -0.043 A 
ATOM      3  C   UNL     1      -0.004  -0.684  -1.186  0.00  0.00    +0.006 A 
ATOM      4  C   UNL     1       0.021  -2.066  -1.204  0.00  0.00    +0.023 A 
ATOM      5  C   UNL     1       0.034  -2.779  -0.011  0.00  0.00    +0.034 A 
ATOM      6  C   UNL     1       0.021  -2.104   1.200  0.00  0.00    +0.032 A 
ATOM      7  C   UNL     1       0.001  -0.712   1.217  0.00  0.00    -0.013 A 
ENDROOT
BRANCH   7   8
ATOM      8  C   UNL     1      -0.007   0.017   2.509  0.00  0.00    -0.017 A 
ATOM      9  C   UNL     1       0.905   1.063   2.724  0.00  0.00    +0.010 A 
ATOM     10  C   UNL     1       0.919   1.747   3.899  0.00  0.00    +0.029 A 
ATOM     11  C   UNL     1       0.013   1.410   4.917  0.00  0.00    +0.076 A 
ATOM     12  C   UNL     1      -0.913   0.355   4.708  0.00  0.00    +0.019 A 
ATOM     13  C   UNL     1      -0.917  -0.335   3.490  0.00  0.00    +0.020 A 
ATOM     14  C   UNL     1      -1.812   0.038   5.745  0.00  0.00    +0.124 A 
ATOM     15  N   UNL     1      -1.753   0.734   6.861  0.00  0.00    -0.222 NA
ATOM     16  C   UNL     1      -0.870   1.718   7.023  0.00  0.00    +0.215 A 
ATOM     17  N   UNL     1      -0.005   2.059   6.087  0.00  0.00    -0.215 NA
ATOM     18  N   UNL     1      -0.861   2.412   8.220  0.00  0.00    -0.317 N 
ATOM     19  C   UNL     1      -1.809   2.058   9.279  0.00  0.00    +0.128 C 
ATOM     20  H   UNL     1      -0.226   3.132   8.358  0.00  0.00    +0.149 HD
ENDBRANCH   7   8
BRANCH   5  21
ATOM     21  N   UNL     1       0.059  -4.177  -0.032  0.00  0.00    -0.281 N 
ATOM     22  C   UNL     1       0.743  -4.853   0.912  0.00  0.00    +0.248 C 
ATOM     23  O   UNL     1       1.267  -4.253   1.830  0.00  0.00    -0.270 OA
ATOM     24  H   UNL     1      -0.415  -4.660  -0.727  0.00  0.00    +0.155 HD
BRANCH  22  25
ATOM     25  C   UNL     1       0.855  -6.325   0.832  0.00  0.00    +0.038 A 
ATOM     26  C   UNL     1       0.260  -7.017  -0.224  0.00  0.00    +0.013 A 
ATOM     27  C   UNL     1       0.368  -8.390  -0.293  0.00  0.00    +0.001 A 
ATOM     28  C   UNL     1       1.065  -9.082   0.682  0.00  0.00    +0.012 A 
ATOM     29  C   UNL     1       1.658  -8.402   1.731  0.00  0.00    +0.056 A 
ATOM     30  C   UNL     1       1.562  -7.028   1.809  0.00  0.00    +0.025 A 
BRANCH  29  31
ATOM     31  C   UNL     1       2.415  -9.164   2.788  0.00  0.00    +0.417 C 
ATOM     32  F   UNL     1       2.379 -10.531   2.494  0.00  0.00    -0.166 F 
ATOM     33  F   UNL     1       3.744  -8.728   2.816  0.00  0.00    -0.166 F 
ATOM     34  F   UNL     1       1.825  -8.940   4.037  0.00  0.00    -0.166 F 
ENDBRANCH  29  31
ENDBRANCH  22  25
ENDBRANCH   5  21
TORSDOF 4
