REMARK  Name = CHEMBL242482
REMARK  2 active torsions:
REMARK  status: ('A' for Active; 'I' for Inactive)
REMARK    1  A    between atoms: C_5  and  N_7
REMARK    2  A    between atoms: C_16  and  C_18
REMARK                            x       y       z     vdW  Elec       q    Type
REMARK                         _______ _______ _______ _____ _____    ______ ____
ROOT
ATOM      1  N   UNL     1       1.236  -2.083  -0.021  0.00  0.00    -0.235 N 
ATOM      2  C   UNL     1       0.165  -2.893   0.074  0.00  0.00    +0.051 A 
ATOM      3  C   UNL     1       0.612  -4.174   0.023  0.00  0.00    +0.011 A 
ATOM      4  C   UNL     1       1.998  -4.145  -0.103  0.00  0.00    +0.140 A 
ATOM      5  N   UNL     1       2.378  -2.890  -0.137  0.00  0.00    -0.174 NA
ATOM      6  C   UNL     1      -0.291  -5.383   0.090  0.00  0.00    +0.146 C 
ATOM      7  N   UNL     1      -1.628  -4.908   0.490  0.00  0.00    -0.293 N 
ATOM      8  C   UNL     1      -2.162  -3.700  -0.155  0.00  0.00    +0.114 C 
ATOM      9  C   UNL     1      -1.283  -2.499   0.217  0.00  0.00    +0.075 C 
ATOM     10  C   UNL     1      -2.343  -5.565   1.424  0.00  0.00    +0.252 C 
ATOM     11  O   UNL     1      -3.445  -5.160   1.743  0.00  0.00    -0.270 OA
ENDROOT
BRANCH  10  12
ATOM     12  C   UNL     1      -1.790  -6.776   2.060  0.00  0.00    +0.107 A 
ATOM     13  C   UNL     1      -1.030  -6.672   3.230  0.00  0.00    +0.138 A 
ATOM     14  C   UNL     1      -0.516  -7.811   3.820  0.00  0.00    +0.039 A 
ATOM     15  C   UNL     1      -0.751  -9.052   3.256  0.00  0.00    +0.006 A 
ATOM     16  C   UNL     1      -1.500  -9.165   2.099  0.00  0.00    +0.039 A 
ATOM     17  C   UNL     1      -2.027  -8.036   1.500  0.00  0.00    +0.138 A 
ATOM     18  F   UNL     1      -2.764  -8.148   0.372  0.00  0.00    -0.205 F 
ATOM     19  F   UNL     1      -0.800  -5.460   3.782  0.00  0.00    -0.205 F 
ENDBRANCH  10  12
BRANCH   1  24
ATOM     20  C   UNL     1       0.471   1.379   0.964  0.00  0.00    +0.002 A 
ATOM     21  C   UNL     1       1.170   2.087   0.003  0.00  0.00    +0.002 A 
ATOM     22  C   UNL     1       1.891   1.415  -0.966  0.00  0.00    +0.022 A 
ATOM     23  C   UNL     1       1.916   0.032  -0.977  0.00  0.00    +0.066 A 
ATOM     24  C   UNL     1       1.214  -0.681  -0.013  0.00  0.00    +0.084 A 
ATOM     25  C   UNL     1       0.491  -0.002   0.958  0.00  0.00    +0.029 A 
ATOM     26 CL   UNL     1       2.821  -0.811  -2.195  0.00  0.00    -0.081 Cl
ENDBRANCH   1  24
TORSDOF 2
