REMARK  Name = CHEMBL104991
REMARK  12 active torsions:
REMARK  status: ('A' for Active; 'I' for Inactive)
REMARK    1  A    between atoms: C_1  and  C_2
REMARK    2  A    between atoms: C_5  and  N_8
REMARK    3  A    between atoms: C_9  and  N_17
REMARK    4  A    between atoms: C_11  and  C_13
REMARK    5  A    between atoms: C_13  and  C_14
REMARK    6  A    between atoms: C_13  and  C_15
REMARK    7  A    between atoms: C_13  and  C_16
REMARK    8  A    between atoms: N_20  and  C_21
REMARK    9  A    between atoms: C_24  and  O_31
REMARK   10  A    between atoms: O_31  and  C_32
REMARK   11  A    between atoms: C_32  and  C_33
REMARK   12  A    between atoms: C_33  and  N_34
REMARK                            x       y       z     vdW  Elec       q    Type
REMARK                         _______ _______ _______ _____ _____    ______ ____
ROOT
ATOM      1  N   UNL     1       1.546  -3.668   2.820  0.00  0.00    -0.254 N 
ATOM      2  C   UNL     1       2.057  -4.623   3.623  0.00  0.00    +0.309 C 
ATOM      3  O   UNL     1       1.534  -5.720   3.672  0.00  0.00    -0.252 OA
ATOM      4  N   UNL     1       3.146  -4.361   4.372  0.00  0.00    -0.269 N 
ATOM      5  H   UNL     1       1.962  -2.793   2.781  0.00  0.00    +0.158 HD
ATOM      6  H   UNL     1       3.603  -3.510   4.284  0.00  0.00    +0.156 HD
ENDROOT
BRANCH   4   7
ATOM      7  C   UNL     1       3.619  -5.317   5.278  0.00  0.00    +0.043 A 
ATOM      8  C   UNL     1       3.518  -6.660   4.985  0.00  0.00    +0.027 A 
ATOM      9  C   UNL     1       3.984  -7.621   5.877  0.00  0.00    +0.048 A 
ATOM     10  C   UNL     1       4.553  -7.261   7.065  0.00  0.00    +0.128 A 
ATOM     11  C   UNL     1       4.673  -5.898   7.401  0.00  0.00    +0.026 A 
ATOM     12  C   UNL     1       4.206  -4.914   6.495  0.00  0.00    +0.007 A 
ATOM     13  C   UNL     1       4.332  -3.556   6.828  0.00  0.00    +0.010 A 
ATOM     14  C   UNL     1       4.905  -3.202   8.011  0.00  0.00    +0.001 A 
ATOM     15  C   UNL     1       5.370  -4.170   8.900  0.00  0.00    +0.001 A 
ATOM     16  C   UNL     1       5.253  -5.496   8.615  0.00  0.00    +0.012 A 
BRANCH  10  17
ATOM     17  O   UNL     1       5.001  -8.216   7.923  0.00  0.00    -0.493 OA
BRANCH  17  18
ATOM     18  C   UNL     1       4.846  -9.577   7.516  0.00  0.00    +0.210 C 
BRANCH  18  19
ATOM     19  C   UNL     1       5.404 -10.500   8.601  0.00  0.00    -0.037 C 
BRANCH  19  20
ATOM     20  N   UNL     1       4.620 -10.339   9.833  0.00  0.00    +0.385 N 
ATOM     21  C   UNL     1       5.242 -11.114  10.915  0.00  0.00    -0.050 C 
ATOM     22  C   UNL     1       4.423 -10.944  12.197  0.00  0.00    +0.141 C 
ATOM     23  O   UNL     1       3.077 -11.364  11.956  0.00  0.00    -0.383 OA
ATOM     24  C   UNL     1       2.436 -10.653  10.893  0.00  0.00    +0.141 C 
ATOM     25  C   UNL     1       3.251 -10.823   9.609  0.00  0.00    -0.050 C 
ATOM     26  H   UNL     1       4.594  -9.363  10.090  0.00  0.00    -0.081 HD
ENDBRANCH  19  20
ENDBRANCH  18  19
ENDBRANCH  17  18
ENDBRANCH  10  17
ENDBRANCH   4   7
BRANCH   1  28
ATOM     27  N   UNL     1      -0.200  -3.075   1.195  0.00  0.00    -0.217 N 
ATOM     28  C   UNL     1       0.419  -3.939   2.045  0.00  0.00    +0.130 A 
ATOM     29  C   UNL     1      -0.265  -5.116   2.000  0.00  0.00    +0.069 A 
ATOM     30  C   UNL     1      -1.324  -4.963   1.101  0.00  0.00    +0.071 A 
ATOM     31  N   UNL     1      -1.291  -3.745   0.624  0.00  0.00    -0.169 NA
BRANCH  27  36
ATOM     32  C   UNL     1       1.374   2.257   0.311  0.00  0.00    +0.065 C 
ATOM     33  C   UNL     1       0.946   0.828   0.524  0.00  0.00    +0.038 A 
ATOM     34  C   UNL     1       0.416   0.111  -0.533  0.00  0.00    +0.025 A 
ATOM     35  C   UNL     1       0.024  -1.202  -0.330  0.00  0.00    +0.031 A 
ATOM     36  C   UNL     1       0.181  -1.751   0.940  0.00  0.00    +0.085 A 
ATOM     37  C   UNL     1       0.721  -0.967   1.950  0.00  0.00    +0.138 A 
ATOM     38  N   UNL     1       1.086   0.277   1.714  0.00  0.00    -0.258 NA
ENDBRANCH  27  36
BRANCH  30  39
ATOM     39  C   UNL     1      -2.337  -6.021   0.746  0.00  0.00    +0.006 C 
ATOM     40  C   UNL     1      -3.331  -6.181   1.898  0.00  0.00    +0.017 C 
ATOM     41  C   UNL     1      -3.087  -5.604  -0.520  0.00  0.00    +0.017 C 
ATOM     42  C   UNL     1      -1.621  -7.351   0.501  0.00  0.00    +0.017 C 
ENDBRANCH  30  39
ENDBRANCH   1  28
TORSDOF 8
