REMARK  Name = CHEMBL324977
REMARK  8 active torsions:
REMARK  status: ('A' for Active; 'I' for Inactive)
REMARK    1  A    between atoms: C_1  and  C_2
REMARK    2  A    between atoms: C_2  and  C_3
REMARK    3  A    between atoms: C_2  and  N_9
REMARK    4  A    between atoms: C_12  and  C_16
REMARK    5  A    between atoms: C_17  and  C_24
REMARK    6  A    between atoms: C_19  and  S_22
REMARK    7  A    between atoms: N_20  and  C_21
REMARK    8  A    between atoms: S_22  and  C_23
REMARK                            x       y       z     vdW  Elec       q    Type
REMARK                         _______ _______ _______ _____ _____    ______ ____
ROOT
ATOM      1  N   UNL     1       0.688  -0.476  -1.203  0.00  0.00    -0.324 N 
ATOM      2  C   UNL     1      -0.015  -0.612  -2.395  0.00  0.00    +0.097 A 
ATOM      3  C   UNL     1      -1.365  -0.293  -2.436  0.00  0.00    +0.051 A 
ATOM      4  C   UNL     1      -2.058  -0.435  -3.643  0.00  0.00    +0.005 A 
ATOM      5  C   UNL     1      -1.349  -0.898  -4.764  0.00  0.00    +0.027 A 
ATOM      6  C   UNL     1      -0.011  -1.192  -4.636  0.00  0.00    +0.085 A 
ATOM      7  N   UNL     1       0.612  -1.040  -3.481  0.00  0.00    -0.350 N 
ATOM      8  H   UNL     1       1.632  -0.695  -1.170  0.00  0.00    +0.148 HD
ATOM      9  H   UNL     1       1.557  -1.253  -3.425  0.00  0.00    +0.166 HD
ENDROOT
BRANCH   4  10
ATOM     10  C   UNL     1      -3.492  -0.109  -3.736  0.00  0.00    +0.077 A 
ATOM     11  C   UNL     1      -4.482  -0.461  -2.838  0.00  0.00    +0.098 A 
ATOM     12  N   UNL     1      -5.646   0.035  -3.297  0.00  0.00    -0.221 NA
ATOM     13  C   UNL     1      -5.439   0.673  -4.425  0.00  0.00    +0.169 A 
ATOM     14  N   UNL     1      -4.115   0.616  -4.736  0.00  0.00    -0.321 N 
ATOM     15  C   UNL     1      -3.472   1.208  -5.912  0.00  0.00    +0.151 C 
BRANCH  11  16
ATOM     16  C   UNL     1      -4.295  -1.244  -1.594  0.00  0.00    +0.003 A 
ATOM     17  C   UNL     1      -3.346  -2.265  -1.546  0.00  0.00    +0.013 A 
ATOM     18  C   UNL     1      -3.176  -2.991  -0.385  0.00  0.00    +0.039 A 
ATOM     19  C   UNL     1      -3.946  -2.707   0.732  0.00  0.00    +0.123 A 
ATOM     20  C   UNL     1      -4.890  -1.694   0.688  0.00  0.00    +0.039 A 
ATOM     21  C   UNL     1      -5.064  -0.958  -0.466  0.00  0.00    +0.013 A 
ATOM     22  F   UNL     1      -3.776  -3.421   1.866  0.00  0.00    -0.205 F 
ENDBRANCH  11  16
BRANCH  13  23
ATOM     23  S   UNL     1      -6.679   1.482  -5.382  0.00  0.00    -0.091 S 
ATOM     24  C   UNL     1      -8.206   1.208  -4.443  0.00  0.00    +0.093 C 
ENDBRANCH  13  23
ENDBRANCH   4  10
BRANCH   1  26
ATOM     25  C   UNL     1      -0.019   1.526   0.010  0.00  0.00    +0.033 C 
ATOM     26  C   UNL     1       0.002  -0.004   0.002  0.00  0.00    +0.099 C 
BRANCH  26  27
ATOM     27  C   UNL     1       0.731  -0.503   1.223  0.00  0.00    -0.028 A 
ATOM     28  C   UNL     1       2.113  -0.514   1.247  0.00  0.00    +0.005 A 
ATOM     29  C   UNL     1       2.782  -0.972   2.366  0.00  0.00    +0.000 A 
ATOM     30  C   UNL     1       2.068  -1.419   3.463  0.00  0.00    +0.000 A 
ATOM     31  C   UNL     1       0.686  -1.407   3.439  0.00  0.00    +0.000 A 
ATOM     32  C   UNL     1       0.017  -0.945   2.321  0.00  0.00    +0.005 A 
ENDBRANCH  26  27
ENDBRANCH   1  26
TORSDOF 5
