REMARK  Name = CHEMBL477191
REMARK  8 active torsions:
REMARK  status: ('A' for Active; 'I' for Inactive)
REMARK    1  A    between atoms: C_1  and  C_2
REMARK    2  A    between atoms: C_5  and  N_21
REMARK    3  A    between atoms: C_7  and  C_8
REMARK    4  A    between atoms: C_11  and  C_14
REMARK    5  A    between atoms: N_16  and  C_17
REMARK    6  A    between atoms: C_17  and  C_18
REMARK    7  A    between atoms: C_22  and  C_24
REMARK    8  A    between atoms: N_30  and  C_31
REMARK                            x       y       z     vdW  Elec       q    Type
REMARK                         _______ _______ _______ _____ _____    ______ ____
ROOT
ATOM      1  C   UNL     1      -0.044   1.502   0.029  0.00  0.00    +0.044 C 
ATOM      2  C   UNL     1      -0.017  -0.004   0.016  0.00  0.00    -0.043 A 
ATOM      3  C   UNL     1      -0.004  -0.684  -1.186  0.00  0.00    +0.006 A 
ATOM      4  C   UNL     1       0.021  -2.066  -1.203  0.00  0.00    +0.023 A 
ATOM      5  C   UNL     1       0.033  -2.779  -0.011  0.00  0.00    +0.034 A 
ATOM      6  C   UNL     1       0.020  -2.105   1.200  0.00  0.00    +0.032 A 
ATOM      7  C   UNL     1       0.001  -0.712   1.217  0.00  0.00    -0.013 A 
ENDROOT
BRANCH   7   8
ATOM      8  C   UNL     1      -0.007   0.017   2.509  0.00  0.00    -0.018 A 
ATOM      9  C   UNL     1       0.897   1.056   2.728  0.00  0.00    +0.009 A 
ATOM     10  C   UNL     1       0.891   1.732   3.927  0.00  0.00    +0.013 A 
ATOM     11  C   UNL     1      -0.021   1.378   4.924  0.00  0.00    +0.037 A 
ATOM     12  C   UNL     1      -0.926   0.337   4.703  0.00  0.00    +0.013 A 
ATOM     13  C   UNL     1      -0.922  -0.335   3.501  0.00  0.00    +0.009 A 
BRANCH  11  14
ATOM     14  C   UNL     1      -0.028   2.103   6.211  0.00  0.00    +0.244 C 
ATOM     15  O   UNL     1       0.760   3.008   6.403  0.00  0.00    -0.270 OA
ATOM     16  N   UNL     1      -0.908   1.760   7.173  0.00  0.00    -0.311 N 
ATOM     17  H   UNL     1      -1.537   1.038   7.019  0.00  0.00    +0.149 HD
BRANCH  16  18
ATOM     18  C   UNL     1      -0.915   2.479   8.449  0.00  0.00    +0.108 C 
BRANCH  18  19
ATOM     19  C   UNL     1      -2.002   1.898   9.356  0.00  0.00    +0.006 C 
ATOM     20  C   UNL     1      -3.157   2.818   9.754  0.00  0.00    +0.005 C 
ATOM     21  C   UNL     1      -2.093   2.437  10.785  0.00  0.00    +0.005 C 
ENDBRANCH  18  19
ENDBRANCH  16  18
ENDBRANCH  11  14
ENDBRANCH   7   8
BRANCH   5  22
ATOM     22  N   UNL     1       0.058  -4.177  -0.032  0.00  0.00    -0.281 N 
ATOM     23  C   UNL     1       0.741  -4.854   0.912  0.00  0.00    +0.248 C 
ATOM     24  O   UNL     1       1.265  -4.254   1.830  0.00  0.00    -0.270 OA
ATOM     25  H   UNL     1      -0.416  -4.660  -0.727  0.00  0.00    +0.155 HD
BRANCH  23  26
ATOM     26  C   UNL     1       0.854  -6.329   0.831  0.00  0.00    +0.042 A 
ATOM     27  C   UNL     1       0.262  -7.038  -0.221  0.00  0.00    +0.033 A 
ATOM     28  C   UNL     1       0.388  -8.411  -0.262  0.00  0.00    +0.113 A 
ATOM     29  N   UNL     1       1.056  -9.060   0.673  0.00  0.00    -0.240 NA
ATOM     30  C   UNL     1       1.631  -8.432   1.686  0.00  0.00    +0.120 A 
ATOM     31  C   UNL     1       1.556  -7.048   1.799  0.00  0.00    +0.056 A 
ATOM     32  N   UNL     1       2.322  -9.164   2.645  0.00  0.00    -0.326 N 
ATOM     33  H   UNL     1       2.381 -10.129   2.570  0.00  0.00    +0.148 HD
BRANCH  32  34
ATOM     34  C   UNL     1       2.962  -8.477   3.770  0.00  0.00    +0.072 C 
ATOM     35  C   UNL     1       4.351  -7.994   3.349  0.00  0.00    +0.022 C 
ATOM     36  C   UNL     1       5.020  -7.276   4.523  0.00  0.00    +0.002 C 
ATOM     37  C   UNL     1       5.151  -8.242   5.703  0.00  0.00    +0.000 C 
ATOM     38  C   UNL     1       3.762  -8.725   6.124  0.00  0.00    +0.002 C 
ATOM     39  C   UNL     1       3.094  -9.442   4.949  0.00  0.00    +0.022 C 
ENDBRANCH  32  34
ENDBRANCH  23  26
ENDBRANCH   5  22
TORSDOF 7
