REMARK  Name = CHEMBL109732
REMARK  10 active torsions:
REMARK  status: ('A' for Active; 'I' for Inactive)
REMARK    1  A    between atoms: C_1  and  C_2
REMARK    2  A    between atoms: C_2  and  C_3
REMARK    3  A    between atoms: C_2  and  N_9
REMARK    4  A    between atoms: C_12  and  C_16
REMARK    5  A    between atoms: C_17  and  C_33
REMARK    6  A    between atoms: C_19  and  S_22
REMARK    7  A    between atoms: S_22  and  C_23
REMARK    8  A    between atoms: C_23  and  C_24
REMARK    9  A    between atoms: C_27  and  S_30
REMARK   10  A    between atoms: S_30  and  C_32
REMARK                            x       y       z     vdW  Elec       q    Type
REMARK                         _______ _______ _______ _____ _____    ______ ____
ROOT
ATOM      1  C   UNL     1      -3.431  -0.168   3.796  0.00  0.00    +0.098 A 
ATOM      2  C   UNL     1      -4.347  -0.828   4.592  0.00  0.00    +0.075 A 
ATOM      3  N   UNL     1      -5.561  -0.200   4.392  0.00  0.00    -0.332 N 
ATOM      4  C   UNL     1      -5.351   0.805   3.496  0.00  0.00    +0.168 A 
ATOM      5  N   UNL     1      -4.085   0.820   3.152  0.00  0.00    -0.221 NA
ATOM      6  H   UNL     1      -6.405  -0.432   4.810  0.00  0.00    +0.168 HD
ENDROOT
BRANCH   1  10
ATOM      7  N   UNL     1       0.711  -0.489   1.189  0.00  0.00    -0.324 N 
ATOM      8  C   UNL     1       0.030  -0.638   2.392  0.00  0.00    +0.097 A 
ATOM      9  C   UNL     1      -1.322  -0.330   2.459  0.00  0.00    +0.051 A 
ATOM     10  C   UNL     1      -1.990  -0.484   3.676  0.00  0.00    +0.007 A 
ATOM     11  C   UNL     1      -1.261  -0.947   4.780  0.00  0.00    +0.027 A 
ATOM     12  C   UNL     1       0.078  -1.230   4.628  0.00  0.00    +0.085 A 
ATOM     13  N   UNL     1       0.678  -1.077   3.461  0.00  0.00    -0.350 N 
ATOM     14  H   UNL     1       1.654  -0.707   1.135  0.00  0.00    +0.148 HD
ATOM     15  H   UNL     1       1.622  -1.289   3.386  0.00  0.00    +0.166 HD
BRANCH   7  17
ATOM     16  C   UNL     1      -0.019   1.526   0.010  0.00  0.00    +0.033 C 
ATOM     17  C   UNL     1       0.002  -0.004   0.002  0.00  0.00    +0.099 C 
BRANCH  17  18
ATOM     18  C   UNL     1       0.707  -0.490  -1.238  0.00  0.00    -0.028 A 
ATOM     19  C   UNL     1       2.089  -0.511  -1.284  0.00  0.00    +0.005 A 
ATOM     20  C   UNL     1       2.736  -0.957  -2.421  0.00  0.00    +0.000 A 
ATOM     21  C   UNL     1       2.002  -1.382  -3.512  0.00  0.00    +0.000 A 
ATOM     22  C   UNL     1       0.620  -1.362  -3.466  0.00  0.00    +0.000 A 
ATOM     23  C   UNL     1      -0.027  -0.920  -2.327  0.00  0.00    +0.005 A 
ENDBRANCH  17  18
ENDBRANCH   7  17
ENDBRANCH   1  10
BRANCH   2  24
ATOM     24  C   UNL     1      -4.081  -1.976   5.481  0.00  0.00    +0.001 A 
ATOM     25  C   UNL     1      -3.299  -3.043   5.033  0.00  0.00    +0.013 A 
ATOM     26  C   UNL     1      -3.054  -4.113   5.867  0.00  0.00    +0.039 A 
ATOM     27  C   UNL     1      -3.582  -4.131   7.149  0.00  0.00    +0.123 A 
ATOM     28  C   UNL     1      -4.359  -3.075   7.599  0.00  0.00    +0.039 A 
ATOM     29  C   UNL     1      -4.606  -1.997   6.775  0.00  0.00    +0.013 A 
ATOM     30  F   UNL     1      -3.339  -5.182   7.962  0.00  0.00    -0.205 F 
ENDBRANCH   2  24
BRANCH   4  31
ATOM     31  S   UNL     1      -6.584   1.912   2.898  0.00  0.00    -0.083 S 
BRANCH  31  32
ATOM     32  C   UNL     1      -5.684   2.994   1.753  0.00  0.00    +0.112 C 
BRANCH  32  33
ATOM     33  C   UNL     1      -6.635   4.003   1.163  0.00  0.00    -0.037 A 
ATOM     34  C   UNL     1      -7.316   3.712  -0.004  0.00  0.00    +0.005 A 
ATOM     35  C   UNL     1      -8.188   4.637  -0.546  0.00  0.00    +0.017 A 
ATOM     36  C   UNL     1      -8.381   5.854   0.081  0.00  0.00    +0.039 A 
ATOM     37  C   UNL     1      -7.701   6.146   1.248  0.00  0.00    +0.017 A 
ATOM     38  C   UNL     1      -6.832   5.218   1.792  0.00  0.00    +0.005 A 
BRANCH  36  39
ATOM     39  S   UNL     1      -9.492   7.034  -0.610  0.00  0.00    +0.051 S 
ATOM     40  O   UNL     1      -9.534   6.700  -1.990  0.00  0.00    -0.252 OA
ATOM     41  C   UNL     1     -11.087   6.637   0.157  0.00  0.00    +0.127 C 
ENDBRANCH  36  39
ENDBRANCH  32  33
ENDBRANCH  31  32
ENDBRANCH   4  31
TORSDOF 8
