REMARK  Name = CHEMBL221700
REMARK  8 active torsions:
REMARK  status: ('A' for Active; 'I' for Inactive)
REMARK    1  A    between atoms: C_5  and  N_7
REMARK    2  A    between atoms: N_14  and  C_15
REMARK    3  A    between atoms: N_14  and  C_31
REMARK    4  A    between atoms: C_15  and  C_16
REMARK    5  A    between atoms: C_16  and  C_17
REMARK    6  A    between atoms: C_17  and  N_18
REMARK    7  A    between atoms: C_19  and  C_21
REMARK    8  A    between atoms: C_24  and  C_27
REMARK                            x       y       z     vdW  Elec       q    Type
REMARK                         _______ _______ _______ _____ _____    ______ ____
ROOT
ATOM      1  N   UNL     1       1.238  -2.079  -0.022  0.00  0.00    -0.194 N 
ATOM      2  C   UNL     1       0.583  -2.768   0.935  0.00  0.00    +0.272 A 
ATOM      3  O   UNL     1      -0.030  -2.174   1.808  0.00  0.00    -0.266 OA
ATOM      4  C   UNL     1       0.610  -4.176   0.919  0.00  0.00    +0.075 A 
ATOM      5  C   UNL     1       1.298  -4.819  -0.062  0.00  0.00    +0.051 A 
ATOM      6  C   UNL     1       1.972  -4.070  -1.048  0.00  0.00    +0.147 A 
ATOM      7  N   UNL     1       1.935  -2.759  -1.027  0.00  0.00    -0.148 NA
ATOM      8  N   UNL     1       2.677  -4.728  -2.055  0.00  0.00    -0.282 N 
ENDROOT
BRANCH   1  13
ATOM      9  C   UNL     1      -0.017   1.377   0.010  0.00  0.00    +0.002 A 
ATOM     10  C   UNL     1       1.170   2.087   0.002  0.00  0.00    +0.002 A 
ATOM     11  C   UNL     1       2.380   1.417  -0.013  0.00  0.00    +0.022 A 
ATOM     12  C   UNL     1       2.407   0.035  -0.021  0.00  0.00    +0.066 A 
ATOM     13  C   UNL     1       1.215  -0.681  -0.014  0.00  0.00    +0.088 A 
ATOM     14  C   UNL     1       0.002  -0.004   0.002  0.00  0.00    +0.029 A 
ATOM     15 CL   UNL     1       3.926  -0.805  -0.041  0.00  0.00    -0.081 Cl
ENDBRANCH   1  13
BRANCH   8  16
ATOM     16  C   UNL     1       2.714  -6.125  -2.085  0.00  0.00    +0.054 A 
ATOM     17  C   UNL     1       1.748  -6.832  -2.789  0.00  0.00    +0.025 A 
ATOM     18  C   UNL     1       1.788  -8.212  -2.816  0.00  0.00    +0.002 A 
ATOM     19  C   UNL     1       2.788  -8.891  -2.144  0.00  0.00    +0.002 A 
ATOM     20  C   UNL     1       3.752  -8.191  -1.442  0.00  0.00    +0.022 A 
ATOM     21  C   UNL     1       3.721  -6.809  -1.415  0.00  0.00    +0.062 A 
ATOM     22 CL   UNL     1       4.936  -5.931  -0.539  0.00  0.00    -0.082 Cl
ENDBRANCH   8  16
BRANCH   8  23
ATOM     23  C   UNL     1       3.379  -3.954  -3.082  0.00  0.00    +0.114 C 
BRANCH  23  24
ATOM     24  C   UNL     1       4.809  -3.671  -2.618  0.00  0.00    +0.038 C 
BRANCH  24  25
ATOM     25  C   UNL     1       5.543  -2.863  -3.691  0.00  0.00    +0.106 C 
BRANCH  25  26
ATOM     26  N   UNL     1       6.912  -2.592  -3.247  0.00  0.00    -0.315 N 
ATOM     27  C   UNL     1       7.750  -1.890  -4.035  0.00  0.00    +0.216 C 
ATOM     28  O   UNL     1       7.370  -1.483  -5.113  0.00  0.00    -0.276 OA
ATOM     29  H   UNL     1       7.216  -2.918  -2.385  0.00  0.00    +0.149 HD
BRANCH  27  30
ATOM     30  C   UNL     1       9.159  -1.611  -3.578  0.00  0.00    +0.075 C 
ATOM     31  C   UNL     1       9.123  -0.812  -2.274  0.00  0.00    +0.013 C 
ATOM     32  C   UNL     1      10.553  -0.529  -1.810  0.00  0.00    +0.013 C 
ATOM     33  C   UNL     1      11.287   0.279  -2.883  0.00  0.00    +0.093 C 
ATOM     34  C   UNL     1      11.322  -0.520  -4.187  0.00  0.00    +0.013 C 
ATOM     35  C   UNL     1       9.892  -0.803  -4.651  0.00  0.00    +0.013 C 
BRANCH  33  36
ATOM     36  C   UNL     1      12.717   0.562  -2.419  0.00  0.00    +0.393 C 
ATOM     37  F   UNL     1      13.387  -0.648  -2.207  0.00  0.00    -0.170 F 
ATOM     38  F   UNL     1      13.388   1.300  -3.400  0.00  0.00    -0.170 F 
ATOM     39  F   UNL     1      12.684   1.292  -1.226  0.00  0.00    -0.170 F 
ENDBRANCH  33  36
ENDBRANCH  27  30
ENDBRANCH  25  26
ENDBRANCH  24  25
ENDBRANCH  23  24
ENDBRANCH   8  23
TORSDOF 8
