REMARK  Name = CHEMBL494879
REMARK  5 active torsions:
REMARK  status: ('A' for Active; 'I' for Inactive)
REMARK    1  A    between atoms: C_1  and  S_2
REMARK    2  A    between atoms: S_2  and  C_3
REMARK    3  A    between atoms: C_6  and  C_16
REMARK    4  A    between atoms: C_7  and  C_9
REMARK    5  A    between atoms: N_22  and  C_23
REMARK                            x       y       z     vdW  Elec       q    Type
REMARK                         _______ _______ _______ _____ _____    ______ ____
ROOT
ATOM      1  C   UNL     1      -1.561   6.880  -2.264  0.00  0.00    +0.005 A 
ATOM      2  C   UNL     1      -0.701   7.990  -2.279  0.00  0.00    +0.027 A 
ATOM      3  C   UNL     1      -1.138   9.170  -2.836  0.00  0.00    +0.085 A 
ATOM      4  N   UNL     1      -2.349   9.271  -3.354  0.00  0.00    -0.350 N 
ATOM      5  C   UNL     1      -3.196   8.251  -3.363  0.00  0.00    +0.097 A 
ATOM      6  C   UNL     1      -2.834   7.024  -2.827  0.00  0.00    +0.051 A 
ATOM      7  N   UNL     1      -4.460   8.412  -3.920  0.00  0.00    -0.324 N 
ATOM      8  H   UNL     1      -4.717   9.267  -4.300  0.00  0.00    +0.148 HD
ATOM      9  H   UNL     1      -2.627  10.116  -3.739  0.00  0.00    +0.166 HD
ENDROOT
BRANCH   7  10
ATOM     10  C   UNL     1      -5.403   7.291  -3.935  0.00  0.00    +0.102 C 
ATOM     11  C   UNL     1      -6.379   7.468  -5.096  0.00  0.00    +0.027 C 
ATOM     12  C   UNL     1      -7.483   6.412  -4.965  0.00  0.00    +0.007 C 
ATOM     13  C   UNL     1      -8.351   6.770  -3.760  0.00  0.00    +0.035 C 
ATOM     14  C   UNL     1      -7.495   7.004  -2.543  0.00  0.00    -0.042 A 
ATOM     15  C   UNL     1      -6.142   7.247  -2.623  0.00  0.00    -0.024 A 
ATOM     16  C   UNL     1      -5.412   7.461  -1.462  0.00  0.00    +0.006 A 
ATOM     17  C   UNL     1      -6.030   7.429  -0.229  0.00  0.00    +0.000 A 
ATOM     18  C   UNL     1      -7.388   7.181  -0.148  0.00  0.00    +0.000 A 
ATOM     19  C   UNL     1      -8.115   6.970  -1.301  0.00  0.00    +0.004 A 
ENDBRANCH   7  10
BRANCH   1  23
ATOM     20  C   UNL     1      -0.735   3.448  -1.364  0.00  0.00    +0.167 A 
ATOM     21  N   UNL     1      -1.262   4.342  -2.245  0.00  0.00    -0.332 N 
ATOM     22  H   UNL     1      -1.654   4.137  -3.108  0.00  0.00    +0.168 HD
ATOM     23  C   UNL     1      -1.133   5.598  -1.678  0.00  0.00    +0.075 A 
ATOM     24  C   UNL     1      -0.522   5.409  -0.453  0.00  0.00    +0.098 A 
ATOM     25  N   UNL     1      -0.304   4.090  -0.303  0.00  0.00    -0.221 NA
BRANCH  24  26
ATOM     26  C   UNL     1      -0.174   6.469   0.522  0.00  0.00    +0.003 A 
ATOM     27  C   UNL     1      -1.080   7.493   0.795  0.00  0.00    +0.013 A 
ATOM     28  C   UNL     1      -0.751   8.478   1.704  0.00  0.00    +0.039 A 
ATOM     29  C   UNL     1       0.477   8.450   2.345  0.00  0.00    +0.123 A 
ATOM     30  C   UNL     1       1.381   7.435   2.076  0.00  0.00    +0.039 A 
ATOM     31  C   UNL     1       1.059   6.442   1.174  0.00  0.00    +0.013 A 
ATOM     32  F   UNL     1       0.795   9.417   3.233  0.00  0.00    -0.205 F 
ENDBRANCH  24  26
BRANCH  20  34
ATOM     33  C   UNL     1       0.136   1.089  -0.092  0.00  0.00    +0.093 C 
ATOM     34  S   UNL     1      -0.653   1.704  -1.605  0.00  0.00    -0.091 S 
ENDBRANCH  20  34
ENDBRANCH   1  23
TORSDOF 4
