REMARK  Name = CHEMBL192848
REMARK  6 active torsions:
REMARK  status: ('A' for Active; 'I' for Inactive)
REMARK    1  A    between atoms: C_1  and  C_2
REMARK    2  A    between atoms: C_2  and  C_3
REMARK    3  A    between atoms: C_2  and  S_4
REMARK    4  A    between atoms: S_4  and  N_7
REMARK    5  A    between atoms: C_10  and  C_17
REMARK    6  A    between atoms: C_18  and  C_23
REMARK                            x       y       z     vdW  Elec       q    Type
REMARK                         _______ _______ _______ _____ _____    ______ ____
ROOT
ATOM      1  N   UNL     1       0.017  -0.011   2.755  0.00  0.00    -0.183 N 
ATOM      2  C   UNL     1       0.217   1.206   3.387  0.00  0.00    +0.094 A 
ATOM      3  C   UNL     1       1.107   2.249   3.200  0.00  0.00    +0.040 A 
ATOM      4  C   UNL     1       1.044   3.365   4.029  0.00  0.00    +0.005 A 
ATOM      5  C   UNL     1       0.085   3.430   5.046  0.00  0.00    +0.012 A 
ATOM      6  C   UNL     1      -0.794   2.405   5.236  0.00  0.00    +0.030 A 
ATOM      7  C   UNL     1      -0.744   1.277   4.410  0.00  0.00    +0.093 A 
ATOM      8  N   UNL     1      -1.469   0.129   4.357  0.00  0.00    -0.213 NA
ATOM      9  C   UNL     1      -1.028  -0.626   3.383  0.00  0.00    +0.214 A 
ATOM     10  N   UNL     1      -1.539  -1.861   3.044  0.00  0.00    -0.328 N 
ATOM     11  H   UNL     1      -1.153  -2.361   2.308  0.00  0.00    +0.145 HD
ATOM     12  H   UNL     1      -2.285  -2.230   3.542  0.00  0.00    +0.145 HD
ENDROOT
BRANCH   4  13
ATOM     13  C   UNL     1       1.993   4.486   3.836  0.00  0.00    +0.097 A 
ATOM     14  C   UNL     1       1.724   5.829   4.026  0.00  0.00    +0.074 A 
ATOM     15  N   UNL     1       2.890   6.498   3.731  0.00  0.00    -0.344 N 
ATOM     16  C   UNL     1       3.809   5.573   3.379  0.00  0.00    +0.197 A 
ATOM     17  N   UNL     1       3.278   4.384   3.447  0.00  0.00    -0.235 NA
ATOM     18  H   UNL     1       3.026   7.458   3.768  0.00  0.00    +0.167 HD
BRANCH  14  19
ATOM     19  C   UNL     1       0.444   6.425   4.459  0.00  0.00    +0.000 A 
ATOM     20  C   UNL     1      -0.757   5.992   3.894  0.00  0.00    +0.010 A 
ATOM     21  C   UNL     1      -1.949   6.553   4.303  0.00  0.00    +0.001 A 
ATOM     22  C   UNL     1      -1.956   7.542   5.271  0.00  0.00    +0.000 A 
ATOM     23  C   UNL     1      -0.769   7.976   5.834  0.00  0.00    +0.001 A 
ATOM     24  C   UNL     1       0.430   7.420   5.439  0.00  0.00    +0.010 A 
ENDBRANCH  14  19
ENDBRANCH   4  13
BRANCH   1  25
ATOM     25  S   UNL     1       0.879  -0.605   1.472  0.00  0.00    +0.060 S 
ATOM     26  O   UNL     1       0.754  -2.017   1.573  0.00  0.00    -0.153 OA
ATOM     27  O   UNL     1       2.152   0.018   1.571  0.00  0.00    -0.153 OA
BRANCH  25  29
ATOM     28  C   UNL     1      -0.019   1.526   0.010  0.00  0.00    +0.033 C 
ATOM     29  C   UNL     1       0.002  -0.004   0.002  0.00  0.00    +0.148 C 
ATOM     30  C   UNL     1       0.718  -0.497  -1.257  0.00  0.00    +0.033 C 
ENDBRANCH  25  29
ENDBRANCH   1  25
TORSDOF 4
