REMARK  Name = CHEMBL308003
REMARK  5 active torsions:
REMARK  status: ('A' for Active; 'I' for Inactive)
REMARK    1  A    between atoms: C_1  and  C_2
REMARK    2  A    between atoms: C_2  and  C_27
REMARK    3  A    between atoms: C_5  and  C_8
REMARK    4  A    between atoms: C_11  and  C_21
REMARK    5  A    between atoms: C_12  and  C_14
REMARK                            x       y       z     vdW  Elec       q    Type
REMARK                         _______ _______ _______ _____ _____    ______ ____
ROOT
ATOM      1  C   UNL     1      -1.360  -3.842   1.028  0.00  0.00    +0.165 A 
ATOM      2  N   UNL     1      -2.410  -4.388   0.483  0.00  0.00    -0.227 NA
ATOM      3  H   UNL     1       0.322  -4.684   1.927  0.00  0.00    +0.167 HD
ATOM      4  C   UNL     1      -2.315  -5.729   0.563  0.00  0.00    +0.097 A 
ATOM      5  C   UNL     1      -1.123  -6.023   1.201  0.00  0.00    +0.074 A 
ATOM      6  N   UNL     1      -0.530  -4.816   1.483  0.00  0.00    -0.337 N 
ENDROOT
BRANCH   1  11
ATOM      7  C   UNL     1       0.246   1.505   0.134  0.00  0.00    +0.025 C 
ATOM      8  C   UNL     1       0.001   0.001  -0.000  0.00  0.00    +0.091 C 
ATOM      9  C   UNL     1      -1.506  -0.278   0.019  0.00  0.00    +0.181 C 
ATOM     10  O   UNL     1      -1.718  -1.693   0.027  0.00  0.00    -0.344 OA
ATOM     11  C   UNL     1      -1.103  -2.361   1.131  0.00  0.00    +0.318 C 
ATOM     12  O   UNL     1       0.306  -2.119   1.109  0.00  0.00    -0.344 OA
ATOM     13  C   UNL     1       0.655  -0.733   1.175  0.00  0.00    +0.181 C 
BRANCH   8  14
ATOM     14  C   UNL     1       0.591  -0.494  -1.296  0.00  0.00    +0.226 C 
ATOM     15  O   UNL     1      -0.095  -1.124  -2.073  0.00  0.00    -0.275 OA
ATOM     16  N   UNL     1       1.880  -0.236  -1.591  0.00  0.00    -0.297 N 
ATOM     17  C   UNL     1       2.764   0.421  -0.614  0.00  0.00    +0.136 C 
ATOM     18  C   UNL     1       4.047  -0.409  -0.489  0.00  0.00    +0.179 C 
ATOM     19  O   UNL     1       4.593  -0.630  -1.791  0.00  0.00    -0.377 OA
ATOM     20  C   UNL     1       3.745  -1.382  -2.662  0.00  0.00    +0.179 C 
ATOM     21  C   UNL     1       2.448  -0.608  -2.897  0.00  0.00    +0.136 C 
ENDBRANCH   8  14
ENDBRANCH   1  11
BRANCH   5  22
ATOM     22  C   UNL     1      -0.593  -7.365   1.513  0.00  0.00    +0.001 A 
ATOM     23  C   UNL     1      -1.431  -8.343   2.052  0.00  0.00    +0.013 A 
ATOM     24  C   UNL     1      -0.930  -9.595   2.341  0.00  0.00    +0.039 A 
ATOM     25  C   UNL     1       0.404  -9.884   2.097  0.00  0.00    +0.123 A 
ATOM     26  C   UNL     1       1.241  -8.917   1.562  0.00  0.00    +0.039 A 
ATOM     27  C   UNL     1       0.749  -7.664   1.264  0.00  0.00    +0.013 A 
ATOM     28  F   UNL     1       0.889 -11.111   2.382  0.00  0.00    -0.205 F 
ENDBRANCH   5  22
BRANCH   4  29
ATOM     29  C   UNL     1      -3.304  -6.709   0.060  0.00  0.00    +0.005 A 
ATOM     30  C   UNL     1      -2.894  -7.938  -0.469  0.00  0.00    +0.030 A 
ATOM     31  C   UNL     1      -3.849  -8.821  -0.926  0.00  0.00    +0.111 A 
ATOM     32  N   UNL     1      -5.133  -8.520  -0.869  0.00  0.00    -0.263 NA
ATOM     33  C   UNL     1      -5.562  -7.373  -0.378  0.00  0.00    +0.111 A 
ATOM     34  C   UNL     1      -4.676  -6.434   0.106  0.00  0.00    +0.030 A 
ENDBRANCH   4  29
TORSDOF 4
