REMARK  Name = CHEMBL308203
REMARK  13 active torsions:
REMARK  status: ('A' for Active; 'I' for Inactive)
REMARK    1  A    between atoms: C_1  and  C_2
REMARK    2  A    between atoms: C_2  and  C_3
REMARK    3  A    between atoms: C_3  and  N_4
REMARK    4  A    between atoms: C_5  and  C_7
REMARK    5  A    between atoms: C_7  and  C_38
REMARK    6  A    between atoms: C_10  and  C_13
REMARK    7  A    between atoms: C_16  and  C_26
REMARK    8  A    between atoms: C_17  and  C_19
REMARK    9  A    between atoms: N_32  and  C_33
REMARK   10  A    between atoms: C_33  and  C_34
REMARK   11  A    between atoms: C_34  and  C_35
REMARK   12  A    between atoms: C_35  and  O_36
REMARK   13  A    between atoms: O_36  and  C_37
REMARK                            x       y       z     vdW  Elec       q    Type
REMARK                         _______ _______ _______ _____ _____    ______ ____
ROOT
ATOM      1  C   UNL     1      -3.295  -8.105  -1.352  0.00  0.00    +0.165 A 
ATOM      2  N   UNL     1      -2.380  -8.841  -1.915  0.00  0.00    -0.225 NA
ATOM      3  H   UNL     1      -5.031  -8.612  -0.315  0.00  0.00    +0.167 HD
ATOM      4  C   UNL     1      -2.691 -10.143  -1.759  0.00  0.00    +0.115 A 
ATOM      5  C   UNL     1      -3.879 -10.204  -1.050  0.00  0.00    +0.076 A 
ATOM      6  N   UNL     1      -4.242  -8.905  -0.798  0.00  0.00    -0.337 N 
ENDROOT
BRANCH   4   7
ATOM      7  C   UNL     1      -1.907 -11.295  -2.254  0.00  0.00    +0.096 A 
ATOM      8  C   UNL     1      -1.049 -11.153  -3.351  0.00  0.00    +0.050 A 
ATOM      9  C   UNL     1      -0.337 -12.258  -3.777  0.00  0.00    +0.116 A 
ATOM     10  N   UNL     1      -0.486 -13.410  -3.140  0.00  0.00    -0.223 NA
ATOM     11  C   UNL     1      -1.305 -13.517  -2.104  0.00  0.00    +0.216 A 
ATOM     12  N   UNL     1      -2.002 -12.484  -1.659  0.00  0.00    -0.213 NA
ATOM     13  N   UNL     1      -1.431 -14.740  -1.468  0.00  0.00    -0.313 N 
ATOM     14  H   UNL     1      -2.026 -14.833  -0.708  0.00  0.00    +0.149 HD
BRANCH  13  15
ATOM     15  C   UNL     1      -0.664 -15.895  -1.942  0.00  0.00    +0.106 C 
BRANCH  15  16
ATOM     16  C   UNL     1      -0.984 -17.112  -1.072  0.00  0.00    +0.047 C 
BRANCH  16  17
ATOM     17  C   UNL     1      -0.183 -18.318  -1.567  0.00  0.00    +0.161 C 
BRANCH  17  18
ATOM     18  O   UNL     1      -0.482 -19.455  -0.754  0.00  0.00    -0.383 OA
ATOM     19  C   UNL     1       0.218 -20.641  -1.135  0.00  0.00    +0.193 C 
ENDBRANCH  17  18
ENDBRANCH  16  17
ENDBRANCH  15  16
ENDBRANCH  13  15
ENDBRANCH   4   7
BRANCH   1  23
ATOM     20  C   UNL     1      -2.551  -4.195   0.004  0.00  0.00    +0.091 C 
ATOM     21  C   UNL     1      -1.848  -4.692  -1.264  0.00  0.00    +0.181 C 
ATOM     22  O   UNL     1      -1.952  -6.118  -1.325  0.00  0.00    -0.344 OA
ATOM     23  C   UNL     1      -3.299  -6.598  -1.315  0.00  0.00    +0.318 C 
ATOM     24  O   UNL     1      -3.956  -6.152  -0.127  0.00  0.00    -0.344 OA
ATOM     25  C   UNL     1      -3.988  -4.728   0.015  0.00  0.00    +0.181 C 
ATOM     26  C   UNL     1      -1.806  -4.704   1.239  0.00  0.00    +0.025 C 
BRANCH  20  28
ATOM     27  N   UNL     1      -1.413  -1.998   0.005  0.00  0.00    -0.315 N 
ATOM     28  C   UNL     1      -2.571  -2.688   0.012  0.00  0.00    +0.223 C 
ATOM     29  O   UNL     1      -3.630  -2.096   0.025  0.00  0.00    -0.275 OA
ATOM     30  H   UNL     1      -0.567  -2.472  -0.006  0.00  0.00    +0.149 HD
BRANCH  27  31
ATOM     31  C   UNL     1      -1.433  -0.534   0.013  0.00  0.00    +0.104 C 
BRANCH  31  33
ATOM     32  C   UNL     1      -0.019   1.526   0.010  0.00  0.00    +0.005 C 
ATOM     33  C   UNL     1       0.002  -0.004   0.002  0.00  0.00    +0.015 C 
ENDBRANCH  31  33
ENDBRANCH  27  31
ENDBRANCH  20  28
ENDBRANCH   1  23
BRANCH   5  34
ATOM     34  C   UNL     1      -4.606 -11.423  -0.643  0.00  0.00    +0.001 A 
ATOM     35  C   UNL     1      -4.785 -12.469  -1.551  0.00  0.00    +0.013 A 
ATOM     36  C   UNL     1      -5.465 -13.605  -1.166  0.00  0.00    +0.039 A 
ATOM     37  C   UNL     1      -5.972 -13.710   0.120  0.00  0.00    +0.123 A 
ATOM     38  C   UNL     1      -5.798 -12.675   1.025  0.00  0.00    +0.039 A 
ATOM     39  C   UNL     1      -5.114 -11.537   0.653  0.00  0.00    +0.013 A 
ATOM     40  F   UNL     1      -6.637 -14.825   0.492  0.00  0.00    -0.205 F 
ENDBRANCH   5  34
TORSDOF 10
