REMARK  Name = CHEMBL370783
REMARK  11 active torsions:
REMARK  status: ('A' for Active; 'I' for Inactive)
REMARK    1  A    between atoms: C_1  and  C_2
REMARK    2  A    between atoms: C_2  and  N_3
REMARK    3  A    between atoms: C_4  and  N_8
REMARK    4  A    between atoms: C_9  and  C_11
REMARK    5  A    between atoms: C_14  and  C_31
REMARK    6  A    between atoms: C_15  and  N_17
REMARK    7  A    between atoms: C_19  and  C_29
REMARK    8  A    between atoms: C_20  and  N_25
REMARK    9  A    between atoms: N_25  and  C_26
REMARK   10  A    between atoms: C_26  and  C_27
REMARK   11  A    between atoms: C_26  and  C_28
REMARK                            x       y       z     vdW  Elec       q    Type
REMARK                         _______ _______ _______ _____ _____    ______ ____
ROOT
ATOM      1  C   UNL     1      -3.104  -0.740  -4.294  0.00  0.00    +0.039 A 
ATOM      2  C   UNL     1      -3.999  -0.293  -3.319  0.00  0.00    +0.013 A 
ATOM      3  C   UNL     1      -5.341  -0.172  -3.618  0.00  0.00    +0.006 A 
ATOM      4  C   UNL     1      -5.804  -0.492  -4.880  0.00  0.00    -0.029 A 
ATOM      5  C   UNL     1      -4.922  -0.938  -5.857  0.00  0.00    +0.036 A 
ATOM      6  C   UNL     1      -3.571  -1.058  -5.569  0.00  0.00    +0.036 A 
ATOM      7  C   UNL     1      -7.271  -0.358  -5.198  0.00  0.00    +0.045 C 
ENDROOT
BRANCH   5   8
ATOM      8  N   UNL     1      -5.397  -1.260  -7.133  0.00  0.00    -0.298 N 
ATOM      9  C   UNL     1      -4.695  -2.147  -7.926  0.00  0.00    +0.147 A 
ATOM     10  C   UNL     1      -5.092  -2.385  -9.258  0.00  0.00    +0.131 A 
ATOM     11  C   UNL     1      -4.338  -3.300 -10.021  0.00  0.00    +0.143 A 
ATOM     12  N   UNL     1      -3.292  -3.896  -9.458  0.00  0.00    -0.198 NA
ATOM     13  C   UNL     1      -2.956  -3.642  -8.202  0.00  0.00    +0.216 A 
ATOM     14  N   UNL     1      -3.632  -2.785  -7.450  0.00  0.00    -0.198 NA
ATOM     15  N   UNL     1      -1.861  -4.285  -7.661  0.00  0.00    -0.327 N 
ATOM     16  H   UNL     1      -6.218  -0.862  -7.460  0.00  0.00    +0.154 HD
ATOM     17  H   UNL     1      -1.352  -4.912  -8.199  0.00  0.00    +0.145 HD
ATOM     18  H   UNL     1      -1.600  -4.111  -6.743  0.00  0.00    +0.145 HD
BRANCH  11  19
ATOM     19  N   UNL     1      -4.681  -3.572 -11.330  0.00  0.00    -0.326 N 
ATOM     20  H   UNL     1      -5.446  -3.133 -11.732  0.00  0.00    +0.148 HD
BRANCH  19  21
ATOM     21  C   UNL     1      -3.889  -4.525 -12.111  0.00  0.00    +0.066 C 
ATOM     22  C   UNL     1      -4.387  -5.946 -11.839  0.00  0.00    +0.027 C 
ATOM     23  C   UNL     1      -4.036  -4.210 -13.601  0.00  0.00    +0.027 C 
ENDBRANCH  19  21
ENDBRANCH  11  19
BRANCH  10  24
ATOM     24  C   UNL     1      -6.228  -1.718  -9.819  0.00  0.00    +0.106 C 
ATOM     25  N   UNL     1      -7.129  -1.188 -10.264  0.00  0.00    -0.191 NA
ENDBRANCH  10  24
ENDBRANCH   5   8
BRANCH   1  27
ATOM     26  N   UNL     1      -1.218  -0.562  -2.744  0.00  0.00    -0.267 N 
ATOM     27  C   UNL     1      -1.667  -0.870  -3.977  0.00  0.00    +0.249 C 
ATOM     28  O   UNL     1      -0.889  -1.255  -4.828  0.00  0.00    -0.270 OA
ATOM     29  H   UNL     1      -1.838  -0.256  -2.064  0.00  0.00    +0.157 HD
BRANCH  26  31
ATOM     30  N   UNL     1       0.726  -0.411  -1.251  0.00  0.00    -0.251 N 
ATOM     31  C   UNL     1       0.138  -0.685  -2.445  0.00  0.00    +0.123 A 
ATOM     32  C   UNL     1       1.116  -1.102  -3.296  0.00  0.00    +0.065 A 
ATOM     33  C   UNL     1       2.327  -1.080  -2.600  0.00  0.00    +0.136 A 
ATOM     34  N   UNL     1       2.098  -0.662  -1.381  0.00  0.00    -0.178 NA
BRANCH  30  36
ATOM     35  C   UNL     1       0.020   1.597  -0.048  0.00  0.00    +0.029 C 
ATOM     36  C   UNL     1       0.046   0.068  -0.045  0.00  0.00    +0.142 C 
ENDBRANCH  30  36
ENDBRANCH  26  31
ENDBRANCH   1  27
TORSDOF 7
