REMARK  Name = CHEMBL1209014
REMARK  11 active torsions:
REMARK  status: ('A' for Active; 'I' for Inactive)
REMARK    1  A    between atoms: C_1  and  C_2
REMARK    2  A    between atoms: C_5  and  N_8
REMARK    3  A    between atoms: C_10  and  C_36
REMARK    4  A    between atoms: N_16  and  C_17
REMARK    5  A    between atoms: C_20  and  O_27
REMARK    6  A    between atoms: O_27  and  C_28
REMARK    7  A    between atoms: C_28  and  C_29
REMARK    8  A    between atoms: C_29  and  N_30
REMARK    9  A    between atoms: C_36  and  C_37
REMARK   10  A    between atoms: C_36  and  C_38
REMARK   11  A    between atoms: C_36  and  C_39
REMARK                            x       y       z     vdW  Elec       q    Type
REMARK                         _______ _______ _______ _____ _____    ______ ____
ROOT
ATOM      1  N   UNL     1       0.138  -5.164   0.128  0.00  0.00    -0.238 N 
ATOM      2  C   UNL     1       0.059  -6.058   1.147  0.00  0.00    +0.120 A 
ATOM      3  C   UNL     1      -0.045  -7.293   0.606  0.00  0.00    +0.018 A 
ATOM      4  C   UNL     1      -0.031  -7.154  -0.792  0.00  0.00    +0.152 A 
ATOM      5  N   UNL     1       0.073  -5.877  -1.076  0.00  0.00    -0.151 NA
ATOM      6  N   UNL     1      -0.118  -8.198  -1.722  0.00  0.00    -0.252 N 
ATOM      7  C   UNL     1      -0.093  -7.928  -3.042  0.00  0.00    +0.309 C 
ATOM      8  O   UNL     1       0.006  -6.779  -3.426  0.00  0.00    -0.252 OA
ATOM      9  N   UNL     1      -0.177  -8.933  -3.937  0.00  0.00    -0.269 N 
ATOM     10  H   UNL     1      -0.198  -9.115  -1.416  0.00  0.00    +0.158 HD
ATOM     11  H   UNL     1      -0.188  -9.854  -3.633  0.00  0.00    +0.156 HD
ENDROOT
BRANCH   9  12
ATOM     12  C   UNL     1      -0.249  -8.647  -5.305  0.00  0.00    +0.043 A 
ATOM     13  C   UNL     1       0.427  -7.564  -5.824  0.00  0.00    +0.027 A 
ATOM     14  C   UNL     1       0.364  -7.269  -7.182  0.00  0.00    +0.048 A 
ATOM     15  C   UNL     1      -0.368  -8.043  -8.038  0.00  0.00    +0.128 A 
ATOM     16  C   UNL     1      -1.073  -9.159  -7.544  0.00  0.00    +0.026 A 
ATOM     17  C   UNL     1      -1.009  -9.469  -6.164  0.00  0.00    +0.007 A 
ATOM     18  C   UNL     1      -1.707 -10.585  -5.675  0.00  0.00    +0.010 A 
ATOM     19  C   UNL     1      -2.430 -11.356  -6.532  0.00  0.00    +0.001 A 
ATOM     20  C   UNL     1      -2.489 -11.055  -7.891  0.00  0.00    +0.001 A 
ATOM     21  C   UNL     1      -1.835  -9.973  -8.398  0.00  0.00    +0.012 A 
BRANCH  15  22
ATOM     22  O   UNL     1      -0.417  -7.736  -9.361  0.00  0.00    -0.493 OA
BRANCH  22  23
ATOM     23  C   UNL     1       0.322  -6.591  -9.789  0.00  0.00    +0.210 C 
BRANCH  23  24
ATOM     24  C   UNL     1       0.147  -6.406 -11.298  0.00  0.00    -0.037 C 
BRANCH  24  25
ATOM     25  N   UNL     1      -1.264  -6.130 -11.598  0.00  0.00    +0.385 N 
ATOM     26  C   UNL     1      -1.458  -6.096 -13.054  0.00  0.00    -0.050 C 
ATOM     27  C   UNL     1      -2.930  -5.808 -13.363  0.00  0.00    +0.141 C 
ATOM     28  O   UNL     1      -3.306  -4.570 -12.754  0.00  0.00    -0.383 OA
ATOM     29  C   UNL     1      -3.113  -4.545 -11.337  0.00  0.00    +0.141 C 
ATOM     30  C   UNL     1      -1.642  -4.831 -11.024  0.00  0.00    -0.050 C 
ATOM     31  H   UNL     1      -1.841  -6.855 -11.198  0.00  0.00    -0.081 HD
ENDBRANCH  24  25
ENDBRANCH  23  24
ENDBRANCH  22  23
ENDBRANCH  15  22
ENDBRANCH   9  12
BRANCH   1  36
ATOM     32  C   UNL     1       0.618   0.466   0.654  0.00  0.00    +0.044 C 
ATOM     33  C   UNL     1       0.490  -1.029   0.514  0.00  0.00    -0.050 A 
ATOM     34  C   UNL     1       0.439  -1.603  -0.743  0.00  0.00    +0.005 A 
ATOM     35  C   UNL     1       0.322  -2.973  -0.874  0.00  0.00    +0.028 A 
ATOM     36  C   UNL     1       0.257  -3.774   0.258  0.00  0.00    +0.065 A 
ATOM     37  C   UNL     1       0.310  -3.196   1.519  0.00  0.00    +0.028 A 
ATOM     38  C   UNL     1       0.432  -1.825   1.644  0.00  0.00    +0.005 A 
ENDBRANCH   1  36
BRANCH   3  39
ATOM     39  C   UNL     1      -0.158  -8.589   1.367  0.00  0.00    -0.008 C 
ATOM     40  C   UNL     1      -0.136  -8.301   2.869  0.00  0.00    +0.016 C 
ATOM     41  C   UNL     1      -1.470  -9.284   1.000  0.00  0.00    +0.016 C 
ATOM     42  C   UNL     1       1.020  -9.496   1.004  0.00  0.00    +0.016 C 
ENDBRANCH   3  39
TORSDOF 7
