REMARK  Name = CHEMBL161477
REMARK  13 active torsions:
REMARK  status: ('A' for Active; 'I' for Inactive)
REMARK    1  A    between atoms: C_1  and  C_2
REMARK    2  A    between atoms: C_2  and  C_4
REMARK    3  A    between atoms: C_2  and  N_10
REMARK    4  A    between atoms: C_15  and  C_17
REMARK    5  A    between atoms: C_19  and  N_33
REMARK    6  A    between atoms: C_22  and  C_23
REMARK    7  A    between atoms: C_27  and  C_29
REMARK    8  A    between atoms: N_33  and  C_34
REMARK    9  A    between atoms: N_33  and  C_35
REMARK   10  A    between atoms: C_35  and  C_36
REMARK   11  A    between atoms: C_36  and  N_37
REMARK   12  A    between atoms: N_37  and  C_38
REMARK   13  A    between atoms: N_37  and  C_39
REMARK                            x       y       z     vdW  Elec       q    Type
REMARK                         _______ _______ _______ _____ _____    ______ ____
ROOT
ATOM      1  C   UNL     1      -5.410  -1.726  -2.231  0.00  0.00    +0.029 A 
ATOM      2  C   UNL     1      -6.185  -1.789  -3.390  0.00  0.00    +0.057 A 
ATOM      3  C   UNL     1      -7.475  -2.306  -3.284  0.00  0.00    +0.142 A 
ATOM      4  N   UNL     1      -7.929  -2.719  -2.108  0.00  0.00    -0.158 NA
ATOM      5  N   UNL     1      -7.223  -2.664  -1.039  0.00  0.00    -0.275 N 
ATOM      6  C   UNL     1      -5.983  -2.196  -1.033  0.00  0.00    +0.074 A 
ATOM      7  H   UNL     1      -7.609  -2.981  -0.207  0.00  0.00    +0.189 HD
ENDROOT
BRANCH   1  13
ATOM      8  N   UNL     1      -0.782  -2.101  -1.107  0.00  0.00    -0.307 N 
ATOM      9  C   UNL     1      -1.797  -1.381  -1.713  0.00  0.00    +0.216 A 
ATOM     10  N   UNL     1      -1.507  -0.230  -2.304  0.00  0.00    -0.223 NA
ATOM     11  C   UNL     1      -2.449   0.488  -2.895  0.00  0.00    +0.116 A 
ATOM     12  C   UNL     1      -3.754   0.026  -2.892  0.00  0.00    +0.048 A 
ATOM     13  C   UNL     1      -4.029  -1.189  -2.261  0.00  0.00    +0.078 A 
ATOM     14  N   UNL     1      -3.030  -1.861  -1.692  0.00  0.00    -0.214 NA
ATOM     15  H   UNL     1      -0.980  -2.947  -0.674  0.00  0.00    +0.149 HD
BRANCH   8  17
ATOM     16  C   UNL     1       0.781  -0.617   0.048  0.00  0.00    +0.033 C 
ATOM     17  C   UNL     1       0.590  -1.587  -1.119  0.00  0.00    +0.100 C 
BRANCH  17  18
ATOM     18  C   UNL     1       1.557  -2.735  -0.982  0.00  0.00    -0.027 A 
ATOM     19  C   UNL     1       1.275  -3.778  -0.120  0.00  0.00    +0.005 A 
ATOM     20  C   UNL     1       2.162  -4.830   0.005  0.00  0.00    +0.000 A 
ATOM     21  C   UNL     1       3.332  -4.840  -0.731  0.00  0.00    +0.000 A 
ATOM     22  C   UNL     1       3.614  -3.797  -1.594  0.00  0.00    +0.000 A 
ATOM     23  C   UNL     1       2.724  -2.747  -1.722  0.00  0.00    +0.005 A 
ENDBRANCH  17  18
ENDBRANCH   8  17
ENDBRANCH   1  13
BRANCH   6  24
ATOM     24  C   UNL     1      -5.206  -2.160   0.229  0.00  0.00    +0.001 A 
ATOM     25  C   UNL     1      -4.545  -0.994   0.611  0.00  0.00    +0.010 A 
ATOM     26  C   UNL     1      -3.824  -0.967   1.787  0.00  0.00    +0.001 A 
ATOM     27  C   UNL     1      -3.755  -2.094   2.586  0.00  0.00    +0.012 A 
ATOM     28  C   UNL     1      -4.409  -3.255   2.212  0.00  0.00    +0.055 A 
ATOM     29  C   UNL     1      -5.138  -3.292   1.041  0.00  0.00    +0.022 A 
BRANCH  28  30
ATOM     30  C   UNL     1      -4.329  -4.479   3.087  0.00  0.00    +0.417 C 
ATOM     31  F   UNL     1      -3.544  -4.198   4.211  0.00  0.00    -0.166 F 
ATOM     32  F   UNL     1      -5.615  -4.844   3.496  0.00  0.00    -0.166 F 
ATOM     33  F   UNL     1      -3.752  -5.530   2.367  0.00  0.00    -0.166 F 
ENDBRANCH  28  30
ENDBRANCH   6  24
BRANCH   3  34
ATOM     34  N   UNL     1      -8.285  -2.389  -4.410  0.00  0.00    -0.319 N 
ATOM     35  C   UNL     1      -7.748  -2.037  -5.727  0.00  0.00    +0.130 C 
BRANCH  34  36
ATOM     36  C   UNL     1      -9.677  -2.829  -4.281  0.00  0.00    +0.088 C 
BRANCH  36  37
ATOM     37  C   UNL     1     -10.575  -1.615  -4.039  0.00  0.00    -0.060 C 
BRANCH  37  38
ATOM     38  N   UNL     1     -11.970  -2.057  -3.909  0.00  0.00    +0.377 N 
ATOM     39  C   UNL     1     -12.817  -0.908  -3.558  0.00  0.00    -0.097 C 
ATOM     40  C   UNL     1     -12.424  -2.627  -5.184  0.00  0.00    -0.097 C 
ATOM     41  H   UNL     1     -12.036  -2.756  -3.185  0.00  0.00    -0.083 HD
ENDBRANCH  37  38
ENDBRANCH  36  37
ENDBRANCH  34  36
ENDBRANCH   3  34
TORSDOF 9
