REMARK  Name = CHEMBL196741
REMARK  14 active torsions:
REMARK  status: ('A' for Active; 'I' for Inactive)
REMARK    1  A    between atoms: C_1  and  C_2
REMARK    2  A    between atoms: C_5  and  C_32
REMARK    3  A    between atoms: C_7  and  N_8
REMARK    4  A    between atoms: C_10  and  C_30
REMARK    5  A    between atoms: C_11  and  N_23
REMARK    6  A    between atoms: N_19  and  C_22
REMARK    7  A    between atoms: N_23  and  C_24
REMARK    8  A    between atoms: N_23  and  C_25
REMARK    9  A    between atoms: C_25  and  C_26
REMARK   10  A    between atoms: C_26  and  C_27
REMARK   11  A    between atoms: C_26  and  C_28
REMARK   12  A    between atoms: C_26  and  C_29
REMARK   13  A    between atoms: N_34  and  O_35
REMARK   14  A    between atoms: O_35  and  C_36
REMARK                            x       y       z     vdW  Elec       q    Type
REMARK                         _______ _______ _______ _____ _____    ______ ____
ROOT
ATOM      1  N   UNL     1      -0.164  -0.102   2.117  0.00  0.00    -0.298 N 
ATOM      2  C   UNL     1       0.142  -0.634   3.354  0.00  0.00    +0.147 A 
ATOM      3  C   UNL     1      -0.102   0.102   4.531  0.00  0.00    +0.132 A 
ATOM      4  C   UNL     1       0.230  -0.492   5.766  0.00  0.00    +0.146 A 
ATOM      5  N   UNL     1       0.756  -1.712   5.770  0.00  0.00    -0.198 NA
ATOM      6  C   UNL     1       0.969  -2.368   4.638  0.00  0.00    +0.221 A 
ATOM      7  N   UNL     1       0.667  -1.851   3.455  0.00  0.00    -0.198 NA
ATOM      8  N   UNL     1       1.518  -3.633   4.692  0.00  0.00    -0.298 N 
ATOM      9  C   UNL     1       1.816  -4.333   3.427  0.00  0.00    +0.109 C 
ATOM     10  C   UNL     1       3.170  -5.059   3.496  0.00  0.00    +0.034 C 
ATOM     11  C   UNL     1       4.174  -4.193   4.225  0.00  0.00    +0.085 C 
ATOM     12  N   UNL     1       4.162  -4.538   5.645  0.00  0.00    -0.304 NA
ATOM     13  C   UNL     1       3.213  -3.862   6.447  0.00  0.00    +0.103 C 
ATOM     14  C   UNL     1       1.784  -4.222   5.989  0.00  0.00    +0.123 C 
ATOM     15  C   UNL     1       5.508  -4.436   6.224  0.00  0.00    +0.104 C 
ATOM     16  H   UNL     1      -0.487   0.809   2.047  0.00  0.00    +0.154 HD
ENDROOT
BRANCH   1  23
ATOM     17  C   UNL     1       0.130   1.241  -0.370  0.00  0.00    +0.045 C 
ATOM     18  C   UNL     1       0.139  -0.263  -0.273  0.00  0.00    -0.029 A 
ATOM     19  C   UNL     1       0.299  -1.026  -1.415  0.00  0.00    +0.006 A 
ATOM     20  C   UNL     1       0.308  -2.403  -1.335  0.00  0.00    +0.013 A 
ATOM     21  C   UNL     1       0.155  -3.031  -0.097  0.00  0.00    +0.040 A 
ATOM     22  C   UNL     1      -0.006  -2.262   1.055  0.00  0.00    +0.036 A 
ATOM     23  C   UNL     1      -0.008  -0.878   0.964  0.00  0.00    +0.036 A 
BRANCH  21  24
ATOM     24  C   UNL     1       0.164  -4.507  -0.008  0.00  0.00    +0.267 C 
ATOM     25  O   UNL     1       0.101  -5.051   1.077  0.00  0.00    -0.268 OA
ATOM     26  N   UNL     1       0.242  -5.250  -1.131  0.00  0.00    -0.191 N 
ATOM     27  H   UNL     1       0.293  -4.816  -1.997  0.00  0.00    +0.183 HD
BRANCH  26  28
ATOM     28  O   UNL     1       0.251  -6.663  -1.046  0.00  0.00    -0.283 OA
ATOM     29  C   UNL     1       0.337  -7.321  -2.311  0.00  0.00    +0.226 C 
ENDBRANCH  26  28
ENDBRANCH  21  24
ENDBRANCH   1  23
BRANCH   4  30
ATOM     30  N   UNL     1       0.013   0.182   6.950  0.00  0.00    -0.317 N 
ATOM     31  C   UNL     1       1.103   0.935   7.575  0.00  0.00    +0.130 C 
BRANCH  30  32
ATOM     32  C   UNL     1      -1.308   0.146   7.582  0.00  0.00    +0.112 C 
BRANCH  32  33
ATOM     33  C   UNL     1      -1.352  -0.988   8.608  0.00  0.00    -0.022 C 
ATOM     34  C   UNL     1      -0.346  -0.703   9.726  0.00  0.00    +0.012 C 
ATOM     35  C   UNL     1      -2.759  -1.086   9.201  0.00  0.00    +0.012 C 
ATOM     36  C   UNL     1      -0.994  -2.309   7.924  0.00  0.00    +0.012 C 
ENDBRANCH  32  33
ENDBRANCH  30  32
ENDBRANCH   4  30
BRANCH   3  37
ATOM     37  C   UNL     1      -0.671   1.415   4.474  0.00  0.00    +0.106 C 
ATOM     38  N   UNL     1      -1.123   2.456   4.430  0.00  0.00    -0.191 NA
ENDBRANCH   3  37
TORSDOF 7
