REMARK  Name = CHEMBL278924
REMARK  9 active torsions:
REMARK  status: ('A' for Active; 'I' for Inactive)
REMARK    1  A    between atoms: C_1  and  C_2
REMARK    2  A    between atoms: C_2  and  C_3
REMARK    3  A    between atoms: C_2  and  C_4
REMARK    4  A    between atoms: C_2  and  C_5
REMARK    5  A    between atoms: C_7  and  N_15
REMARK    6  A    between atoms: C_8  and  C_11
REMARK    7  A    between atoms: C_11  and  O_13
REMARK    8  A    between atoms: O_13  and  C_14
REMARK    9  A    between atoms: N_18  and  C_19
REMARK                            x       y       z     vdW  Elec       q    Type
REMARK                         _______ _______ _______ _____ _____    ______ ____
ROOT
ATOM      1  N   UNL     1       1.871  -2.954  -3.561  0.00  0.00    -0.267 N 
ATOM      2  C   UNL     1       1.504  -4.174  -3.121  0.00  0.00    +0.308 C 
ATOM      3  O   UNL     1       0.874  -4.282  -2.087  0.00  0.00    -0.252 OA
ATOM      4  N   UNL     1       1.836  -5.273  -3.826  0.00  0.00    -0.269 N 
ATOM      5  H   UNL     1       2.374  -2.867  -4.386  0.00  0.00    +0.156 HD
ATOM      6  H   UNL     1       2.281  -5.183  -4.684  0.00  0.00    +0.156 HD
ENDROOT
BRANCH   4   7
ATOM      7  C   UNL     1       1.540  -6.541  -3.324  0.00  0.00    +0.042 A 
ATOM      8  C   UNL     1       0.391  -6.747  -2.590  0.00  0.00    +0.024 A 
ATOM      9  C   UNL     1       0.086  -8.007  -2.084  0.00  0.00    +0.002 A 
ATOM     10  C   UNL     1       0.910  -9.069  -2.299  0.00  0.00    +0.008 A 
ATOM     11  C   UNL     1       2.091  -8.902  -3.042  0.00  0.00    -0.016 A 
ATOM     12  C   UNL     1       2.410  -7.625  -3.567  0.00  0.00    +0.003 A 
ATOM     13  C   UNL     1       3.588  -7.460  -4.312  0.00  0.00    +0.010 A 
ATOM     14  C   UNL     1       4.404  -8.528  -4.527  0.00  0.00    +0.001 A 
ATOM     15  C   UNL     1       4.089  -9.786  -4.017  0.00  0.00    +0.001 A 
ATOM     16  C   UNL     1       2.961  -9.980  -3.280  0.00  0.00    +0.008 A 
ENDBRANCH   4   7
BRANCH   1  19
ATOM     17  C   UNL     1       0.689  -0.489  -1.248  0.00  0.00    +0.024 A 
ATOM     18  C   UNL     1       0.807  -1.782  -1.626  0.00  0.00    +0.047 A 
ATOM     19  C   UNL     1       1.528  -1.817  -2.831  0.00  0.00    +0.067 A 
ATOM     20  C   UNL     1       1.833  -0.502  -3.157  0.00  0.00    +0.146 A 
ATOM     21  N   UNL     1       1.299   0.301  -2.165  0.00  0.00    -0.351 N 
ATOM     22  H   UNL     1       1.353   1.269  -2.131  0.00  0.00    +0.166 HD
BRANCH  17  24
ATOM     23  C   UNL     1      -0.045   1.526  -0.003  0.00  0.00    +0.017 C 
ATOM     24  C   UNL     1      -0.016  -0.004  -0.007  0.00  0.00    +0.002 C 
ATOM     25  C   UNL     1       0.731  -0.503   1.232  0.00  0.00    +0.017 C 
ATOM     26  C   UNL     1      -1.448  -0.541   0.010  0.00  0.00    +0.017 C 
ENDBRANCH  17  24
BRANCH  20  27
ATOM     27  C   UNL     1       2.553  -0.064  -4.294  0.00  0.00    +0.357 C 
ATOM     28  O   UNL     1       2.969  -0.876  -5.100  0.00  0.00    -0.243 OA
BRANCH  27  29
ATOM     29  O   UNL     1       2.778   1.253  -4.485  0.00  0.00    -0.463 OA
ATOM     30  C   UNL     1       3.511   1.623  -5.654  0.00  0.00    +0.280 C 
ENDBRANCH  27  29
ENDBRANCH  20  27
ENDBRANCH   1  19
TORSDOF 5
