REMARK  Name = CHEMBL394599
REMARK  8 active torsions:
REMARK  status: ('A' for Active; 'I' for Inactive)
REMARK    1  A    between atoms: C_1  and  N_2
REMARK    2  A    between atoms: N_2  and  C_3
REMARK    3  A    between atoms: C_4  and  C_6
REMARK    4  A    between atoms: C_6  and  C_8
REMARK    5  A    between atoms: C_15  and  C_20
REMARK    6  A    between atoms: C_16  and  O_18
REMARK    7  A    between atoms: O_18  and  C_19
REMARK    8  A    between atoms: N_29  and  C_30
REMARK                            x       y       z     vdW  Elec       q    Type
REMARK                         _______ _______ _______ _____ _____    ______ ____
ROOT
ATOM      1  C   UNL     1      -3.865  -3.421   0.323  0.00  0.00    +0.053 A 
ATOM      2  C   UNL     1      -4.989  -2.634   0.160  0.00  0.00    +0.097 A 
ATOM      3  N   UNL     1      -6.082  -3.319   0.567  0.00  0.00    -0.345 N 
ATOM      4  H   UNL     1      -6.988  -2.972   0.547  0.00  0.00    +0.167 HD
ATOM      5  C   UNL     1      -5.737  -4.574   1.013  0.00  0.00    +0.143 A 
ATOM      6  C   UNL     1      -4.342  -4.703   0.879  0.00  0.00    +0.031 A 
ATOM      7  C   UNL     1      -3.716  -5.884   1.254  0.00  0.00    +0.030 A 
ATOM      8  C   UNL     1      -4.511  -6.920   1.756  0.00  0.00    +0.099 A 
ATOM      9  C   UNL     1      -5.899  -6.722   1.859  0.00  0.00    +0.229 A 
ATOM     10  N   UNL     1      -6.454  -5.581   1.498  0.00  0.00    -0.194 NA
ENDROOT
BRANCH   8  11
ATOM     11  C   UNL     1      -3.904  -8.198   2.169  0.00  0.00    +0.252 C 
ATOM     12  O   UNL     1      -4.138  -8.653   3.272  0.00  0.00    -0.270 OA
ATOM     13  N   UNL     1      -3.089  -8.861   1.325  0.00  0.00    -0.293 N 
ATOM     14  C   UNL     1      -2.551 -10.182   1.681  0.00  0.00    +0.114 C 
ATOM     15  C   UNL     1      -3.103 -11.230   0.705  0.00  0.00    +0.075 C 
ATOM     16  C   UNL     1      -3.000 -10.689  -0.698  0.00  0.00    +0.051 A 
ATOM     17  C   UNL     1      -2.833  -9.378  -1.007  0.00  0.00    +0.011 A 
ATOM     18  C   UNL     1      -2.788  -9.261  -2.394  0.00  0.00    +0.140 A 
ATOM     19  N   UNL     1      -2.921 -10.460  -2.908  0.00  0.00    -0.174 NA
ATOM     20  N   UNL     1      -3.054 -11.377  -1.855  0.00  0.00    -0.235 N 
ATOM     21  C   UNL     1      -2.720  -8.282   0.021  0.00  0.00    +0.146 C 
BRANCH  20  22
ATOM     22  C   UNL     1      -3.217 -12.764  -1.983  0.00  0.00    +0.084 A 
ATOM     23  C   UNL     1      -4.214 -13.417  -1.271  0.00  0.00    +0.029 A 
ATOM     24  C   UNL     1      -4.371 -14.783  -1.400  0.00  0.00    +0.002 A 
ATOM     25  C   UNL     1      -3.537 -15.502  -2.237  0.00  0.00    +0.002 A 
ATOM     26  C   UNL     1      -2.542 -14.855  -2.947  0.00  0.00    +0.022 A 
ATOM     27  C   UNL     1      -2.383 -13.487  -2.828  0.00  0.00    +0.066 A 
ATOM     28 CL   UNL     1      -1.140 -12.675  -3.726  0.00  0.00    -0.081 Cl
ENDBRANCH  20  22
ENDBRANCH   8  11
BRANCH   1  29
ATOM     29  C   UNL     1      -2.485  -3.060   0.005  0.00  0.00    +0.249 C 
ATOM     30  O   UNL     1      -1.588  -3.858   0.196  0.00  0.00    -0.282 OA
BRANCH  29  34
ATOM     31  C   UNL     1      -0.599  -0.075  -1.432  0.00  0.00    +0.132 C 
ATOM     32  N   UNL     1      -0.933  -1.432  -0.992  0.00  0.00    -0.301 N 
ATOM     33  C   UNL     1       0.086  -2.485  -1.027  0.00  0.00    +0.132 C 
ATOM     34  C   UNL     1      -2.176  -1.712  -0.554  0.00  0.00    +0.287 C 
ATOM     35  O   UNL     1      -3.045  -0.867  -0.615  0.00  0.00    -0.266 OA
ENDBRANCH  29  34
ENDBRANCH   1  29
BRANCH   9  36
ATOM     36  O   UNL     1      -6.679  -7.717   2.343  0.00  0.00    -0.479 OA
ATOM     37  C   UNL     1      -8.083  -7.460   2.426  0.00  0.00    +0.279 C 
ENDBRANCH   9  36
TORSDOF 5
