REMARK  Name = CHEMBL495290
REMARK  6 active torsions:
REMARK  status: ('A' for Active; 'I' for Inactive)
REMARK    1  A    between atoms: C_1  and  C_2
REMARK    2  A    between atoms: C_7  and  C_8
REMARK    3  A    between atoms: C_17  and  N_18
REMARK    4  A    between atoms: C_23  and  C_25
REMARK    5  A    between atoms: C_26  and  C_28
REMARK    6  A    between atoms: N_32  and  C_33
REMARK                            x       y       z     vdW  Elec       q    Type
REMARK                         _______ _______ _______ _____ _____    ______ ____
ROOT
ATOM      1  C   UNL     1       0.042  -0.064   2.379  0.00  0.00    -0.013 A 
ATOM      2  C   UNL     1       1.141   0.740   2.721  0.00  0.00    +0.009 A 
ATOM      3  C   UNL     1       1.168   1.424   3.897  0.00  0.00    +0.012 A 
ATOM      4  C   UNL     1       0.087   1.327   4.782  0.00  0.00    +0.023 A 
ATOM      5  C   UNL     1      -1.030   0.517   4.447  0.00  0.00    +0.006 A 
ATOM      6  C   UNL     1      -1.043  -0.175   3.232  0.00  0.00    +0.018 A 
ATOM      7  C   UNL     1      -2.092   0.452   5.369  0.00  0.00    +0.141 A 
ATOM      8  N   UNL     1      -2.010   1.134   6.488  0.00  0.00    -0.180 NA
ATOM      9  N   UNL     1      -1.006   1.867   6.796  0.00  0.00    -0.264 N 
ATOM     10  C   UNL     1       0.053   2.011   6.018  0.00  0.00    +0.123 A 
ATOM     11  H   UNL     1      -1.023   2.340   7.643  0.00  0.00    +0.190 HD
ENDROOT
BRANCH   1  18
ATOM     12  C   UNL     1       0.021   1.409  -0.099  0.00  0.00    +0.044 C 
ATOM     13  C   UNL     1       0.031  -0.097  -0.111  0.00  0.00    -0.039 A 
ATOM     14  C   UNL     1       0.036  -0.776  -1.318  0.00  0.00    +0.005 A 
ATOM     15  C   UNL     1       0.046  -2.154  -1.345  0.00  0.00    +0.015 A 
ATOM     16  C   UNL     1       0.051  -2.875  -0.150  0.00  0.00    +0.063 A 
ATOM     17  C   UNL     1       0.046  -2.198   1.077  0.00  0.00    +0.177 A 
ATOM     18  C   UNL     1       0.042  -0.797   1.090  0.00  0.00    +0.031 A 
ATOM     19  O   UNL     1       0.053  -3.131   2.050  0.00  0.00    -0.352 OA
ATOM     20  N   UNL     1       0.063  -4.418   1.468  0.00  0.00    -0.062 NA
ATOM     21  C   UNL     1       0.062  -4.311   0.168  0.00  0.00    +0.170 A 
ATOM     22  N   UNL     1       0.070  -5.356  -0.745  0.00  0.00    -0.323 N 
ATOM     23  H   UNL     1       0.068  -5.169  -1.696  0.00  0.00    +0.148 HD
BRANCH  22  24
ATOM     24  C   UNL     1       0.080  -6.742  -0.271  0.00  0.00    +0.072 C 
ATOM     25  C   UNL     1       1.024  -7.722  -0.972  0.00  0.00    +0.024 C 
ATOM     26  C   UNL     1      -0.485  -7.813  -1.206  0.00  0.00    +0.024 C 
ENDBRANCH  22  24
ENDBRANCH   1  18
BRANCH  10  27
ATOM     27  N   UNL     1       1.110   2.818   6.407  0.00  0.00    -0.309 N 
ATOM     28  C   UNL     1       2.180   2.287   7.262  0.00  0.00    +0.126 C 
ATOM     29  C   UNL     1       2.305   3.181   8.503  0.00  0.00    +0.126 C 
ATOM     30  N   UNL     1       2.375   4.582   8.067  0.00  0.00    -0.298 N 
ATOM     31  C   UNL     1       1.304   5.113   7.212  0.00  0.00    +0.130 C 
ATOM     32  C   UNL     1       1.183   4.218   5.966  0.00  0.00    +0.089 C 
ATOM     33  C   UNL     1      -0.086   4.580   5.193  0.00  0.00    +0.029 C 
ATOM     34  C   UNL     1       3.403   5.367   8.445  0.00  0.00    +0.213 C 
ATOM     35  O   UNL     1       3.404   6.546   8.158  0.00  0.00    -0.276 OA
ATOM     36  C   UNL     1       4.552   4.781   9.225  0.00  0.00    +0.109 C 
ENDBRANCH  10  27
TORSDOF 3
