REMARK  Name = CHEMBL408150
REMARK  10 active torsions:
REMARK  status: ('A' for Active; 'I' for Inactive)
REMARK    1  A    between atoms: C_1  and  C_2
REMARK    2  A    between atoms: C_5  and  N_31
REMARK    3  A    between atoms: C_7  and  N_8
REMARK    4  A    between atoms: C_11  and  C_30
REMARK    5  A    between atoms: C_12  and  C_18
REMARK    6  A    between atoms: N_20  and  C_21
REMARK    7  A    between atoms: C_21  and  C_23
REMARK    8  A    between atoms: C_21  and  C_24
REMARK    9  A    between atoms: C_32  and  C_34
REMARK   10  A    between atoms: C_38  and  N_40
REMARK                            x       y       z     vdW  Elec       q    Type
REMARK                         _______ _______ _______ _____ _____    ______ ____
ROOT
ATOM      1  N   UNL     1      -0.025   0.571   2.100  0.00  0.00    -0.297 N 
ATOM      2  C   UNL     1       0.249  -0.176   3.228  0.00  0.00    +0.151 A 
ATOM      3  C   UNL     1       0.354   0.451   4.494  0.00  0.00    +0.109 A 
ATOM      4  C   UNL     1       0.237   1.756   4.915  0.00  0.00    -0.008 A 
ATOM      5  C   UNL     1       0.449   1.755   6.309  0.00  0.00    +0.060 A 
ATOM      6  C   UNL     1       0.688   0.444   6.687  0.00  0.00    +0.126 A 
ATOM      7  N   UNL     1       0.631  -0.336   5.598  0.00  0.00    -0.234 N 
ATOM      8  N   UNL     1       0.793  -1.716   5.406  0.00  0.00    -0.155 NA
ATOM      9  C   UNL     1       0.682  -2.228   4.212  0.00  0.00    +0.245 A 
ATOM     10  N   UNL     1       0.412  -1.485   3.140  0.00  0.00    -0.217 NA
ATOM     11  C   UNL     1      -0.060   2.955   4.052  0.00  0.00    +0.047 C 
ATOM     12  H   UNL     1      -0.081   1.537   2.160  0.00  0.00    +0.154 HD
ENDROOT
BRANCH   1  19
ATOM     13  C   UNL     1       0.249   2.117  -0.271  0.00  0.00    +0.045 C 
ATOM     14  C   UNL     1      -0.100   0.651  -0.312  0.00  0.00    -0.029 A 
ATOM     15  C   UNL     1      -0.290   0.022  -1.527  0.00  0.00    +0.007 A 
ATOM     16  C   UNL     1      -0.610  -1.322  -1.569  0.00  0.00    +0.024 A 
ATOM     17  C   UNL     1      -0.741  -2.044  -0.389  0.00  0.00    +0.035 A 
ATOM     18  C   UNL     1      -0.550  -1.415   0.832  0.00  0.00    +0.046 A 
ATOM     19  C   UNL     1      -0.224  -0.066   0.871  0.00  0.00    +0.037 A 
BRANCH  17  20
ATOM     20  N   UNL     1      -1.065  -3.404  -0.433  0.00  0.00    -0.281 N 
ATOM     21  C   UNL     1      -0.669  -4.157  -1.478  0.00  0.00    +0.248 C 
ATOM     22  O   UNL     1       0.048  -3.679  -2.335  0.00  0.00    -0.270 OA
ATOM     23  H   UNL     1      -1.574  -3.804   0.288  0.00  0.00    +0.155 HD
BRANCH  21  24
ATOM     24  C   UNL     1      -1.106  -5.566  -1.581  0.00  0.00    +0.039 A 
ATOM     25  C   UNL     1      -1.934  -6.116  -0.601  0.00  0.00    +0.013 A 
ATOM     26  C   UNL     1      -2.341  -7.431  -0.699  0.00  0.00    +0.003 A 
ATOM     27  C   UNL     1      -1.932  -8.208  -1.767  0.00  0.00    +0.023 A 
ATOM     28  C   UNL     1      -1.108  -7.670  -2.748  0.00  0.00    +0.031 A 
ATOM     29  C   UNL     1      -0.698  -6.348  -2.661  0.00  0.00    +0.036 A 
BRANCH  28  30
ATOM     30  N   UNL     1      -0.697  -8.459  -3.825  0.00  0.00    -0.325 N 
ATOM     31  C   UNL     1       0.271  -7.952  -4.811  0.00  0.00    +0.133 C 
ATOM     32  C   UNL     1       1.385  -8.991  -4.974  0.00  0.00    +0.178 C 
ATOM     33  O   UNL     1       0.803 -10.266  -5.255  0.00  0.00    -0.377 OA
ATOM     34  C   UNL     1      -0.031 -10.772  -4.209  0.00  0.00    +0.178 C 
ATOM     35  C   UNL     1      -1.214  -9.825  -4.004  0.00  0.00    +0.133 C 
ENDBRANCH  28  30
ENDBRANCH  21  24
ENDBRANCH  17  20
ENDBRANCH   1  19
BRANCH   5  36
ATOM     36  C   UNL     1       0.421   2.930   7.199  0.00  0.00    +0.246 C 
ATOM     37  O   UNL     1       0.199   4.035   6.741  0.00  0.00    -0.270 OA
ATOM     38  N   UNL     1       0.642   2.781   8.520  0.00  0.00    -0.305 N 
ATOM     39  H   UNL     1       0.820   1.900   8.886  0.00  0.00    +0.150 HD
BRANCH  38  40
ATOM     40  C   UNL     1       0.615   3.949   9.404  0.00  0.00    +0.100 C 
ATOM     41  C   UNL     1      -0.827   4.235   9.827  0.00  0.00    +0.033 C 
BRANCH  40  42
ATOM     42  C   UNL     1       1.452   3.673  10.627  0.00  0.00    -0.027 A 
ATOM     43  C   UNL     1       1.420   2.424  11.219  0.00  0.00    +0.005 A 
ATOM     44  C   UNL     1       2.187   2.171  12.341  0.00  0.00    +0.000 A 
ATOM     45  C   UNL     1       2.987   3.167  12.870  0.00  0.00    +0.000 A 
ATOM     46  C   UNL     1       3.020   4.415  12.277  0.00  0.00    +0.000 A 
ATOM     47  C   UNL     1       2.255   4.667  11.153  0.00  0.00    +0.005 A 
ENDBRANCH  40  42
ENDBRANCH  38  40
ENDBRANCH   5  36
TORSDOF 7
