REMARK  Name = CHEMBL371756
REMARK  6 active torsions:
REMARK  status: ('A' for Active; 'I' for Inactive)
REMARK    1  A    between atoms: C_1  and  O_2
REMARK    2  A    between atoms: O_2  and  C_3
REMARK    3  A    between atoms: C_6  and  C_28
REMARK    4  A    between atoms: C_8  and  C_9
REMARK    5  A    between atoms: N_19  and  C_20
REMARK    6  A    between atoms: N_30  and  C_31
REMARK                            x       y       z     vdW  Elec       q    Type
REMARK                         _______ _______ _______ _____ _____    ______ ____
ROOT
ATOM      1  C   UNL     1       0.087  -2.686   0.085  0.00  0.00    +0.079 A 
ATOM      2  C   UNL     1      -1.268  -2.764   0.408  0.00  0.00    +0.046 A 
ATOM      3  C   UNL     1      -2.421  -2.045   0.035  0.00  0.00    +0.017 A 
ATOM      4  C   UNL     1      -3.615  -2.419   0.572  0.00  0.00    +0.044 A 
ATOM      5  C   UNL     1      -3.687  -3.491   1.473  0.00  0.00    +0.125 A 
ATOM      6  N   UNL     1      -2.626  -4.177   1.838  0.00  0.00    -0.211 NA
ATOM      7  C   UNL     1      -1.407  -3.878   1.356  0.00  0.00    +0.183 A 
ATOM      8  N   UNL     1      -0.198  -4.378   1.538  0.00  0.00    -0.153 NA
ATOM      9  N   UNL     1       0.722  -3.663   0.763  0.00  0.00    -0.274 N 
ATOM     10  H   UNL     1       1.674  -3.843   0.723  0.00  0.00    +0.189 HD
ATOM     11  N   UNL     1      -4.922  -3.841   1.999  0.00  0.00    -0.297 N 
ATOM     12  H   UNL     1      -5.728  -3.410   1.673  0.00  0.00    +0.154 HD
ENDROOT
BRANCH  11  13
ATOM     13  C   UNL     1      -5.006  -4.815   3.002  0.00  0.00    +0.068 A 
ATOM     14  C   UNL     1      -3.974  -4.960   3.918  0.00  0.00    +0.029 A 
ATOM     15  C   UNL     1      -4.059  -5.921   4.907  0.00  0.00    +0.040 A 
ATOM     16  C   UNL     1      -5.172  -6.741   4.984  0.00  0.00    +0.126 A 
ATOM     17  C   UNL     1      -6.204  -6.599   4.072  0.00  0.00    +0.078 A 
ATOM     18  C   UNL     1      -6.127  -5.634   3.084  0.00  0.00    +0.147 A 
ATOM     19  F   UNL     1      -7.136  -5.492   2.197  0.00  0.00    -0.203 F 
ATOM     20  F   UNL     1      -5.252  -7.681   5.952  0.00  0.00    -0.205 F 
ENDBRANCH  11  13
BRANCH   1  26
ATOM     21  C   UNL     1       0.715  -0.348  -0.521  0.00  0.00    +0.129 A 
ATOM     22  C   UNL     1       1.307   0.561  -1.387  0.00  0.00    +0.047 A 
ATOM     23  C   UNL     1       1.887   0.128  -2.559  0.00  0.00    +0.016 A 
ATOM     24  C   UNL     1       1.883  -1.232  -2.886  0.00  0.00    +0.038 A 
ATOM     25  C   UNL     1       1.291  -2.154  -2.024  0.00  0.00    +0.026 A 
ATOM     26  C   UNL     1       0.711  -1.716  -0.836  0.00  0.00    +0.043 A 
BRANCH  24  27
ATOM     27  C   UNL     1       2.505  -1.691  -4.144  0.00  0.00    +0.244 C 
ATOM     28  O   UNL     1       2.502  -2.873  -4.428  0.00  0.00    -0.270 OA
ATOM     29  N   UNL     1       3.077  -0.799  -4.977  0.00  0.00    -0.308 N 
ATOM     30  H   UNL     1       3.080   0.144  -4.750  0.00  0.00    +0.149 HD
BRANCH  29  31
ATOM     31  C   UNL     1       3.695  -1.254  -6.225  0.00  0.00    +0.073 C 
ATOM     32  C   UNL     1       5.168  -1.639  -5.977  0.00  0.00    +0.022 C 
ATOM     33  C   UNL     1       5.904  -1.171  -7.257  0.00  0.00    +0.002 C 
ATOM     34  C   UNL     1       5.186   0.160  -7.596  0.00  0.00    +0.002 C 
ATOM     35  C   UNL     1       3.707  -0.111  -7.255  0.00  0.00    +0.022 C 
ENDBRANCH  29  31
ENDBRANCH  24  27
BRANCH  21  37
ATOM     36  C   UNL     1       0.187   1.489   0.888  0.00  0.00    +0.277 C 
ATOM     37  O   UNL     1       0.146   0.084   0.631  0.00  0.00    -0.494 OA
ENDBRANCH  21  37
ENDBRANCH   1  26
TORSDOF 5
