REMARK  Name = CHEMBL371145
REMARK  11 active torsions:
REMARK  status: ('A' for Active; 'I' for Inactive)
REMARK    1  A    between atoms: C_1  and  C_2
REMARK    2  A    between atoms: C_2  and  C_3
REMARK    3  A    between atoms: C_2  and  C_4
REMARK    4  A    between atoms: C_4  and  N_5
REMARK    5  A    between atoms: C_8  and  C_11
REMARK    6  A    between atoms: C_14  and  C_33
REMARK    7  A    between atoms: C_15  and  C_17
REMARK    8  A    between atoms: N_23  and  S_27
REMARK    9  A    between atoms: S_27  and  C_30
REMARK   10  A    between atoms: C_30  and  C_31
REMARK   11  A    between atoms: C_30  and  C_32
REMARK                            x       y       z     vdW  Elec       q    Type
REMARK                         _______ _______ _______ _____ _____    ______ ____
ROOT
ATOM      1  C   UNL     1      -4.559   1.046  -4.421  0.00  0.00    +0.111 A 
ATOM      2  N   UNL     1      -4.331   0.266  -5.500  0.00  0.00    -0.341 N 
ATOM      3  H   UNL     1      -3.702  -0.471  -5.554  0.00  0.00    +0.167 HD
ATOM      4  C   UNL     1      -5.156   0.710  -6.509  0.00  0.00    +0.074 A 
ATOM      5  C   UNL     1      -5.870   1.771  -5.984  0.00  0.00    +0.097 A 
ATOM      6  N   UNL     1      -5.473   1.930  -4.707  0.00  0.00    -0.232 NA
ENDROOT
BRANCH   5   7
ATOM      7  C   UNL     1      -6.889   2.579  -6.693  0.00  0.00    +0.005 A 
ATOM      8  C   UNL     1      -7.824   1.952  -7.522  0.00  0.00    +0.012 A 
ATOM      9  C   UNL     1      -8.767   2.685  -8.181  0.00  0.00    +0.030 A 
ATOM     10  C   UNL     1      -8.806   4.075  -8.031  0.00  0.00    +0.093 A 
ATOM     11  C   UNL     1      -7.868   4.711  -7.199  0.00  0.00    +0.094 A 
ATOM     12  C   UNL     1      -6.917   3.962  -6.528  0.00  0.00    +0.040 A 
ATOM     13  N   UNL     1      -8.159   6.065  -7.255  0.00  0.00    -0.183 N 
ATOM     14  C   UNL     1      -9.228   6.214  -8.091  0.00  0.00    +0.214 A 
ATOM     15  N   UNL     1      -9.606   5.045  -8.545  0.00  0.00    -0.213 NA
ATOM     16  N   UNL     1      -9.823   7.417  -8.410  0.00  0.00    -0.328 N 
ATOM     17  H   UNL     1      -9.482   8.242  -8.029  0.00  0.00    +0.145 HD
ATOM     18  H   UNL     1     -10.581   7.438  -9.014  0.00  0.00    +0.145 HD
BRANCH  13  19
ATOM     19  S   UNL     1      -7.359   7.275  -6.457  0.00  0.00    +0.060 S 
ATOM     20  O   UNL     1      -8.320   8.313  -6.315  0.00  0.00    -0.153 OA
ATOM     21  O   UNL     1      -6.798   6.646  -5.313  0.00  0.00    -0.153 OA
BRANCH  19  22
ATOM     22  C   UNL     1      -6.043   7.793  -7.594  0.00  0.00    +0.148 C 
ATOM     23  C   UNL     1      -6.665   8.291  -8.900  0.00  0.00    +0.033 C 
ATOM     24  C   UNL     1      -5.231   8.921  -6.954  0.00  0.00    +0.033 C 
ENDBRANCH  19  22
ENDBRANCH  13  19
ENDBRANCH   5   7
BRANCH   1  28
ATOM     25  N   UNL     1      -1.543   0.043  -1.594  0.00  0.00    +0.380 N 
ATOM     26  C   UNL     1      -1.812   1.472  -1.790  0.00  0.00    -0.078 C 
ATOM     27  C   UNL     1      -2.545   1.680  -3.117  0.00  0.00    -0.008 C 
ATOM     28  C   UNL     1      -3.868   0.909  -3.089  0.00  0.00    +0.052 C 
ATOM     29  C   UNL     1      -3.581  -0.569  -2.809  0.00  0.00    -0.008 C 
ATOM     30  C   UNL     1      -2.809  -0.693  -1.494  0.00  0.00    -0.078 C 
ATOM     31  H   UNL     1      -1.012  -0.308  -2.377  0.00  0.00    -0.082 HD
BRANCH  25  32
ATOM     32  C   UNL     1      -0.771  -0.144  -0.358  0.00  0.00    -0.076 C 
BRANCH  32  34
ATOM     33  C   UNL     1       1.370   0.404   0.807  0.00  0.00    +0.005 C 
ATOM     34  C   UNL     1       0.608   0.498  -0.516  0.00  0.00    -0.034 C 
ATOM     35  C   UNL     1       1.390  -0.235  -1.608  0.00  0.00    +0.005 C 
ENDBRANCH  32  34
ENDBRANCH  25  32
ENDBRANCH   1  28
BRANCH   4  36
ATOM     36  C   UNL     1      -5.256   0.163  -7.877  0.00  0.00    +0.000 A 
ATOM     37  C   UNL     1      -5.228   1.021  -8.979  0.00  0.00    +0.010 A 
ATOM     38  C   UNL     1      -5.322   0.503 -10.254  0.00  0.00    +0.001 A 
ATOM     39  C   UNL     1      -5.444  -0.862 -10.443  0.00  0.00    +0.000 A 
ATOM     40  C   UNL     1      -5.473  -1.718  -9.356  0.00  0.00    +0.001 A 
ATOM     41  C   UNL     1      -5.374  -1.214  -8.075  0.00  0.00    +0.010 A 
ENDBRANCH   4  36
TORSDOF 7
