REMARK  Name = CHEMBL386807
REMARK  2 active torsions:
REMARK  status: ('A' for Active; 'I' for Inactive)
REMARK    1  A    between atoms: C_6  and  C_7
REMARK    2  A    between atoms: C_8  and  C_12
REMARK                            x       y       z     vdW  Elec       q    Type
REMARK                         _______ _______ _______ _____ _____    ______ ____
ROOT
ATOM      1  C   UNL     1      -0.731  -2.810  -1.562  0.00  0.00    +0.036 A 
ATOM      2  C   UNL     1       0.682  -2.469  -1.737  0.00  0.00    +0.017 A 
ATOM      3  C   UNL     1       1.449  -3.232  -2.555  0.00  0.00    +0.049 A 
ATOM      4  C   UNL     1       0.873  -4.336  -3.219  0.00  0.00    +0.162 A 
ATOM      5  N   UNL     1       1.362  -5.235  -4.055  0.00  0.00    -0.128 NA
ATOM      6  N   UNL     1       0.435  -6.058  -4.397  0.00  0.00    -0.112 NA
ATOM      7  C   UNL     1      -0.695  -5.742  -3.808  0.00  0.00    +0.224 A 
ATOM      8  N   UNL     1      -0.459  -4.639  -3.040  0.00  0.00    -0.270 N 
ATOM      9  C   UNL     1      -1.248  -3.888  -2.217  0.00  0.00    +0.107 A 
ATOM     10  N   UNL     1      -1.909  -6.408  -3.943  0.00  0.00    -0.299 N 
ATOM     11  C   UNL     1      -3.168  -6.036  -3.281  0.00  0.00    +0.108 C 
ATOM     12  C   UNL     1      -4.232  -7.071  -3.705  0.00  0.00    +0.020 C 
ATOM     13  C   UNL     1      -3.377  -8.293  -4.133  0.00  0.00    +0.020 C 
ATOM     14  C   UNL     1      -2.148  -7.599  -4.778  0.00  0.00    +0.108 C 
ENDROOT
BRANCH   1  16
ATOM     15  C   UNL     1      -1.854  -0.648  -0.797  0.00  0.00    +0.117 A 
ATOM     16  C   UNL     1      -1.587  -1.996  -0.677  0.00  0.00    +0.164 A 
ATOM     17  O   UNL     1      -2.265  -2.425   0.410  0.00  0.00    -0.442 OA
ATOM     18  C   UNL     1      -2.919  -1.378   0.931  0.00  0.00    +0.309 A 
ATOM     19  N   UNL     1      -2.675  -0.315   0.221  0.00  0.00    -0.216 NA
BRANCH  15  25
ATOM     20  C   UNL     1      -1.259  -0.163  -3.169  0.00  0.00    +0.013 A 
ATOM     21  C   UNL     1      -0.773   0.689  -4.139  0.00  0.00    +0.039 A 
ATOM     22  C   UNL     1      -0.359   1.967  -3.798  0.00  0.00    +0.123 A 
ATOM     23  C   UNL     1      -0.430   2.395  -2.482  0.00  0.00    +0.039 A 
ATOM     24  C   UNL     1      -0.915   1.550  -1.504  0.00  0.00    +0.013 A 
ATOM     25  C   UNL     1      -1.333   0.263  -1.843  0.00  0.00    +0.004 A 
ATOM     26  F   UNL     1       0.116   2.797  -4.751  0.00  0.00    -0.205 F 
ENDBRANCH  15  25
ENDBRANCH   1  16
TORSDOF 2
