REMARK  Name = CHEMBL271272
REMARK  10 active torsions:
REMARK  status: ('A' for Active; 'I' for Inactive)
REMARK    1  A    between atoms: C_1  and  C_2
REMARK    2  A    between atoms: C_5  and  C_29
REMARK    3  A    between atoms: C_7  and  C_8
REMARK    4  A    between atoms: C_11  and  C_14
REMARK    5  A    between atoms: N_16  and  C_17
REMARK    6  A    between atoms: C_17  and  C_18
REMARK    7  A    between atoms: C_21  and  N_24
REMARK    8  A    between atoms: N_24  and  S_25
REMARK    9  A    between atoms: S_25  and  C_28
REMARK   10  A    between atoms: C_32  and  C_34
REMARK                            x       y       z     vdW  Elec       q    Type
REMARK                         _______ _______ _______ _____ _____    ______ ____
ROOT
ATOM      1  C   UNL     1       0.025   0.029   2.495  0.00  0.00    -0.018 A 
ATOM      2  C   UNL     1       0.934   1.065   2.705  0.00  0.00    +0.009 A 
ATOM      3  C   UNL     1       0.937   1.749   3.900  0.00  0.00    +0.013 A 
ATOM      4  C   UNL     1       0.028   1.403   4.903  0.00  0.00    +0.037 A 
ATOM      5  C   UNL     1      -0.883   0.365   4.692  0.00  0.00    +0.013 A 
ATOM      6  C   UNL     1      -0.887  -0.313   3.494  0.00  0.00    +0.009 A 
ENDROOT
BRANCH   1  13
ATOM      7  C   UNL     1      -0.018   1.503   0.010  0.00  0.00    +0.044 C 
ATOM      8  C   UNL     1       0.002  -0.004   0.002  0.00  0.00    -0.043 A 
ATOM      9  C   UNL     1       0.006  -0.686  -1.199  0.00  0.00    +0.005 A 
ATOM     10  C   UNL     1       0.024  -2.067  -1.215  0.00  0.00    +0.013 A 
ATOM     11  C   UNL     1       0.040  -2.781  -0.016  0.00  0.00    +0.039 A 
ATOM     12  C   UNL     1       0.037  -2.098   1.198  0.00  0.00    +0.022 A 
ATOM     13  C   UNL     1       0.023  -0.706   1.207  0.00  0.00    -0.014 A 
BRANCH  11  14
ATOM     14  C   UNL     1       0.060  -4.260  -0.034  0.00  0.00    +0.248 A 
ATOM     15  N   UNL     1       0.070  -5.051   1.013  0.00  0.00    -0.107 NA
ATOM     16  N   UNL     1       0.086  -6.276   0.619  0.00  0.00    -0.112 NA
ATOM     17  C   UNL     1       0.087  -6.314  -0.684  0.00  0.00    +0.215 A 
ATOM     18  O   UNL     1       0.064  -5.046  -1.129  0.00  0.00    -0.421 OA
ATOM     19  C   UNL     1       0.103  -7.556  -1.538  0.00  0.00    +0.111 C 
ENDBRANCH  11  14
ENDBRANCH   1  13
BRANCH   4  20
ATOM     20  C   UNL     1       0.030   2.135   6.186  0.00  0.00    +0.244 C 
ATOM     21  O   UNL     1       0.823   3.038   6.370  0.00  0.00    -0.270 OA
ATOM     22  N   UNL     1      -0.848   1.802   7.153  0.00  0.00    -0.307 N 
ATOM     23  H   UNL     1      -1.480   1.081   7.007  0.00  0.00    +0.149 HD
BRANCH  22  24
ATOM     24  C   UNL     1      -0.846   2.528   8.426  0.00  0.00    +0.139 C 
BRANCH  24  25
ATOM     25  C   UNL     1      -1.914   1.964   9.327  0.00  0.00    -0.030 A 
ATOM     26  C   UNL     1      -3.194   2.487   9.290  0.00  0.00    +0.007 A 
ATOM     27  C   UNL     1      -4.175   1.973  10.115  0.00  0.00    +0.027 A 
ATOM     28  C   UNL     1      -3.875   0.930  10.982  0.00  0.00    +0.074 A 
ATOM     29  C   UNL     1      -2.589   0.408  11.017  0.00  0.00    +0.027 A 
ATOM     30  C   UNL     1      -1.613   0.923  10.186  0.00  0.00    +0.007 A 
BRANCH  28  31
ATOM     31  N   UNL     1      -4.865   0.408  11.818  0.00  0.00    -0.103 NA
BRANCH  31  32
ATOM     32  S   UNL     1      -4.506  -0.835  12.851  0.00  0.00    +0.059 S 
ATOM     33  O   UNL     1      -4.166  -1.924  12.004  0.00  0.00    -0.154 OA
ATOM     34  O   UNL     1      -3.551  -0.292  13.752  0.00  0.00    -0.154 OA
ATOM     35  C   UNL     1      -6.059  -1.181  13.722  0.00  0.00    +0.220 C 
ENDBRANCH  31  32
ENDBRANCH  28  31
ENDBRANCH  24  25
ENDBRANCH  22  24
ENDBRANCH   4  20
TORSDOF 7
