REMARK  Name = CHEMBL104749
REMARK  11 active torsions:
REMARK  status: ('A' for Active; 'I' for Inactive)
REMARK    1  A    between atoms: C_1  and  C_2
REMARK    2  A    between atoms: C_2  and  C_3
REMARK    3  A    between atoms: C_2  and  C_4
REMARK    4  A    between atoms: C_2  and  C_5
REMARK    5  A    between atoms: C_7  and  N_11
REMARK    6  A    between atoms: N_8  and  C_10
REMARK    7  A    between atoms: N_14  and  C_15
REMARK    8  A    between atoms: C_18  and  O_25
REMARK    9  A    between atoms: O_25  and  C_26
REMARK   10  A    between atoms: C_26  and  C_27
REMARK   11  A    between atoms: C_27  and  N_28
REMARK                            x       y       z     vdW  Elec       q    Type
REMARK                         _______ _______ _______ _____ _____    ______ ____
ROOT
ATOM      1  C   UNL     1       7.173  -0.397  -2.796  0.00  0.00    +0.043 A 
ATOM      2  C   UNL     1       7.129   0.027  -1.486  0.00  0.00    +0.027 A 
ATOM      3  C   UNL     1       8.274   0.494  -0.849  0.00  0.00    +0.048 A 
ATOM      4  C   UNL     1       9.472   0.546  -1.504  0.00  0.00    +0.128 A 
ATOM      5  C   UNL     1       9.557   0.122  -2.845  0.00  0.00    +0.026 A 
ATOM      6  C   UNL     1       8.396  -0.361  -3.498  0.00  0.00    +0.007 A 
ATOM      7  C   UNL     1       8.483  -0.789  -4.832  0.00  0.00    +0.010 A 
ATOM      8  C   UNL     1       9.680  -0.740  -5.479  0.00  0.00    +0.001 A 
ATOM      9  C   UNL     1      10.823  -0.271  -4.835  0.00  0.00    +0.001 A 
ATOM     10  C   UNL     1      10.774   0.163  -3.546  0.00  0.00    +0.012 A 
ENDROOT
BRANCH   1  14
ATOM     11  N   UNL     1       3.714  -0.707  -3.793  0.00  0.00    -0.254 N 
ATOM     12  C   UNL     1       4.817  -0.326  -3.119  0.00  0.00    +0.309 C 
ATOM     13  O   UNL     1       4.732   0.504  -2.234  0.00  0.00    -0.252 OA
ATOM     14  N   UNL     1       6.013  -0.865  -3.424  0.00  0.00    -0.269 N 
ATOM     15  H   UNL     1       3.781  -1.370  -4.498  0.00  0.00    +0.158 HD
ATOM     16  H   UNL     1       6.071  -1.578  -4.080  0.00  0.00    +0.156 HD
BRANCH  11  19
ATOM     17  C   UNL     1       0.868   1.070  -2.528  0.00  0.00    +0.070 A 
ATOM     18  C   UNL     1       2.236   0.785  -2.516  0.00  0.00    +0.069 A 
ATOM     19  C   UNL     1       2.475  -0.149  -3.476  0.00  0.00    +0.124 A 
ATOM     20  N   UNL     1       1.294  -0.438  -4.068  0.00  0.00    -0.253 N 
ATOM     21  N   UNL     1       0.302   0.336  -3.451  0.00  0.00    -0.174 NA
ATOM     22  C   UNL     1       1.087  -1.395  -5.158  0.00  0.00    +0.174 C 
BRANCH  17  24
ATOM     23  C   UNL     1       0.462   3.478  -2.092  0.00  0.00    +0.017 C 
ATOM     24  C   UNL     1       0.163   2.051  -1.627  0.00  0.00    +0.006 C 
ATOM     25  C   UNL     1       0.656   1.869  -0.190  0.00  0.00    +0.017 C 
ATOM     26  C   UNL     1      -1.346   1.802  -1.683  0.00  0.00    +0.017 C 
ENDBRANCH  17  24
ENDBRANCH  11  19
ENDBRANCH   1  14
BRANCH   4  27
ATOM     27  O   UNL     1      10.579   1.008  -0.864  0.00  0.00    -0.490 OA
BRANCH  27  28
ATOM     28  C   UNL     1      10.418   1.421   0.494  0.00  0.00    +0.244 C 
BRANCH  28  29
ATOM     29  C   UNL     1      11.762   1.905   1.042  0.00  0.00    +0.125 C 
BRANCH  29  30
ATOM     30  N   UNL     1      12.198   3.092   0.293  0.00  0.00    -0.295 NA
ATOM     31  C   UNL     1      13.589   3.438   0.618  0.00  0.00    +0.112 C 
ATOM     32  C   UNL     1      14.021   4.640  -0.226  0.00  0.00    +0.175 C 
ATOM     33  O   UNL     1      13.123   5.728   0.009  0.00  0.00    -0.377 OA
ATOM     34  C   UNL     1      11.759   5.426  -0.297  0.00  0.00    +0.175 C 
ATOM     35  C   UNL     1      11.305   4.232   0.546  0.00  0.00    +0.112 C 
ENDBRANCH  29  30
ENDBRANCH  28  29
ENDBRANCH  27  28
ENDBRANCH   4  27
TORSDOF 7
