REMARK  Name = CHEMBL97550
REMARK  4 active torsions:
REMARK  status: ('A' for Active; 'I' for Inactive)
REMARK    1  A    between atoms: C_4  and  N_7
REMARK    2  A    between atoms: C_12  and  C_14
REMARK    3  A    between atoms: C_15  and  C_25
REMARK    4  A    between atoms: N_18  and  C_19
REMARK                            x       y       z     vdW  Elec       q    Type
REMARK                         _______ _______ _______ _____ _____    ______ ____
ROOT
ATOM      1  C   UNL     1       6.161  -4.683   0.318  0.00  0.00    +0.093 A 
ATOM      2  C   UNL     1       7.401  -4.177  -0.031  0.00  0.00    +0.073 A 
ATOM      3  N   UNL     1       8.315  -5.121   0.254  0.00  0.00    -0.345 N 
ATOM      4  C   UNL     1       7.719  -6.169   0.753  0.00  0.00    +0.175 A 
ATOM      5  N   UNL     1       6.390  -5.946   0.818  0.00  0.00    -0.327 N 
ATOM      6  H   UNL     1       9.270  -5.036   0.111  0.00  0.00    +0.167 HD
ENDROOT
BRANCH   1  12
ATOM      7  N   UNL     1       3.557  -0.684   0.199  0.00  0.00    -0.284 N 
ATOM      8  C   UNL     1       3.607  -2.067   0.131  0.00  0.00    +0.220 A 
ATOM      9  N   UNL     1       2.484  -2.746  -0.051  0.00  0.00    -0.223 NA
ATOM     10  C   UNL     1       2.488  -4.069  -0.123  0.00  0.00    +0.116 A 
ATOM     11  C   UNL     1       3.685  -4.749  -0.006  0.00  0.00    +0.050 A 
ATOM     12  C   UNL     1       4.858  -4.006   0.186  0.00  0.00    +0.094 A 
ATOM     13  N   UNL     1       4.777  -2.675   0.244  0.00  0.00    -0.213 NA
ATOM     14  H   UNL     1       4.378  -0.171   0.246  0.00  0.00    +0.155 HD
BRANCH   7  18
ATOM     15  C   UNL     1      -0.123   1.267   0.206  0.00  0.00    +0.000 A 
ATOM     16  C   UNL     1       0.003   0.030   0.811  0.00  0.00    +0.002 A 
ATOM     17  C   UNL     1       1.222  -0.620   0.811  0.00  0.00    +0.023 A 
ATOM     18  C   UNL     1       2.321  -0.030   0.202  0.00  0.00    +0.034 A 
ATOM     19  C   UNL     1       2.191   1.213  -0.405  0.00  0.00    +0.023 A 
ATOM     20  C   UNL     1       0.970   1.858  -0.401  0.00  0.00    +0.002 A 
ENDBRANCH   7  18
ENDBRANCH   1  12
BRANCH   5  21
ATOM     21  C   UNL     1       5.378  -6.877   1.323  0.00  0.00    +0.085 C 
ATOM     22  C   UNL     1       5.766  -7.340   2.731  0.00  0.00    +0.006 C 
ATOM     23  C   UNL     1       4.747  -8.372   3.221  0.00  0.00    -0.081 C 
ATOM     24  N   UNL     1       4.735  -9.523   2.311  0.00  0.00    +0.379 N 
ATOM     25  C   UNL     1       4.295  -9.099   0.977  0.00  0.00    -0.081 C 
ATOM     26  C   UNL     1       5.296  -8.096   0.400  0.00  0.00    +0.006 C 
ATOM     27  H   UNL     1       5.665  -9.912   2.250  0.00  0.00    -0.086 HD
ATOM     28  H   UNL     1       4.102 -10.224   2.666  0.00  0.00    -0.086 HD
ENDBRANCH   5  21
BRANCH   2  29
ATOM     29  C   UNL     1       7.671  -2.841  -0.612  0.00  0.00    +0.001 A 
ATOM     30  C   UNL     1       6.873  -2.353  -1.646  0.00  0.00    +0.013 A 
ATOM     31  C   UNL     1       7.129  -1.108  -2.183  0.00  0.00    +0.039 A 
ATOM     32  C   UNL     1       8.177  -0.344  -1.697  0.00  0.00    +0.123 A 
ATOM     33  C   UNL     1       8.974  -0.824  -0.670  0.00  0.00    +0.039 A 
ATOM     34  C   UNL     1       8.722  -2.065  -0.122  0.00  0.00    +0.013 A 
ATOM     35  F   UNL     1       8.424   0.875  -2.227  0.00  0.00    -0.205 F 
ENDBRANCH   2  29
TORSDOF 4
