REMARK  Name = CHEMBL211628
REMARK  4 active torsions:
REMARK  status: ('A' for Active; 'I' for Inactive)
REMARK    1  A    between atoms: C_1  and  C_2
REMARK    2  A    between atoms: C_2  and  C_5
REMARK    3  A    between atoms: C_11  and  C_14
REMARK    4  A    between atoms: C_15  and  C_19
REMARK                            x       y       z     vdW  Elec       q    Type
REMARK                         _______ _______ _______ _____ _____    ______ ____
ROOT
ATOM      1  C   UNL     1       0.722  -0.825  -1.975  0.00  0.00    +0.144 A 
ATOM      2  N   UNL     1       1.238  -1.988  -2.279  0.00  0.00    -0.133 NA
ATOM      3  N   UNL     1       0.901  -2.328  -3.473  0.00  0.00    -0.129 NA
ATOM      4  C   UNL     1       0.141  -1.384  -4.003  0.00  0.00    +0.161 A 
ATOM      5  N   UNL     1       0.005  -0.402  -3.052  0.00  0.00    -0.285 N 
ATOM      6  C   UNL     1      -0.737   0.712  -3.307  0.00  0.00    +0.106 A 
ATOM      7  C   UNL     1      -1.359   0.866  -4.511  0.00  0.00    +0.036 A 
ATOM      8  C   UNL     1      -1.236  -0.136  -5.506  0.00  0.00    +0.017 A 
ATOM      9  C   UNL     1      -0.490  -1.242  -5.256  0.00  0.00    +0.049 A 
ENDROOT
BRANCH   7  10
ATOM     10  C   UNL     1      -2.162   2.076  -4.778  0.00  0.00    +0.164 A 
ATOM     11  C   UNL     1      -3.495   2.121  -5.129  0.00  0.00    +0.120 A 
ATOM     12  N   UNL     1      -3.821   3.423  -5.275  0.00  0.00    -0.215 NA
ATOM     13  C   UNL     1      -2.770   4.150  -5.034  0.00  0.00    +0.309 A 
ATOM     14  O   UNL     1      -1.737   3.357  -4.720  0.00  0.00    -0.442 OA
BRANCH  11  15
ATOM     15  C   UNL     1      -4.398   0.961  -5.312  0.00  0.00    +0.039 A 
ATOM     16  C   UNL     1      -4.434  -0.055  -4.356  0.00  0.00    +0.016 A 
ATOM     17  C   UNL     1      -5.277  -1.134  -4.531  0.00  0.00    +0.039 A 
ATOM     18  C   UNL     1      -6.086  -1.210  -5.653  0.00  0.00    +0.126 A 
ATOM     19  C   UNL     1      -6.055  -0.206  -6.606  0.00  0.00    +0.077 A 
ATOM     20  C   UNL     1      -5.220   0.882  -6.438  0.00  0.00    +0.135 A 
ATOM     21  F   UNL     1      -5.194   1.866  -7.364  0.00  0.00    -0.205 F 
ATOM     22  F   UNL     1      -6.909  -2.270  -5.818  0.00  0.00    -0.205 F 
ENDBRANCH  11  15
ENDBRANCH   7  10
BRANCH   1  24
ATOM     23  C   UNL     1      -0.387   0.070   0.162  0.00  0.00    +0.019 C 
ATOM     24  C   UNL     1       0.887  -0.090  -0.670  0.00  0.00    +0.028 C 
ATOM     25  C   UNL     1       2.205  -0.275   0.084  0.00  0.00    +0.015 C 
ATOM     26  C   UNL     1       1.909   1.048  -0.624  0.00  0.00    +0.015 C 
ENDBRANCH   1  24
TORSDOF 3
