REMARK  Name = CHEMBL492296
REMARK  7 active torsions:
REMARK  status: ('A' for Active; 'I' for Inactive)
REMARK    1  A    between atoms: C_6  and  C_7
REMARK    2  A    between atoms: C_8  and  C_17
REMARK    3  A    between atoms: C_11  and  S_13
REMARK    4  A    between atoms: S_13  and  C_14
REMARK    5  A    between atoms: C_14  and  C_15
REMARK    6  A    between atoms: C_15  and  O_16
REMARK    7  A    between atoms: N_23  and  C_24
REMARK                            x       y       z     vdW  Elec       q    Type
REMARK                         _______ _______ _______ _____ _____    ______ ____
ROOT
ATOM      1  C   UNL     1      -1.264  -0.762   0.011  0.00  0.00    +0.075 A 
ATOM      2  C   UNL     1      -1.581  -1.854  -0.774  0.00  0.00    +0.098 A 
ATOM      3  N   UNL     1      -2.831  -2.242  -0.451  0.00  0.00    -0.221 NA
ATOM      4  H   UNL     1      -2.454   0.176   1.474  0.00  0.00    +0.168 HD
ATOM      5  C   UNL     1      -3.306  -1.456   0.485  0.00  0.00    +0.167 A 
ATOM      6  N   UNL     1      -2.366  -0.525   0.809  0.00  0.00    -0.332 N 
ENDROOT
BRANCH   2   7
ATOM      7  C   UNL     1      -0.705  -2.485  -1.787  0.00  0.00    +0.007 A 
ATOM      8  C   UNL     1       0.175  -1.713  -2.558  0.00  0.00    +0.027 A 
ATOM      9  C   UNL     1       0.974  -2.337  -3.491  0.00  0.00    +0.085 A 
ATOM     10  N   UNL     1       0.921  -3.644  -3.666  0.00  0.00    -0.350 N 
ATOM     11  C   UNL     1       0.104  -4.414  -2.961  0.00  0.00    +0.097 A 
ATOM     12  C   UNL     1      -0.729  -3.866  -1.996  0.00  0.00    +0.051 A 
ATOM     13  N   UNL     1       0.087  -5.786  -3.186  0.00  0.00    -0.328 N 
ATOM     14  H   UNL     1       0.670  -6.175  -3.856  0.00  0.00    +0.148 HD
ATOM     15  H   UNL     1       1.496  -4.054  -4.331  0.00  0.00    +0.166 HD
BRANCH  13  16
ATOM     16  C   UNL     1      -0.813  -6.644  -2.411  0.00  0.00    +0.076 C 
ATOM     17  C   UNL     1      -0.141  -7.028  -1.089  0.00  0.00    +0.050 C 
ATOM     18  C   UNL     1      -1.055  -7.987  -0.322  0.00  0.00    +0.161 C 
ATOM     19  O   UNL     1      -1.323  -9.136  -1.129  0.00  0.00    -0.380 OA
ATOM     20  C   UNL     1      -1.993  -8.842  -2.357  0.00  0.00    +0.161 C 
ATOM     21  C   UNL     1      -1.117  -7.918  -3.206  0.00  0.00    +0.050 C 
ENDBRANCH  13  16
ENDBRANCH   2   7
BRANCH   1  27
ATOM     22  C   UNL     1      -0.017   1.393   0.010  0.00  0.00    +0.013 A 
ATOM     23  C   UNL     1       1.169   2.096   0.002  0.00  0.00    +0.039 A 
ATOM     24  C   UNL     1       2.379   1.419  -0.013  0.00  0.00    +0.123 A 
ATOM     25  C   UNL     1       2.404   0.033  -0.021  0.00  0.00    +0.039 A 
ATOM     26  C   UNL     1       1.224  -0.680  -0.014  0.00  0.00    +0.013 A 
ATOM     27  C   UNL     1       0.002  -0.004   0.002  0.00  0.00    +0.001 A 
ATOM     28  F   UNL     1       3.538   2.113  -0.022  0.00  0.00    -0.205 F 
ENDBRANCH   1  27
BRANCH   5  29
ATOM     29  S   UNL     1      -4.904  -1.589   1.215  0.00  0.00    -0.086 S 
BRANCH  29  30
ATOM     30  C   UNL     1      -5.655  -3.010   0.373  0.00  0.00    +0.105 C 
BRANCH  30  31
ATOM     31  C   UNL     1      -7.065  -3.239   0.919  0.00  0.00    +0.167 C 
BRANCH  31  32
ATOM     32  O   UNL     1      -7.656  -4.359   0.256  0.00  0.00    -0.394 OA
ATOM     33  H   UNL     1      -8.554  -4.563   0.553  0.00  0.00    +0.209 HD
ENDBRANCH  31  32
ENDBRANCH  30  31
ENDBRANCH  29  30
ENDBRANCH   5  29
TORSDOF 7
