REMARK  Name = CHEMBL1089655
REMARK  10 active torsions:
REMARK  status: ('A' for Active; 'I' for Inactive)
REMARK    1  A    between atoms: C_1  and  C_2
REMARK    2  A    between atoms: C_2  and  C_3
REMARK    3  A    between atoms: C_2  and  N_4
REMARK    4  A    between atoms: C_9  and  N_11
REMARK    5  A    between atoms: N_11  and  C_12
REMARK    6  A    between atoms: C_12  and  C_13
REMARK    7  A    between atoms: C_13  and  C_14
REMARK    8  A    between atoms: C_14  and  C_15
REMARK    9  A    between atoms: C_15  and  N_16
REMARK   10  A    between atoms: C_17  and  C_19
REMARK                            x       y       z     vdW  Elec       q    Type
REMARK                         _______ _______ _______ _____ _____    ______ ____
ROOT
ATOM      1  N   UNL     1       4.545  -1.425  -3.768  0.00  0.00    -0.252 N 
ATOM      2  C   UNL     1       3.987  -1.709  -4.961  0.00  0.00    +0.252 C 
ATOM      3  O   UNL     1       2.778  -1.693  -5.086  0.00  0.00    -0.270 OA
ENDROOT
BRANCH   2   4
ATOM      4  C   UNL     1       4.844  -2.040  -6.116  0.00  0.00    +0.038 A 
ATOM      5  C   UNL     1       4.526  -1.560  -7.390  0.00  0.00    +0.016 A 
ATOM      6  C   UNL     1       5.328  -1.866  -8.464  0.00  0.00    +0.046 A 
ATOM      7  C   UNL     1       6.465  -2.658  -8.294  0.00  0.00    +0.124 A 
ATOM      8  C   UNL     1       6.772  -3.139  -7.025  0.00  0.00    -0.002 A 
ATOM      9  C   UNL     1       5.984  -2.831  -5.944  0.00  0.00    +0.020 A 
ATOM     10  C   UNL     1       8.030  -3.976  -7.160  0.00  0.00    +0.080 C 
ATOM     11  C   UNL     1       8.105  -4.194  -8.690  0.00  0.00    +0.234 C 
ATOM     12  O   UNL     1       7.386  -3.062  -9.209  0.00  0.00    -0.491 OA
ENDBRANCH   2   4
BRANCH   1  18
ATOM     13  N   UNL     1       0.280  -1.309  -1.808  0.00  0.00    -0.311 N 
ATOM     14  C   UNL     1       1.648  -1.137  -1.689  0.00  0.00    +0.217 A 
ATOM     15  N   UNL     1       2.152  -0.759  -0.523  0.00  0.00    -0.223 NA
ATOM     16  C   UNL     1       3.456  -0.585  -0.370  0.00  0.00    +0.118 A 
ATOM     17  C   UNL     1       4.297  -0.800  -1.445  0.00  0.00    +0.064 A 
ATOM     18  C   UNL     1       3.737  -1.197  -2.660  0.00  0.00    +0.133 A 
ATOM     19  N   UNL     1       2.421  -1.358  -2.741  0.00  0.00    -0.199 NA
ATOM     20  H   UNL     1      -0.102  -1.589  -2.655  0.00  0.00    +0.149 HD
BRANCH  13  22
ATOM     21  C   UNL     1      -0.935   0.420  -0.577  0.00  0.00    +0.027 C 
ATOM     22  C   UNL     1      -0.592  -1.069  -0.656  0.00  0.00    +0.067 C 
ATOM     23  C   UNL     1      -1.880  -1.881  -0.812  0.00  0.00    +0.027 C 
ENDBRANCH  13  22
ENDBRANCH   1  18
BRANCH   1  24
ATOM     24  C   UNL     1       6.002  -1.356  -3.638  0.00  0.00    +0.115 C 
BRANCH  24  25
ATOM     25  C   UNL     1       6.508  -2.598  -2.902  0.00  0.00    +0.018 C 
BRANCH  25  26
ATOM     26  C   UNL     1       8.038  -2.602  -2.900  0.00  0.00    -0.018 C 
BRANCH  26  27
ATOM     27  C   UNL     1       8.544  -3.844  -2.164  0.00  0.00    -0.086 C 
BRANCH  27  28
ATOM     28  N   UNL     1      10.013  -3.848  -2.162  0.00  0.00    +0.378 N 
ATOM     29  H   UNL     1      10.347  -4.667  -1.677  0.00  0.00    -0.090 HD
ATOM     30  H   UNL     1      10.351  -3.859  -3.113  0.00  0.00    -0.090 HD
ATOM     31  H   UNL     1      10.351  -3.019  -1.695  0.00  0.00    -0.090 HD
ENDBRANCH  27  28
ENDBRANCH  26  27
ENDBRANCH  25  26
ENDBRANCH  24  25
ENDBRANCH   1  24
TORSDOF 8
