REMARK  Name = CHEMBL1091614
REMARK  8 active torsions:
REMARK  status: ('A' for Active; 'I' for Inactive)
REMARK    1  A    between atoms: C_6  and  C_7
REMARK    2  A    between atoms: N_9  and  C_10
REMARK    3  A    between atoms: C_10  and  C_11
REMARK    4  A    between atoms: C_11  and  C_12
REMARK    5  A    between atoms: C_12  and  C_13
REMARK    6  A    between atoms: C_13  and  N_14
REMARK    7  A    between atoms: N_21  and  C_22
REMARK    8  A    between atoms: C_25  and  O_28
REMARK                            x       y       z     vdW  Elec       q    Type
REMARK                         _______ _______ _______ _____ _____    ______ ____
ROOT
ATOM      1  C   UNL     1      -1.297  -0.776  -0.153  0.00  0.00    +0.252 C 
ATOM      2  O   UNL     1      -1.344  -1.903  -0.606  0.00  0.00    -0.270 OA
ATOM      3  N   UNL     1      -2.438  -0.117   0.134  0.00  0.00    -0.252 N 
ATOM      4  C   UNL     1      -3.654  -0.787   0.101  0.00  0.00    +0.133 A 
ATOM      5  C   UNL     1      -3.694  -2.182   0.091  0.00  0.00    +0.064 A 
ATOM      6  C   UNL     1      -4.926  -2.806   0.058  0.00  0.00    +0.118 A 
ATOM      7  N   UNL     1      -6.026  -2.068   0.036  0.00  0.00    -0.223 NA
ATOM      8  C   UNL     1      -5.958  -0.745   0.046  0.00  0.00    +0.217 A 
ATOM      9  N   UNL     1      -4.797  -0.109   0.083  0.00  0.00    -0.199 NA
ATOM     10  N   UNL     1      -7.130  -0.009   0.022  0.00  0.00    -0.311 N 
ATOM     11  H   UNL     1      -7.094   0.961   0.029  0.00  0.00    +0.149 HD
ENDROOT
BRANCH   1  17
ATOM     12  C   UNL     1       0.158   1.246  -0.116  0.00  0.00    +0.016 A 
ATOM     13  C   UNL     1       1.374   1.849   0.107  0.00  0.00    +0.046 A 
ATOM     14  C   UNL     1       2.469   1.095   0.532  0.00  0.00    +0.124 A 
ATOM     15  C   UNL     1       2.315  -0.276   0.720  0.00  0.00    -0.002 A 
ATOM     16  C   UNL     1       1.105  -0.887   0.505  0.00  0.00    +0.020 A 
ATOM     17  C   UNL     1       0.008  -0.129   0.082  0.00  0.00    +0.038 A 
ATOM     18  C   UNL     1       3.664  -0.818   1.152  0.00  0.00    +0.080 C 
ATOM     19  C   UNL     1       4.610   0.348   0.781  0.00  0.00    +0.234 C 
ATOM     20  O   UNL     1       3.738   1.490   0.817  0.00  0.00    -0.491 OA
ENDBRANCH   1  17
BRANCH  10  21
ATOM     21  C   UNL     1      -8.425  -0.694  -0.013  0.00  0.00    +0.073 C 
ATOM     22  C   UNL     1      -8.782  -1.034  -1.461  0.00  0.00    +0.025 C 
ATOM     23  C   UNL     1     -10.134  -1.749  -1.498  0.00  0.00    +0.033 C 
ATOM     24  C   UNL     1     -11.210  -0.836  -0.908  0.00  0.00    +0.115 C 
ATOM     25  C   UNL     1     -10.853  -0.495   0.540  0.00  0.00    +0.033 C 
ATOM     26  C   UNL     1      -9.501   0.220   0.577  0.00  0.00    +0.025 C 
BRANCH  24  27
ATOM     27  O   UNL     1     -12.473  -1.504  -0.942  0.00  0.00    -0.392 OA
ATOM     28  H   UNL     1     -13.204  -0.982  -0.583  0.00  0.00    +0.210 HD
ENDBRANCH  24  27
ENDBRANCH  10  21
BRANCH   3  29
ATOM     29  C   UNL     1      -2.394   1.305   0.482  0.00  0.00    +0.115 C 
BRANCH  29  30
ATOM     30  C   UNL     1      -2.825   2.139  -0.726  0.00  0.00    +0.018 C 
BRANCH  30  31
ATOM     31  C   UNL     1      -2.780   3.625  -0.363  0.00  0.00    -0.018 C 
BRANCH  31  32
ATOM     32  C   UNL     1      -3.211   4.459  -1.571  0.00  0.00    -0.086 C 
BRANCH  32  33
ATOM     33  N   UNL     1      -3.168   5.885  -1.223  0.00  0.00    +0.378 N 
ATOM     34  H   UNL     1      -3.793   6.062  -0.451  0.00  0.00    -0.090 HD
ATOM     35  H   UNL     1      -2.228   6.138  -0.958  0.00  0.00    -0.090 HD
ATOM     36  H   UNL     1      -3.452   6.435  -2.019  0.00  0.00    -0.090 HD
ENDBRANCH  32  33
ENDBRANCH  31  32
ENDBRANCH  30  31
ENDBRANCH  29  30
ENDBRANCH   3  29
TORSDOF 8
