REMARK  Name = CHEMBL199701
REMARK  3 active torsions:
REMARK  status: ('A' for Active; 'I' for Inactive)
REMARK    1  A    between atoms: C_4  and  N_8
REMARK    2  A    between atoms: C_16  and  C_27
REMARK    3  A    between atoms: C_18  and  C_19
REMARK                            x       y       z     vdW  Elec       q    Type
REMARK                         _______ _______ _______ _____ _____    ______ ____
ROOT
ATOM      1  N   UNL     1       3.731  -0.476  -0.033  0.00  0.00    -0.274 N 
ATOM      2  C   UNL     1       4.306  -0.790  -1.209  0.00  0.00    +0.256 A 
ATOM      3  O   UNL     1       3.801  -0.401  -2.248  0.00  0.00    -0.267 OA
ATOM      4  C   UNL     1       5.485  -1.564  -1.257  0.00  0.00    +0.071 A 
ATOM      5  C   UNL     1       6.060  -2.006  -0.110  0.00  0.00    +0.016 A 
ATOM      6  C   UNL     1       5.462  -1.681   1.133  0.00  0.00    +0.007 A 
ATOM      7  C   UNL     1       4.290  -0.904   1.155  0.00  0.00    +0.058 A 
ATOM      8  C   UNL     1       3.703  -0.578   2.373  0.00  0.00    +0.030 A 
ATOM      9  C   UNL     1       4.271  -1.011   3.554  0.00  0.00    -0.042 A 
ATOM     10  C   UNL     1       5.427  -1.772   3.548  0.00  0.00    +0.013 A 
ATOM     11  C   UNL     1       6.029  -2.123   2.346  0.00  0.00    -0.007 A 
ENDROOT
BRANCH   9  12
ATOM     12  C   UNL     1       3.624  -0.650   4.867  0.00  0.00    +0.016 C 
ATOM     13  C   UNL     1       2.903   0.694   4.727  0.00  0.00    -0.008 C 
ATOM     14  C   UNL     1       3.947   1.797   4.489  0.00  0.00    -0.071 C 
ATOM     15  C   UNL     1       4.912   1.304   3.386  0.00  0.00    -0.017 C 
ATOM     16  C   UNL     1       6.018   0.538   4.142  0.00  0.00    -0.017 C 
ATOM     17  C   UNL     1       5.621   0.637   5.633  0.00  0.00    -0.071 C 
ATOM     18  C   UNL     1       4.698  -0.549   5.953  0.00  0.00    -0.008 C 
ATOM     19  N   UNL     1       4.795   1.871   5.709  0.00  0.00    +0.383 N 
ATOM     20  H   UNL     1       5.380   2.693   5.686  0.00  0.00    -0.085 HD
ATOM     21  H   UNL     1       4.223   1.865   6.540  0.00  0.00    -0.085 HD
ENDBRANCH   9  12
BRANCH   1  25
ATOM     22  C   UNL     1       0.249   1.816   0.020  0.00  0.00    +0.003 A 
ATOM     23  C   UNL     1       1.484   2.437   0.062  0.00  0.00    +0.022 A 
ATOM     24  C   UNL     1       2.640   1.680   0.044  0.00  0.00    +0.066 A 
ATOM     25  C   UNL     1       2.561   0.294  -0.015  0.00  0.00    +0.087 A 
ATOM     26  C   UNL     1       1.318  -0.326  -0.056  0.00  0.00    +0.066 A 
ATOM     27  C   UNL     1       0.166   0.437  -0.038  0.00  0.00    +0.022 A 
ATOM     28 CL   UNL     1       1.213  -2.058  -0.130  0.00  0.00    -0.081 Cl
ATOM     29 CL   UNL     1       4.190   2.460   0.095  0.00  0.00    -0.081 Cl
ENDBRANCH   1  25
BRANCH  11  30
ATOM     30  C   UNL     1       7.266  -2.937   2.340  0.00  0.00    +0.001 A 
ATOM     31  C   UNL     1       7.237  -4.257   2.790  0.00  0.00    +0.013 A 
ATOM     32  C   UNL     1       8.391  -5.012   2.782  0.00  0.00    +0.039 A 
ATOM     33  C   UNL     1       9.580  -4.461   2.328  0.00  0.00    +0.125 A 
ATOM     34  C   UNL     1       9.615  -3.151   1.880  0.00  0.00    +0.059 A 
ATOM     35  C   UNL     1       8.463  -2.388   1.879  0.00  0.00    +0.051 A 
ATOM     36 CL   UNL     1       8.507  -0.749   1.310  0.00  0.00    -0.083 Cl
ATOM     37  F   UNL     1      10.707  -5.204   2.324  0.00  0.00    -0.205 F 
ENDBRANCH  11  30
TORSDOF 3
