REMARK  Name = CHEMBL476995
REMARK  10 active torsions:
REMARK  status: ('A' for Active; 'I' for Inactive)
REMARK    1  A    between atoms: C_1  and  C_2
REMARK    2  A    between atoms: C_5  and  N_21
REMARK    3  A    between atoms: C_7  and  C_8
REMARK    4  A    between atoms: C_11  and  C_14
REMARK    5  A    between atoms: N_16  and  C_17
REMARK    6  A    between atoms: C_17  and  C_18
REMARK    7  A    between atoms: C_22  and  C_24
REMARK    8  A    between atoms: C_28  and  N_30
REMARK    9  A    between atoms: C_31  and  C_36
REMARK   10  A    between atoms: C_34  and  C_35
REMARK                            x       y       z     vdW  Elec       q    Type
REMARK                         _______ _______ _______ _____ _____    ______ ____
ROOT
ATOM      1  C   UNL     1      -0.044   1.502   0.029  0.00  0.00    +0.044 C 
ATOM      2  C   UNL     1      -0.017  -0.004   0.015  0.00  0.00    -0.043 A 
ATOM      3  C   UNL     1      -0.004  -0.684  -1.186  0.00  0.00    +0.006 A 
ATOM      4  C   UNL     1       0.021  -2.066  -1.204  0.00  0.00    +0.023 A 
ATOM      5  C   UNL     1       0.034  -2.779  -0.011  0.00  0.00    +0.034 A 
ATOM      6  C   UNL     1       0.021  -2.105   1.200  0.00  0.00    +0.032 A 
ATOM      7  C   UNL     1       0.001  -0.712   1.217  0.00  0.00    -0.013 A 
ENDROOT
BRANCH   7   8
ATOM      8  C   UNL     1      -0.007   0.017   2.509  0.00  0.00    -0.018 A 
ATOM      9  C   UNL     1       0.897   1.056   2.728  0.00  0.00    +0.009 A 
ATOM     10  C   UNL     1       0.890   1.733   3.927  0.00  0.00    +0.013 A 
ATOM     11  C   UNL     1      -0.022   1.378   4.924  0.00  0.00    +0.037 A 
ATOM     12  C   UNL     1      -0.927   0.337   4.703  0.00  0.00    +0.013 A 
ATOM     13  C   UNL     1      -0.922  -0.335   3.501  0.00  0.00    +0.009 A 
BRANCH  11  14
ATOM     14  C   UNL     1      -0.030   2.103   6.211  0.00  0.00    +0.244 C 
ATOM     15  O   UNL     1       0.758   3.008   6.403  0.00  0.00    -0.270 OA
ATOM     16  N   UNL     1      -0.910   1.760   7.172  0.00  0.00    -0.311 N 
ATOM     17  H   UNL     1      -1.539   1.038   7.019  0.00  0.00    +0.149 HD
BRANCH  16  18
ATOM     18  C   UNL     1      -0.917   2.479   8.449  0.00  0.00    +0.108 C 
BRANCH  18  19
ATOM     19  C   UNL     1      -2.004   1.897   9.355  0.00  0.00    +0.006 C 
ATOM     20  C   UNL     1      -3.160   2.818   9.753  0.00  0.00    +0.005 C 
ATOM     21  C   UNL     1      -2.095   2.437  10.784  0.00  0.00    +0.005 C 
ENDBRANCH  18  19
ENDBRANCH  16  18
ENDBRANCH  11  14
ENDBRANCH   7   8
BRANCH   5  22
ATOM     22  N   UNL     1       0.059  -4.178  -0.032  0.00  0.00    -0.281 N 
ATOM     23  C   UNL     1       0.742  -4.854   0.912  0.00  0.00    +0.248 C 
ATOM     24  O   UNL     1       1.266  -4.254   1.830  0.00  0.00    -0.270 OA
ATOM     25  H   UNL     1      -0.416  -4.660  -0.727  0.00  0.00    +0.155 HD
BRANCH  23  26
ATOM     26  C   UNL     1       0.854  -6.326   0.831  0.00  0.00    +0.039 A 
ATOM     27  C   UNL     1       0.257  -7.017  -0.225  0.00  0.00    +0.013 A 
ATOM     28  C   UNL     1       0.363  -8.391  -0.298  0.00  0.00    +0.003 A 
ATOM     29  C   UNL     1       1.059  -9.087   0.673  0.00  0.00    +0.026 A 
ATOM     30  C   UNL     1       1.656  -8.409   1.728  0.00  0.00    +0.047 A 
ATOM     31  C   UNL     1       1.561  -7.028   1.807  0.00  0.00    +0.039 A 
BRANCH  30  32
ATOM     32  N   UNL     1       2.359  -9.120   2.711  0.00  0.00    -0.318 N 
ATOM     33  C   UNL     1       2.007  -9.220   4.027  0.00  0.00    +0.021 A 
ATOM     34  C   UNL     1       2.926  -9.984   4.652  0.00  0.00    +0.023 A 
ATOM     35  C   UNL     1       3.880 -10.371   3.689  0.00  0.00    +0.023 A 
ATOM     36  C   UNL     1       3.506  -9.833   2.510  0.00  0.00    +0.021 A 
ATOM     37  C   UNL     1       4.232  -9.989   1.198  0.00  0.00    +0.064 C 
ATOM     38  C   UNL     1       0.801  -8.586   4.670  0.00  0.00    +0.064 C 
ENDBRANCH  30  32
ENDBRANCH  23  26
ENDBRANCH   5  22
TORSDOF 7
