REMARK  Name = CHEMBL591217
REMARK  11 active torsions:
REMARK  status: ('A' for Active; 'I' for Inactive)
REMARK    1  A    between atoms: C_1  and  C_2
REMARK    2  A    between atoms: N_5  and  C_31
REMARK    3  A    between atoms: C_6  and  C_30
REMARK    4  A    between atoms: C_10  and  C_12
REMARK    5  A    between atoms: N_19  and  C_29
REMARK    6  A    between atoms: C_21  and  C_22
REMARK    7  A    between atoms: C_22  and  C_24
REMARK    8  A    between atoms: N_26  and  C_27
REMARK    9  A    between atoms: N_26  and  C_28
REMARK   10  A    between atoms: C_31  and  C_32
REMARK   11  A    between atoms: C_31  and  C_38
REMARK                            x       y       z     vdW  Elec       q    Type
REMARK                         _______ _______ _______ _____ _____    ______ ____
ROOT
ATOM      1  C   UNL     1      -1.783   0.994   1.371  0.00  0.00    +0.029 C 
ATOM      2  C   UNL     1      -1.928  -0.517   1.566  0.00  0.00    +0.087 C 
ATOM      3  C   UNL     1      -3.355  -0.842   2.020  0.00  0.00    +0.107 C 
ATOM      4  N   UNL     1      -3.583  -0.272   3.355  0.00  0.00    -0.286 NA
ATOM      5  C   UNL     1      -2.690  -0.877   4.352  0.00  0.00    +0.072 C 
ATOM      6  C   UNL     1      -1.236  -0.554   3.994  0.00  0.00    +0.127 C 
ATOM      7  N   UNL     1      -0.989  -0.973   2.602  0.00  0.00    -0.292 N 
ATOM      8  C   UNL     1       0.063  -1.755   2.286  0.00  0.00    +0.248 C 
ATOM      9  O   UNL     1       0.292  -2.024   1.122  0.00  0.00    -0.270 OA
ATOM     10  C   UNL     1      -2.888  -2.395   4.361  0.00  0.00    +0.026 C 
ENDROOT
BRANCH   8  11
ATOM     11  C   UNL     1       0.936  -2.284   3.352  0.00  0.00    +0.056 A 
ATOM     12  C   UNL     1       1.647  -1.409   4.170  0.00  0.00    +0.025 A 
ATOM     13  C   UNL     1       2.464  -1.917   5.170  0.00  0.00    +0.012 A 
ATOM     14  C   UNL     1       2.576  -3.306   5.358  0.00  0.00    +0.051 A 
ATOM     15  C   UNL     1       1.861  -4.171   4.534  0.00  0.00    +0.047 A 
ATOM     16  C   UNL     1       1.046  -3.668   3.546  0.00  0.00    +0.055 A 
ATOM     17 CL   UNL     1       0.153  -4.755   2.528  0.00  0.00    -0.083 Cl
ATOM     18  N   UNL     1       3.445  -3.517   6.408  0.00  0.00    -0.349 N 
ATOM     19  C   UNL     1       3.893  -2.347   6.900  0.00  0.00    +0.098 A 
ATOM     20  C   UNL     1       3.335  -1.301   6.191  0.00  0.00    +0.052 A 
ATOM     21  C   UNL     1       3.827  -4.835   6.918  0.00  0.00    +0.149 C 
BRANCH  20  22
ATOM     22  C   UNL     1       3.562   0.127   6.407  0.00  0.00    +0.249 C 
ATOM     23  O   UNL     1       3.002   0.945   5.703  0.00  0.00    -0.282 OA
BRANCH  22  24
ATOM     24  C   UNL     1       4.481   0.581   7.491  0.00  0.00    +0.287 C 
ATOM     25  O   UNL     1       5.104  -0.235   8.140  0.00  0.00    -0.266 OA
ATOM     26  N   UNL     1       4.618   1.896   7.751  0.00  0.00    -0.301 N 
ATOM     27  C   UNL     1       5.531   2.342   8.807  0.00  0.00    +0.132 C 
ATOM     28  C   UNL     1       3.856   2.880   6.978  0.00  0.00    +0.132 C 
ENDBRANCH  22  24
ENDBRANCH  20  22
ENDBRANCH   8  11
BRANCH   4  29
ATOM     29  C   UNL     1      -4.990  -0.413   3.754  0.00  0.00    +0.117 C 
BRANCH  29  30
ATOM     30  C   UNL     1      -5.165   0.091   5.163  0.00  0.00    -0.026 A 
ATOM     31  C   UNL     1      -4.596   1.293   5.543  0.00  0.00    +0.005 A 
ATOM     32  C   UNL     1      -4.757   1.755   6.836  0.00  0.00    +0.000 A 
ATOM     33  C   UNL     1      -5.486   1.016   7.749  0.00  0.00    +0.000 A 
ATOM     34  C   UNL     1      -6.055  -0.185   7.369  0.00  0.00    +0.000 A 
ATOM     35  C   UNL     1      -5.898  -0.645   6.075  0.00  0.00    +0.005 A 
ENDBRANCH  29  30
BRANCH  29  36
ATOM     36  C   UNL     1      -5.859   0.391   2.821  0.00  0.00    -0.026 A 
ATOM     37  C   UNL     1      -5.405   1.597   2.320  0.00  0.00    +0.005 A 
ATOM     38  C   UNL     1      -6.202   2.334   1.465  0.00  0.00    +0.000 A 
ATOM     39  C   UNL     1      -7.454   1.865   1.111  0.00  0.00    +0.000 A 
ATOM     40  C   UNL     1      -7.907   0.659   1.611  0.00  0.00    +0.000 A 
ATOM     41  C   UNL     1      -7.108  -0.080   2.463  0.00  0.00    +0.005 A 
ENDBRANCH  29  36
ENDBRANCH   4  29
TORSDOF 6
