REMARK  Name = CHEMBL271372
REMARK  8 active torsions:
REMARK  status: ('A' for Active; 'I' for Inactive)
REMARK    1  A    between atoms: C_1  and  C_2
REMARK    2  A    between atoms: C_5  and  N_25
REMARK    3  A    between atoms: C_7  and  C_8
REMARK    4  A    between atoms: N_10  and  C_11
REMARK    5  A    between atoms: N_17  and  C_18
REMARK    6  A    between atoms: N_21  and  C_24
REMARK    7  A    between atoms: C_26  and  C_28
REMARK    8  A    between atoms: C_32  and  C_34
REMARK                            x       y       z     vdW  Elec       q    Type
REMARK                         _______ _______ _______ _____ _____    ______ ____
ROOT
ATOM      1  C   UNL     1      -0.204   1.619  -0.185  0.00  0.00    +0.044 C 
ATOM      2  C   UNL     1      -0.096   0.118  -0.111  0.00  0.00    -0.038 A 
ATOM      3  C   UNL     1      -0.205  -0.640  -1.259  0.00  0.00    +0.006 A 
ATOM      4  C   UNL     1      -0.107  -2.017  -1.196  0.00  0.00    +0.023 A 
ATOM      5  C   UNL     1       0.103  -2.648   0.024  0.00  0.00    +0.034 A 
ATOM      6  C   UNL     1       0.214  -1.897   1.184  0.00  0.00    +0.036 A 
ATOM      7  C   UNL     1       0.120  -0.506   1.119  0.00  0.00    +0.042 A 
ENDROOT
BRANCH   7   8
ATOM      8  C   UNL     1       0.244   0.303   2.350  0.00  0.00    +0.249 C 
ATOM      9  O   UNL     1       0.085   1.508   2.304  0.00  0.00    -0.270 OA
ATOM     10  N   UNL     1       0.533  -0.294   3.523  0.00  0.00    -0.279 N 
ATOM     11  H   UNL     1       0.583  -1.261   3.576  0.00  0.00    +0.155 HD
BRANCH  10  12
ATOM     12  C   UNL     1       0.760   0.483   4.667  0.00  0.00    +0.070 A 
ATOM     13  C   UNL     1       1.232   1.788   4.560  0.00  0.00    +0.139 A 
ATOM     14  N   UNL     1       1.435   2.491   5.662  0.00  0.00    -0.221 NA
ATOM     15  C   UNL     1       1.196   1.967   6.855  0.00  0.00    +0.215 A 
ATOM     16  N   UNL     1       0.747   0.729   6.995  0.00  0.00    -0.221 NA
ATOM     17  C   UNL     1       0.515  -0.031   5.938  0.00  0.00    +0.139 A 
ATOM     18  N   UNL     1       1.421   2.735   7.987  0.00  0.00    -0.311 N 
ATOM     19  H   UNL     1       1.750   3.643   7.899  0.00  0.00    +0.149 HD
BRANCH  18  20
ATOM     20  C   UNL     1       1.163   2.175   9.316  0.00  0.00    +0.070 C 
ATOM     21  C   UNL     1      -0.314   2.364   9.672  0.00  0.00    +0.003 C 
ATOM     22  C   UNL     1      -0.560   1.849  11.092  0.00  0.00    -0.077 C 
ATOM     23  N   UNL     1       0.273   2.599  12.040  0.00  0.00    +0.378 N 
ATOM     24  C   UNL     1       1.692   2.365  11.748  0.00  0.00    -0.077 C 
ATOM     25  C   UNL     1       2.025   2.899  10.353  0.00  0.00    +0.003 C 
ATOM     26  C   UNL     1      -0.023   2.155  13.408  0.00  0.00    -0.096 C 
ATOM     27  H   UNL     1       0.072   3.584  11.957  0.00  0.00    -0.082 HD
ENDBRANCH  18  20
ENDBRANCH  10  12
ENDBRANCH   7   8
BRANCH   5  28
ATOM     28  N   UNL     1       0.201  -4.043   0.083  0.00  0.00    -0.281 N 
ATOM     29  C   UNL     1      -0.275  -4.708   1.154  0.00  0.00    +0.248 C 
ATOM     30  O   UNL     1      -0.878  -4.108   2.023  0.00  0.00    -0.270 OA
ATOM     31  H   UNL     1       0.613  -4.531  -0.647  0.00  0.00    +0.155 HD
BRANCH  29  32
ATOM     32  C   UNL     1      -0.066  -6.166   1.272  0.00  0.00    +0.038 A 
ATOM     33  C   UNL     1       0.631  -6.857   0.278  0.00  0.00    +0.013 A 
ATOM     34  C   UNL     1       0.823  -8.218   0.395  0.00  0.00    +0.001 A 
ATOM     35  C   UNL     1       0.327  -8.898   1.493  0.00  0.00    +0.012 A 
ATOM     36  C   UNL     1      -0.364  -8.220   2.481  0.00  0.00    +0.056 A 
ATOM     37  C   UNL     1      -0.558  -6.858   2.380  0.00  0.00    +0.025 A 
BRANCH  36  38
ATOM     38  C   UNL     1      -0.900  -8.969   3.673  0.00  0.00    +0.417 C 
ATOM     39  F   UNL     1      -0.576 -10.325   3.556  0.00  0.00    -0.166 F 
ATOM     40  F   UNL     1      -0.332  -8.454   4.842  0.00  0.00    -0.166 F 
ATOM     41  F   UNL     1      -2.291  -8.825   3.727  0.00  0.00    -0.166 F 
ENDBRANCH  36  38
ENDBRANCH  29  32
ENDBRANCH   5  28
TORSDOF 6
