REMARK  Name = CHEMBL203225
REMARK  4 active torsions:
REMARK  status: ('A' for Active; 'I' for Inactive)
REMARK    1  A    between atoms: C_1  and  C_2
REMARK    2  A    between atoms: C_8  and  C_10
REMARK    3  A    between atoms: C_15  and  C_19
REMARK    4  A    between atoms: N_25  and  C_26
REMARK                            x       y       z     vdW  Elec       q    Type
REMARK                         _______ _______ _______ _____ _____    ______ ____
ROOT
ATOM      1  C   UNL     1       0.053  -4.382   1.881  0.00  0.00    +0.223 C 
ATOM      2  O   UNL     1       1.071  -5.035   1.792  0.00  0.00    -0.275 OA
ATOM      3  N   UNL     1      -1.147  -4.986   1.772  0.00  0.00    -0.270 N 
ATOM      4  C   UNL     1      -1.219  -6.341   1.454  0.00  0.00    +0.125 A 
ATOM      5  C   UNL     1      -2.457  -6.930   1.235  0.00  0.00    +0.052 A 
ATOM      6  C   UNL     1      -2.513  -8.287   0.917  0.00  0.00    -0.013 A 
ATOM      7  C   UNL     1      -1.311  -8.997   0.832  0.00  0.00    +0.028 A 
ATOM      8  C   UNL     1      -0.122  -8.338   1.064  0.00  0.00    +0.113 A 
ATOM      9  N   UNL     1      -0.106  -7.051   1.358  0.00  0.00    -0.240 NA
ATOM     10  H   UNL     1      -1.960  -4.477   1.916  0.00  0.00    +0.156 HD
ENDROOT
BRANCH   1  18
ATOM     11  C   UNL     1      -1.218   1.155   4.214  0.00  0.00    +0.109 C 
ATOM     12  C   UNL     1      -1.435  -0.310   3.938  0.00  0.00    +0.212 C 
ATOM     13  O   UNL     1      -2.559  -0.765   3.929  0.00  0.00    -0.276 OA
ATOM     14  N   UNL     1      -0.380  -1.115   3.702  0.00  0.00    -0.301 N 
ATOM     15  C   UNL     1       0.988  -0.579   3.717  0.00  0.00    +0.108 C 
ATOM     16  C   UNL     1       1.677  -0.951   2.400  0.00  0.00    +0.020 C 
ATOM     17  C   UNL     1       1.597  -2.466   2.197  0.00  0.00    +0.016 C 
ATOM     18  C   UNL     1       0.130  -2.895   2.113  0.00  0.00    +0.093 C 
ATOM     19  C   UNL     1      -0.576  -2.546   3.432  0.00  0.00    +0.120 C 
ENDBRANCH   1  18
BRANCH   6  20
ATOM     20  C   UNL     1      -3.814  -8.960   0.675  0.00  0.00    -0.013 A 
ATOM     21  C   UNL     1      -5.016  -8.248   0.754  0.00  0.00    +0.028 A 
ATOM     22  C   UNL     1      -6.204  -8.907   0.522  0.00  0.00    +0.113 A 
ATOM     23  N   UNL     1      -6.221 -10.193   0.229  0.00  0.00    -0.240 NA
ATOM     24  C   UNL     1      -5.109 -10.906   0.143  0.00  0.00    +0.123 A 
ATOM     25  C   UNL     1      -3.869 -10.316   0.357  0.00  0.00    +0.052 A 
ATOM     26  N   UNL     1      -5.181 -12.260  -0.170  0.00  0.00    -0.299 N 
ATOM     27  H   UNL     1      -4.378 -12.804  -0.160  0.00  0.00    +0.154 HD
BRANCH  26  28
ATOM     28  C   UNL     1      -6.411 -12.836  -0.498  0.00  0.00    +0.032 A 
ATOM     29  C   UNL     1      -7.374 -12.090  -1.166  0.00  0.00    +0.023 A 
ATOM     30  C   UNL     1      -8.588 -12.662  -1.489  0.00  0.00    +0.002 A 
ATOM     31  C   UNL     1      -8.846 -13.978  -1.150  0.00  0.00    +0.000 A 
ATOM     32  C   UNL     1      -7.890 -14.724  -0.485  0.00  0.00    +0.002 A 
ATOM     33  C   UNL     1      -6.672 -14.159  -0.163  0.00  0.00    +0.023 A 
ENDBRANCH  26  28
ENDBRANCH   6  20
TORSDOF 3
