REMARK  Name = CHEMBL281145
REMARK  5 active torsions:
REMARK  status: ('A' for Active; 'I' for Inactive)
REMARK    1  A    between atoms: C_1  and  N_2
REMARK    2  A    between atoms: C_5  and  C_8
REMARK    3  A    between atoms: C_5  and  O_27
REMARK    4  A    between atoms: C_11  and  C_21
REMARK    5  A    between atoms: C_12  and  C_14
REMARK                            x       y       z     vdW  Elec       q    Type
REMARK                         _______ _______ _______ _____ _____    ______ ____
ROOT
ATOM      1  C   UNL     1      -0.520  -4.108   0.994  0.00  0.00    +0.140 A 
ATOM      2  N   UNL     1      -0.931  -4.804  -0.028  0.00  0.00    -0.229 NA
ATOM      3  H   UNL     1       0.382  -4.683   2.783  0.00  0.00    +0.167 HD
ATOM      4  C   UNL     1      -0.701  -6.112   0.196  0.00  0.00    +0.097 A 
ATOM      5  C   UNL     1      -0.109  -6.222   1.441  0.00  0.00    +0.074 A 
ATOM      6  N   UNL     1       0.003  -4.942   1.928  0.00  0.00    -0.339 N 
ENDROOT
BRANCH   1  11
ATOM      7  C   UNL     1      -0.018   1.465   0.010  0.00  0.00    -0.096 C 
ATOM      8  N   UNL     1       0.002  -0.004   0.002  0.00  0.00    +0.378 N 
ATOM      9  C   UNL     1      -1.376  -0.511   0.004  0.00  0.00    -0.076 C 
ATOM     10  C   UNL     1      -1.361  -2.038  -0.087  0.00  0.00    +0.024 C 
ATOM     11  C   UNL     1      -0.605  -2.608   1.117  0.00  0.00    +0.120 C 
ATOM     12  C   UNL     1       0.807  -2.015   1.147  0.00  0.00    +0.024 C 
ATOM     13  C   UNL     1       0.712  -0.489   1.192  0.00  0.00    -0.076 C 
ATOM     14  H   UNL     1       0.477  -0.328  -0.827  0.00  0.00    -0.082 HD
BRANCH  11  15
ATOM     15  O   UNL     1      -1.294  -2.264   2.321  0.00  0.00    -0.381 OA
ATOM     16  H   UNL     1      -0.869  -2.594   3.124  0.00  0.00    +0.211 HD
ENDBRANCH  11  15
ENDBRANCH   1  11
BRANCH   5  17
ATOM     17  C   UNL     1       0.323  -7.466   2.110  0.00  0.00    +0.001 A 
ATOM     18  C   UNL     1      -0.511  -8.586   2.112  0.00  0.00    +0.013 A 
ATOM     19  C   UNL     1      -0.102  -9.745   2.739  0.00  0.00    +0.039 A 
ATOM     20  C   UNL     1       1.133  -9.799   3.365  0.00  0.00    +0.123 A 
ATOM     21  C   UNL     1       1.964  -8.690   3.367  0.00  0.00    +0.039 A 
ATOM     22  C   UNL     1       1.569  -7.528   2.738  0.00  0.00    +0.013 A 
ATOM     23  F   UNL     1       1.527 -10.937   3.978  0.00  0.00    -0.205 F 
ENDBRANCH   5  17
BRANCH   4  24
ATOM     24  C   UNL     1      -1.024  -7.227  -0.722  0.00  0.00    +0.005 A 
ATOM     25  C   UNL     1      -0.197  -8.354  -0.804  0.00  0.00    +0.030 A 
ATOM     26  C   UNL     1      -0.535  -9.370  -1.672  0.00  0.00    +0.111 A 
ATOM     27  N   UNL     1      -1.620  -9.290  -2.420  0.00  0.00    -0.263 NA
ATOM     28  C   UNL     1      -2.426  -8.246  -2.373  0.00  0.00    +0.111 A 
ATOM     29  C   UNL     1      -2.167  -7.187  -1.529  0.00  0.00    +0.030 A 
ENDBRANCH   4  24
TORSDOF 4
