REMARK  Name = CHEMBL198383
REMARK  6 active torsions:
REMARK  status: ('A' for Active; 'I' for Inactive)
REMARK    1  A    between atoms: C_1  and  C_2
REMARK    2  A    between atoms: C_2  and  C_3
REMARK    3  A    between atoms: C_5  and  C_23
REMARK    4  A    between atoms: C_6  and  C_8
REMARK    5  A    between atoms: C_15  and  C_17
REMARK    6  A    between atoms: C_27  and  C_29
REMARK                            x       y       z     vdW  Elec       q    Type
REMARK                         _______ _______ _______ _____ _____    ______ ____
ROOT
ATOM      1  C   UNL     1       3.231  -2.011   4.126  0.00  0.00    -0.005 A 
ATOM      2  C   UNL     1       2.825  -2.425   5.403  0.00  0.00    +0.029 A 
ATOM      3  C   UNL     1       3.766  -2.927   6.275  0.00  0.00    +0.113 A 
ATOM      4  N   UNL     1       5.036  -3.021   5.925  0.00  0.00    -0.240 NA
ATOM      5  C   UNL     1       5.465  -2.643   4.730  0.00  0.00    +0.125 A 
ATOM      6  C   UNL     1       4.583  -2.131   3.790  0.00  0.00    +0.053 A 
ATOM      7  N   UNL     1       6.817  -2.764   4.413  0.00  0.00    -0.270 N 
ATOM      8  C   UNL     1       7.661  -3.362   5.277  0.00  0.00    +0.221 C 
ATOM      9  O   UNL     1       7.265  -3.709   6.369  0.00  0.00    -0.275 OA
ATOM     10  H   UNL     1       7.151  -2.417   3.571  0.00  0.00    +0.156 HD
ENDROOT
BRANCH   8  11
ATOM     11  C   UNL     1       9.097  -3.600   4.885  0.00  0.00    +0.075 C 
ATOM     12  C   UNL     1       9.145  -4.492   3.643  0.00  0.00    +0.013 C 
ATOM     13  C   UNL     1      10.602  -4.734   3.245  0.00  0.00    +0.001 C 
ATOM     14  C   UNL     1      11.338  -5.423   4.396  0.00  0.00    +0.000 C 
ATOM     15  C   UNL     1      11.289  -4.531   5.638  0.00  0.00    +0.001 C 
ATOM     16  C   UNL     1       9.832  -4.289   6.036  0.00  0.00    +0.013 C 
ENDBRANCH   8  11
BRANCH   1  20
ATOM     17  C   UNL     1       0.737  -0.813   1.128  0.00  0.00    +0.079 A 
ATOM     18  N   UNL     1       0.537  -0.217   2.275  0.00  0.00    -0.243 NA
ATOM     19  C   UNL     1       1.268  -0.501   3.340  0.00  0.00    +0.086 A 
ATOM     20  C   UNL     1       2.255  -1.468   3.161  0.00  0.00    +0.047 A 
ATOM     21  S   UNL     1       2.008  -1.871   1.439  0.00  0.00    -0.071 S 
BRANCH  19  22
ATOM     22  C   UNL     1       1.050   0.168   4.644  0.00  0.00    +0.002 A 
ATOM     23  C   UNL     1       2.140   0.601   5.399  0.00  0.00    +0.010 A 
ATOM     24  C   UNL     1       1.930   1.223   6.613  0.00  0.00    +0.001 A 
ATOM     25  C   UNL     1       0.643   1.418   7.081  0.00  0.00    +0.003 A 
ATOM     26  C   UNL     1      -0.442   0.991   6.336  0.00  0.00    -0.050 A 
ATOM     27  C   UNL     1      -0.245   0.373   5.118  0.00  0.00    +0.013 A 
ATOM     28  C   UNL     1      -1.841   1.207   6.853  0.00  0.00    +0.044 C 
ENDBRANCH  19  22
BRANCH  17  30
ATOM     29  C   UNL     1       0.691   0.490  -0.982  0.00  0.00    +0.011 C 
ATOM     30  C   UNL     1      -0.003  -0.605  -0.169  0.00  0.00    +0.059 C 
ENDBRANCH  17  30
ENDBRANCH   1  20
TORSDOF 4
