REMARK  Name = CHEMBL120085
REMARK  8 active torsions:
REMARK  status: ('A' for Active; 'I' for Inactive)
REMARK    1  A    between atoms: C_1  and  C_2
REMARK    2  A    between atoms: C_2  and  C_4
REMARK    3  A    between atoms: C_2  and  N_10
REMARK    4  A    between atoms: C_15  and  C_17
REMARK    5  A    between atoms: C_18  and  C_30
REMARK    6  A    between atoms: C_20  and  C_22
REMARK    7  A    between atoms: C_22  and  O_29
REMARK    8  A    between atoms: N_25  and  C_28
REMARK                            x       y       z     vdW  Elec       q    Type
REMARK                         _______ _______ _______ _____ _____    ______ ____
ROOT
ATOM      1  C   UNL     1       0.800  -1.704   5.803  0.00  0.00    +0.181 A 
ATOM      2  C   UNL     1       2.113  -2.133   5.844  0.00  0.00    +0.119 A 
ATOM      3  N   UNL     1       2.370  -2.490   7.118  0.00  0.00    -0.210 NA
ATOM      4  C   UNL     1       1.299  -2.303   7.835  0.00  0.00    +0.228 A 
ATOM      5  O   UNL     1       0.321  -1.817   7.062  0.00  0.00    -0.435 OA
ENDROOT
BRANCH   1  11
ATOM      6  N   UNL     1       0.579  -0.886   1.106  0.00  0.00    -0.307 N 
ATOM      7  C   UNL     1      -0.028  -0.822   2.349  0.00  0.00    +0.216 A 
ATOM      8  N   UNL     1      -1.252  -0.322   2.444  0.00  0.00    -0.223 NA
ATOM      9  C   UNL     1      -1.869  -0.242   3.613  0.00  0.00    +0.116 A 
ATOM     10  C   UNL     1      -1.224  -0.689   4.750  0.00  0.00    +0.051 A 
ATOM     11  C   UNL     1       0.070  -1.214   4.621  0.00  0.00    +0.113 A 
ATOM     12  N   UNL     1       0.626  -1.267   3.409  0.00  0.00    -0.211 NA
ATOM     13  H   UNL     1       1.473  -1.254   1.022  0.00  0.00    +0.149 HD
BRANCH   6  15
ATOM     14  C   UNL     1       0.085   1.110  -0.217  0.00  0.00    +0.033 C 
ATOM     15  C   UNL     1      -0.128  -0.399  -0.081  0.00  0.00    +0.100 C 
BRANCH  15  16
ATOM     16  C   UNL     1       0.408  -1.095  -1.305  0.00  0.00    -0.027 A 
ATOM     17  C   UNL     1       1.764  -1.337  -1.425  0.00  0.00    +0.005 A 
ATOM     18  C   UNL     1       2.255  -1.976  -2.549  0.00  0.00    +0.000 A 
ATOM     19  C   UNL     1       1.391  -2.372  -3.552  0.00  0.00    +0.000 A 
ATOM     20  C   UNL     1       0.035  -2.131  -3.432  0.00  0.00    +0.000 A 
ATOM     21  C   UNL     1      -0.457  -1.496  -2.306  0.00  0.00    +0.005 A 
ENDBRANCH  15  16
ENDBRANCH   6  15
ENDBRANCH   1  11
BRANCH   4  22
ATOM     22  C   UNL     1       1.182  -2.584   9.311  0.00  0.00    +0.138 C 
ATOM     23  C   UNL     1       1.445  -4.069   9.572  0.00  0.00    +0.026 C 
ATOM     24  C   UNL     1       1.246  -4.364  11.060  0.00  0.00    -0.076 C 
ATOM     25  N   UNL     1      -0.131  -4.034  11.448  0.00  0.00    +0.378 N 
ATOM     26  C   UNL     1      -0.368  -2.597  11.268  0.00  0.00    -0.076 C 
ATOM     27  C   UNL     1      -0.231  -2.235   9.787  0.00  0.00    +0.026 C 
ATOM     28  C   UNL     1      -0.340  -4.391  12.857  0.00  0.00    -0.096 C 
ATOM     29  H   UNL     1      -0.775  -4.555  10.872  0.00  0.00    -0.082 HD
BRANCH  22  30
ATOM     30  O   UNL     1       2.135  -1.795  10.025  0.00  0.00    -0.379 OA
ATOM     31  H   UNL     1       3.054  -1.966   9.775  0.00  0.00    +0.211 HD
ENDBRANCH  22  30
ENDBRANCH   4  22
BRANCH   2  32
ATOM     32  C   UNL     1       3.058  -2.189   4.705  0.00  0.00    +0.004 A 
ATOM     33  C   UNL     1       3.855  -3.317   4.512  0.00  0.00    +0.013 A 
ATOM     34  C   UNL     1       4.734  -3.365   3.450  0.00  0.00    +0.039 A 
ATOM     35  C   UNL     1       4.825  -2.294   2.575  0.00  0.00    +0.123 A 
ATOM     36  C   UNL     1       4.035  -1.171   2.762  0.00  0.00    +0.039 A 
ATOM     37  C   UNL     1       3.149  -1.116   3.818  0.00  0.00    +0.013 A 
ATOM     38  F   UNL     1       5.687  -2.345   1.536  0.00  0.00    -0.205 F 
ENDBRANCH   2  32
TORSDOF 6
