REMARK  Name = CHEMBL265032
REMARK  7 active torsions:
REMARK  status: ('A' for Active; 'I' for Inactive)
REMARK    1  A    between atoms: C_1  and  C_2
REMARK    2  A    between atoms: C_2  and  C_4
REMARK    3  A    between atoms: C_2  and  N_10
REMARK    4  A    between atoms: C_13  and  C_17
REMARK    5  A    between atoms: C_19  and  C_33
REMARK    6  A    between atoms: C_22  and  C_23
REMARK    7  A    between atoms: C_27  and  C_29
REMARK                            x       y       z     vdW  Elec       q    Type
REMARK                         _______ _______ _______ _____ _____    ______ ____
ROOT
ATOM      1  C   UNL     1      -3.434  -0.167   3.794  0.00  0.00    +0.012 A 
ATOM      2  C   UNL     1      -3.950   1.047   3.329  0.00  0.00    +0.036 A 
ATOM      3  C   UNL     1      -5.308   1.273   3.475  0.00  0.00    +0.067 A 
ATOM      4  N   UNL     1      -6.076   0.360   4.039  0.00  0.00    -0.153 NA
ATOM      5  N   UNL     1      -5.619  -0.758   4.470  0.00  0.00    -0.148 NA
ATOM      6  C   UNL     1      -4.334  -1.079   4.375  0.00  0.00    +0.101 A 
ENDROOT
BRANCH   1  10
ATOM      7  N   UNL     1       0.711  -0.489   1.189  0.00  0.00    -0.324 N 
ATOM      8  C   UNL     1       0.030  -0.638   2.392  0.00  0.00    +0.097 A 
ATOM      9  C   UNL     1      -1.323  -0.330   2.460  0.00  0.00    +0.050 A 
ATOM     10  C   UNL     1      -1.991  -0.484   3.674  0.00  0.00    -0.011 A 
ATOM     11  C   UNL     1      -1.262  -0.946   4.777  0.00  0.00    +0.026 A 
ATOM     12  C   UNL     1       0.078  -1.230   4.627  0.00  0.00    +0.085 A 
ATOM     13  N   UNL     1       0.678  -1.077   3.461  0.00  0.00    -0.350 N 
ATOM     14  H   UNL     1       1.654  -0.707   1.135  0.00  0.00    +0.148 HD
ATOM     15  H   UNL     1       1.621  -1.289   3.386  0.00  0.00    +0.166 HD
BRANCH   7  17
ATOM     16  C   UNL     1      -0.019   1.526   0.010  0.00  0.00    +0.033 C 
ATOM     17  C   UNL     1       0.002  -0.004   0.002  0.00  0.00    +0.099 C 
BRANCH  17  18
ATOM     18  C   UNL     1       0.707  -0.490  -1.238  0.00  0.00    -0.028 A 
ATOM     19  C   UNL     1       2.089  -0.511  -1.284  0.00  0.00    +0.005 A 
ATOM     20  C   UNL     1       2.736  -0.957  -2.421  0.00  0.00    +0.000 A 
ATOM     21  C   UNL     1       2.002  -1.382  -3.512  0.00  0.00    +0.000 A 
ATOM     22  C   UNL     1       0.620  -1.362  -3.466  0.00  0.00    +0.000 A 
ATOM     23  C   UNL     1      -0.027  -0.920  -2.327  0.00  0.00    +0.005 A 
ENDBRANCH  17  18
ENDBRANCH   7  17
ENDBRANCH   1  10
BRANCH   3  24
ATOM     24  C   UNL     1      -5.910   2.566   2.989  0.00  0.00    +0.036 C 
ATOM     25  C   UNL     1      -5.179   3.029   1.726  0.00  0.00    -0.010 C 
ATOM     26  C   UNL     1      -5.743   4.381   1.283  0.00  0.00    -0.082 C 
ATOM     27  N   UNL     1      -5.550   5.369   2.352  0.00  0.00    +0.379 N 
ATOM     28  C   UNL     1      -6.306   4.968   3.544  0.00  0.00    -0.082 C 
ATOM     29  C   UNL     1      -5.764   3.638   4.073  0.00  0.00    -0.010 C 
ATOM     30  H   UNL     1      -4.569   5.427   2.581  0.00  0.00    -0.086 HD
ATOM     31  H   UNL     1      -5.873   6.271   2.037  0.00  0.00    -0.086 HD
ENDBRANCH   3  24
BRANCH   6  32
ATOM     32  C   UNL     1      -3.851  -2.385   4.882  0.00  0.00    +0.003 A 
ATOM     33  C   UNL     1      -2.813  -3.049   4.230  0.00  0.00    +0.010 A 
ATOM     34  C   UNL     1      -2.367  -4.264   4.707  0.00  0.00    +0.001 A 
ATOM     35  C   UNL     1      -2.948  -4.825   5.831  0.00  0.00    +0.012 A 
ATOM     36  C   UNL     1      -3.978  -4.171   6.482  0.00  0.00    +0.055 A 
ATOM     37  C   UNL     1      -4.429  -2.952   6.017  0.00  0.00    +0.022 A 
BRANCH  36  38
ATOM     38  C   UNL     1      -4.606  -4.788   7.705  0.00  0.00    +0.417 C 
ATOM     39  F   UNL     1      -3.983  -6.010   7.983  0.00  0.00    -0.166 F 
ATOM     40  F   UNL     1      -4.449  -3.926   8.796  0.00  0.00    -0.166 F 
ATOM     41  F   UNL     1      -5.969  -5.002   7.472  0.00  0.00    -0.166 F 
ENDBRANCH  36  38
ENDBRANCH   6  32
TORSDOF 6
