REMARK  Name = CHEMBL183999
REMARK  9 active torsions:
REMARK  status: ('A' for Active; 'I' for Inactive)
REMARK    1  A    between atoms: C_1  and  C_2
REMARK    2  A    between atoms: C_5  and  N_25
REMARK    3  A    between atoms: C_7  and  N_8
REMARK    4  A    between atoms: C_9  and  C_11
REMARK    5  A    between atoms: C_14  and  O_17
REMARK    6  A    between atoms: O_17  and  C_18
REMARK    7  A    between atoms: C_18  and  C_19
REMARK    8  A    between atoms: C_26  and  C_28
REMARK    9  A    between atoms: C_30  and  N_35
REMARK                            x       y       z     vdW  Elec       q    Type
REMARK                         _______ _______ _______ _____ _____    ______ ____
ROOT
ATOM      1  C   UNL     1      -0.168   1.214  -0.089  0.00  0.00    +0.045 C 
ATOM      2  C   UNL     1      -0.068  -0.286  -0.194  0.00  0.00    -0.029 A 
ATOM      3  C   UNL     1      -0.309  -0.911  -1.402  0.00  0.00    +0.007 A 
ATOM      4  C   UNL     1      -0.219  -2.286  -1.502  0.00  0.00    +0.024 A 
ATOM      5  C   UNL     1       0.115  -3.045  -0.387  0.00  0.00    +0.035 A 
ATOM      6  C   UNL     1       0.358  -2.420   0.828  0.00  0.00    +0.047 A 
ATOM      7  C   UNL     1       0.272  -1.038   0.924  0.00  0.00    +0.038 A 
ENDROOT
BRANCH   7   8
ATOM      8  N   UNL     1       0.522  -0.404   2.145  0.00  0.00    -0.281 N 
ATOM      9  C   UNL     1       0.294  -1.056   3.302  0.00  0.00    +0.248 C 
ATOM     10  O   UNL     1      -0.055  -2.220   3.285  0.00  0.00    -0.270 OA
ATOM     11  H   UNL     1       0.860   0.505   2.159  0.00  0.00    +0.155 HD
BRANCH   9  12
ATOM     12  C   UNL     1       0.468  -0.357   4.590  0.00  0.00    +0.037 A 
ATOM     13  C   UNL     1       0.864   0.983   4.611  0.00  0.00    +0.016 A 
ATOM     14  C   UNL     1       1.026   1.632   5.815  0.00  0.00    +0.046 A 
ATOM     15  C   UNL     1       0.796   0.956   7.008  0.00  0.00    +0.121 A 
ATOM     16  C   UNL     1       0.403  -0.377   6.990  0.00  0.00    +0.046 A 
ATOM     17  C   UNL     1       0.232  -1.031   5.791  0.00  0.00    +0.016 A 
BRANCH  15  18
ATOM     18  O   UNL     1       0.957   1.599   8.192  0.00  0.00    -0.487 OA
BRANCH  18  19
ATOM     19  C   UNL     1       0.704   0.845   9.379  0.00  0.00    +0.264 C 
BRANCH  19  20
ATOM     20  C   UNL     1       0.932   1.717  10.586  0.00  0.00    -0.008 A 
ATOM     21  C   UNL     1       2.183   1.794  11.180  0.00  0.00    +0.026 A 
ATOM     22  C   UNL     1       2.354   2.605  12.286  0.00  0.00    +0.111 A 
ATOM     23  N   UNL     1       1.345   3.299  12.777  0.00  0.00    -0.263 NA
ATOM     24  C   UNL     1       0.143   3.250  12.238  0.00  0.00    +0.111 A 
ATOM     25  C   UNL     1      -0.102   2.466  11.127  0.00  0.00    +0.026 A 
ENDBRANCH  19  20
ENDBRANCH  18  19
ENDBRANCH  15  18
ENDBRANCH   9  12
ENDBRANCH   7   8
BRANCH   5  26
ATOM     26  N   UNL     1       0.205  -4.437  -0.488  0.00  0.00    -0.281 N 
ATOM     27  C   UNL     1       0.684  -5.000  -1.614  0.00  0.00    +0.248 C 
ATOM     28  O   UNL     1       0.960  -4.305  -2.573  0.00  0.00    -0.270 OA
ATOM     29  H   UNL     1      -0.078  -4.996   0.252  0.00  0.00    +0.155 HD
BRANCH  27  30
ATOM     30  C   UNL     1       0.875  -6.465  -1.685  0.00  0.00    +0.041 A 
ATOM     31  C   UNL     1       1.376  -7.050  -2.848  0.00  0.00    +0.036 A 
ATOM     32  C   UNL     1       1.553  -8.424  -2.907  0.00  0.00    +0.033 A 
ATOM     33  C   UNL     1       1.231  -9.215  -1.811  0.00  0.00    +0.061 A 
ATOM     34  C   UNL     1       0.733  -8.635  -0.656  0.00  0.00    +0.126 A 
ATOM     35  C   UNL     1       0.559  -7.265  -0.586  0.00  0.00    +0.051 A 
ATOM     36  F   UNL     1       0.422  -9.409   0.406  0.00  0.00    -0.205 F 
BRANCH  32  37
ATOM     37  N   UNL     1       2.054  -9.014  -4.070  0.00  0.00    -0.325 N 
ATOM     38  C   UNL     1       2.524  -8.190  -5.195  0.00  0.00    +0.133 C 
ATOM     39  C   UNL     1       3.922  -8.673  -5.598  0.00  0.00    +0.178 C 
ATOM     40  O   UNL     1       3.887 -10.085  -5.817  0.00  0.00    -0.377 OA
ATOM     41  C   UNL     1       3.546 -10.849  -4.657  0.00  0.00    +0.178 C 
ATOM     42  C   UNL     1       2.135 -10.477  -4.204  0.00  0.00    +0.133 C 
ENDBRANCH  32  37
ENDBRANCH  27  30
ENDBRANCH   5  26
TORSDOF 8
