REMARK  Name = CHEMBL18525
REMARK  9 active torsions:
REMARK  status: ('A' for Active; 'I' for Inactive)
REMARK    1  A    between atoms: C_1  and  C_2
REMARK    2  A    between atoms: C_2  and  C_3
REMARK    3  A    between atoms: C_2  and  C_4
REMARK    4  A    between atoms: C_2  and  C_5
REMARK    5  A    between atoms: C_7  and  N_14
REMARK    6  A    between atoms: C_8  and  C_10
REMARK    7  A    between atoms: C_10  and  O_12
REMARK    8  A    between atoms: O_12  and  C_13
REMARK    9  A    between atoms: N_17  and  C_18
REMARK                            x       y       z     vdW  Elec       q    Type
REMARK                         _______ _______ _______ _____ _____    ______ ____
ROOT
ATOM      1  N   UNL     1       3.452  -0.858  -3.495  0.00  0.00    -0.266 N 
ATOM      2  C   UNL     1       4.509  -0.171  -3.020  0.00  0.00    +0.308 C 
ATOM      3  O   UNL     1       4.420   0.433  -1.969  0.00  0.00    -0.252 OA
ATOM      4  N   UNL     1       5.666  -0.153  -3.711  0.00  0.00    -0.268 N 
ATOM      5  H   UNL     1       3.523  -1.340  -4.334  0.00  0.00    +0.156 HD
ATOM      6  H   UNL     1       5.759  -0.686  -4.516  0.00  0.00    +0.156 HD
ENDROOT
BRANCH   4   7
ATOM      7  C   UNL     1       6.734   0.636  -3.267  0.00  0.00    +0.055 A 
ATOM      8  C   UNL     1       6.952   0.811  -1.907  0.00  0.00    +0.025 A 
ATOM      9  C   UNL     1       8.007   1.589  -1.472  0.00  0.00    +0.003 A 
ATOM     10  C   UNL     1       8.846   2.195  -2.388  0.00  0.00    +0.021 A 
ATOM     11  C   UNL     1       8.633   2.025  -3.744  0.00  0.00    +0.061 A 
ATOM     12  C   UNL     1       7.582   1.242  -4.187  0.00  0.00    +0.080 A 
ATOM     13 CL   UNL     1       7.317   1.021  -5.888  0.00  0.00    -0.080 Cl
ATOM     14 CL   UNL     1       9.689   2.788  -4.892  0.00  0.00    -0.082 Cl
ENDBRANCH   4   7
BRANCH   1  17
ATOM     15  C   UNL     1       0.717  -0.512  -1.222  0.00  0.00    +0.113 A 
ATOM     16  C   UNL     1       1.993  -0.232  -1.555  0.00  0.00    +0.069 A 
ATOM     17  C   UNL     1       2.256  -0.877  -2.781  0.00  0.00    +0.088 A 
ATOM     18  C   UNL     1       1.087  -1.532  -3.135  0.00  0.00    +0.233 A 
ATOM     19  O   UNL     1       0.176  -1.295  -2.165  0.00  0.00    -0.451 OA
BRANCH  15  21
ATOM     20  C   UNL     1      -0.018   1.504   0.021  0.00  0.00    +0.019 C 
ATOM     21  C   UNL     1       0.012  -0.026   0.018  0.00  0.00    +0.020 C 
ATOM     22  C   UNL     1       0.759  -0.523   1.257  0.00  0.00    +0.019 C 
ATOM     23  C   UNL     1      -1.420  -0.564   0.035  0.00  0.00    +0.019 C 
ENDBRANCH  15  21
BRANCH  18  24
ATOM     24  C   UNL     1       0.886  -2.312  -4.297  0.00  0.00    +0.376 C 
ATOM     25  O   UNL     1       1.792  -2.456  -5.098  0.00  0.00    -0.241 OA
BRANCH  24  26
ATOM     26  O   UNL     1      -0.310  -2.898  -4.518  0.00  0.00    -0.462 OA
ATOM     27  C   UNL     1      -0.442  -3.672  -5.712  0.00  0.00    +0.280 C 
ENDBRANCH  24  26
ENDBRANCH  18  24
ENDBRANCH   1  17
TORSDOF 5
