REMARK  Name = CHEMBL493707
REMARK  5 active torsions:
REMARK  status: ('A' for Active; 'I' for Inactive)
REMARK    1  A    between atoms: C_1  and  C_2
REMARK    2  A    between atoms: C_7  and  C_8
REMARK    3  A    between atoms: C_17  and  N_18
REMARK    4  A    between atoms: C_23  and  C_25
REMARK    5  A    between atoms: C_28  and  N_29
REMARK                            x       y       z     vdW  Elec       q    Type
REMARK                         _______ _______ _______ _____ _____    ______ ____
ROOT
ATOM      1  C   UNL     1      -0.850  -0.050   3.031  0.00  0.00    -0.015 A 
ATOM      2  C   UNL     1       0.334  -0.230   3.766  0.00  0.00    +0.009 A 
ATOM      3  C   UNL     1       0.600   0.532   4.860  0.00  0.00    +0.012 A 
ATOM      4  C   UNL     1      -0.315   1.511   5.265  0.00  0.00    +0.023 A 
ATOM      5  C   UNL     1      -1.516   1.704   4.531  0.00  0.00    +0.006 A 
ATOM      6  C   UNL     1      -1.772   0.916   3.405  0.00  0.00    +0.018 A 
ATOM      7  C   UNL     1      -2.404   2.701   4.977  0.00  0.00    +0.141 A 
ATOM      8  N   UNL     1      -2.092   3.405   6.041  0.00  0.00    -0.180 NA
ATOM      9  N   UNL     1      -1.011   3.237   6.707  0.00  0.00    -0.264 N 
ATOM     10  C   UNL     1      -0.098   2.335   6.392  0.00  0.00    +0.123 A 
ATOM     11  H   UNL     1      -0.855   3.799   7.482  0.00  0.00    +0.190 HD
ENDROOT
BRANCH   1  18
ATOM     12  C   UNL     1      -0.964   1.148   0.419  0.00  0.00    +0.044 C 
ATOM     13  C   UNL     1      -1.171  -0.336   0.581  0.00  0.00    -0.041 A 
ATOM     14  C   UNL     1      -1.411  -1.116  -0.545  0.00  0.00    +0.005 A 
ATOM     15  C   UNL     1      -1.607  -2.459  -0.475  0.00  0.00    +0.013 A 
ATOM     16  C   UNL     1      -1.572  -3.121   0.765  0.00  0.00    +0.039 A 
ATOM     17  C   UNL     1      -1.321  -2.337   1.983  0.00  0.00    +0.073 A 
ATOM     18  C   UNL     1      -1.113  -0.893   1.844  0.00  0.00    +0.010 A 
ATOM     19  N   UNL     1      -1.339  -3.179   2.994  0.00  0.00    -0.297 N 
ATOM     20  N   UNL     1      -1.587  -4.470   2.514  0.00  0.00    -0.286 N 
ATOM     21  C   UNL     1      -1.728  -4.443   1.178  0.00  0.00    +0.118 A 
ATOM     22  H   UNL     1      -1.648  -5.267   3.064  0.00  0.00    +0.188 HD
ATOM     23  H   UNL     1      -1.202  -2.943   3.925  0.00  0.00    +0.187 HD
BRANCH  21  24
ATOM     24  N   UNL     1      -1.981  -5.532   0.360  0.00  0.00    -0.343 N 
ATOM     25  H   UNL     1      -2.067  -5.408  -0.599  0.00  0.00    +0.144 HD
ATOM     26  H   UNL     1      -2.073  -6.417   0.745  0.00  0.00    +0.144 HD
ENDBRANCH  21  24
ENDBRANCH   1  18
BRANCH  10  27
ATOM     27  N   UNL     1       1.052   2.200   7.153  0.00  0.00    -0.308 N 
ATOM     28  C   UNL     1       1.101   1.271   8.293  0.00  0.00    +0.135 C 
ATOM     29  C   UNL     1       1.639   2.029   9.511  0.00  0.00    +0.179 C 
ATOM     30  O   UNL     1       2.868   2.671   9.162  0.00  0.00    -0.376 OA
ATOM     31  C   UNL     1       2.742   3.656   8.134  0.00  0.00    +0.182 C 
ATOM     32  C   UNL     1       2.262   2.977   6.841  0.00  0.00    +0.097 C 
ATOM     33  C   UNL     1       1.936   4.040   5.790  0.00  0.00    +0.030 C 
ENDBRANCH  10  27
TORSDOF 3
