REMARK  Name = CHEMBL118258
REMARK  6 active torsions:
REMARK  status: ('A' for Active; 'I' for Inactive)
REMARK    1  A    between atoms: C_1  and  N_2
REMARK    2  A    between atoms: C_5  and  C_8
REMARK    3  A    between atoms: C_5  and  O_35
REMARK    4  A    between atoms: C_11  and  C_13
REMARK    5  A    between atoms: C_17  and  C_19
REMARK    6  A    between atoms: N_29  and  C_30
REMARK                            x       y       z     vdW  Elec       q    Type
REMARK                         _______ _______ _______ _____ _____    ______ ____
ROOT
ATOM      1  C   UNL     1      -1.018  -4.282   1.146  0.00  0.00    +0.091 A 
ATOM      2  C   UNL     1       0.188  -4.340   0.546  0.00  0.00    +0.121 A 
ATOM      3  N   UNL     1       0.510  -5.668   0.422  0.00  0.00    -0.283 N 
ATOM      4  C   UNL     1      -0.527  -6.381   0.958  0.00  0.00    +0.147 A 
ATOM      5  N   UNL     1      -1.431  -5.531   1.392  0.00  0.00    -0.229 NA
ATOM      6  C   UNL     1       1.672  -6.191  -0.143  0.00  0.00    +0.144 A 
ATOM      7  C   UNL     1       2.924  -5.718   0.249  0.00  0.00    +0.066 A 
ATOM      8  C   UNL     1       4.050  -6.266  -0.339  0.00  0.00    +0.118 A 
ATOM      9  N   UNL     1       3.907  -7.216  -1.250  0.00  0.00    -0.223 NA
ATOM     10  C   UNL     1       2.705  -7.646  -1.602  0.00  0.00    +0.217 A 
ATOM     11  N   UNL     1       1.603  -7.151  -1.059  0.00  0.00    -0.197 NA
ATOM     12  N   UNL     1       2.597  -8.641  -2.558  0.00  0.00    -0.311 N 
ATOM     13  H   UNL     1       1.723  -8.965  -2.825  0.00  0.00    +0.149 HD
ENDROOT
BRANCH   1  18
ATOM     14  C   UNL     1      -5.046  -0.295   1.544  0.00  0.00    -0.096 C 
ATOM     15  N   UNL     1      -4.212  -1.475   1.278  0.00  0.00    +0.378 N 
ATOM     16  C   UNL     1      -3.836  -2.104   2.549  0.00  0.00    -0.076 C 
ATOM     17  C   UNL     1      -3.036  -3.379   2.275  0.00  0.00    +0.022 C 
ATOM     18  C   UNL     1      -1.772  -3.022   1.487  0.00  0.00    +0.106 C 
ATOM     19  C   UNL     1      -2.173  -2.300   0.198  0.00  0.00    +0.022 C 
ATOM     20  C   UNL     1      -3.006  -1.065   0.549  0.00  0.00    -0.076 C 
ATOM     21  H   UNL     1      -4.733  -2.135   0.719  0.00  0.00    -0.082 HD
BRANCH  18  22
ATOM     22  O   UNL     1      -0.943  -2.167   2.276  0.00  0.00    -0.383 OA
ATOM     23  H   UNL     1      -0.123  -1.900   1.838  0.00  0.00    +0.211 HD
ENDBRANCH  18  22
ENDBRANCH   1  18
BRANCH   4  24
ATOM     24  C   UNL     1      -0.614  -7.855   1.041  0.00  0.00    +0.018 A 
ATOM     25  C   UNL     1       0.548  -8.628   1.024  0.00  0.00    +0.011 A 
ATOM     26  C   UNL     1       0.460 -10.002   1.102  0.00  0.00    +0.001 A 
ATOM     27  C   UNL     1      -0.777 -10.615   1.197  0.00  0.00    +0.012 A 
ATOM     28  C   UNL     1      -1.933  -9.855   1.214  0.00  0.00    +0.055 A 
ATOM     29  C   UNL     1      -1.858  -8.479   1.143  0.00  0.00    +0.024 A 
BRANCH  28  30
ATOM     30  C   UNL     1      -3.275 -10.531   1.317  0.00  0.00    +0.417 C 
ATOM     31  F   UNL     1      -3.096 -11.917   1.382  0.00  0.00    -0.166 F 
ATOM     32  F   UNL     1      -3.932 -10.092   2.472  0.00  0.00    -0.166 F 
ATOM     33  F   UNL     1      -4.045 -10.213   0.193  0.00  0.00    -0.166 F 
ENDBRANCH  28  30
ENDBRANCH   4  24
BRANCH  12  34
ATOM     34  C   UNL     1       3.804  -9.206  -3.167  0.00  0.00    +0.073 C 
ATOM     35  C   UNL     1       4.217  -8.371  -4.396  0.00  0.00    +0.022 C 
ATOM     36  C   UNL     1       4.739  -9.419  -5.410  0.00  0.00    +0.002 C 
ATOM     37  C   UNL     1       3.770 -10.610  -5.199  0.00  0.00    +0.002 C 
ATOM     38  C   UNL     1       3.521 -10.630  -3.677  0.00  0.00    +0.022 C 
ENDBRANCH  12  34
TORSDOF 5
