REMARK  Name = CHEMBL1092001
REMARK  4 active torsions:
REMARK  status: ('A' for Active; 'I' for Inactive)
REMARK    1  A    between atoms: C_6  and  C_7
REMARK    2  A    between atoms: C_8  and  C_24
REMARK    3  A    between atoms: C_9  and  C_13
REMARK    4  A    between atoms: N_16  and  C_19
REMARK                            x       y       z     vdW  Elec       q    Type
REMARK                         _______ _______ _______ _____ _____    ______ ____
ROOT
ATOM      1  C   UNL     1      -1.257  -0.789   0.043  0.00  0.00    +0.102 A 
ATOM      2  C   UNL     1      -1.543  -1.948  -0.726  0.00  0.00    +0.049 A 
ATOM      3  C   UNL     1      -2.835  -2.301  -0.466  0.00  0.00    +0.049 A 
ATOM      4  N   UNL     1      -3.336  -1.415   0.416  0.00  0.00    -0.280 N 
ATOM      5  H   UNL     1      -4.236  -1.423   0.778  0.00  0.00    +0.189 HD
ATOM      6  N   UNL     1      -2.337  -0.484   0.726  0.00  0.00    -0.173 NA
ENDROOT
BRANCH   1  12
ATOM      7  C   UNL     1       0.735   0.172  -1.108  0.00  0.00    +0.011 A 
ATOM      8  C   UNL     1       1.934   0.854  -1.074  0.00  0.00    +0.020 A 
ATOM      9  C   UNL     1       2.440   1.310   0.132  0.00  0.00    +0.041 A 
ATOM     10  C   UNL     1       1.746   1.084   1.308  0.00  0.00    +0.020 A 
ATOM     11  C   UNL     1       0.546   0.404   1.285  0.00  0.00    +0.011 A 
ATOM     12  C   UNL     1       0.033  -0.057   0.074  0.00  0.00    +0.003 A 
ATOM     13 CL   UNL     1       3.950   2.166   0.168  0.00  0.00    -0.084 Cl
ENDBRANCH   1  12
BRANCH   3  14
ATOM     14  C   UNL     1      -3.571  -3.474  -1.062  0.00  0.00    +0.034 C 
ATOM     15  C   UNL     1      -4.802  -2.973  -1.822  0.00  0.00    -0.009 C 
ATOM     16  C   UNL     1      -5.588  -4.172  -2.356  0.00  0.00    -0.078 C 
ATOM     17  N   UNL     1      -6.014  -5.021  -1.237  0.00  0.00    +0.383 N 
ATOM     18  C   UNL     1      -4.837  -5.562  -0.546  0.00  0.00    -0.078 C 
ATOM     19  C   UNL     1      -4.023  -4.416   0.058  0.00  0.00    -0.009 C 
ATOM     20  H   UNL     1      -6.560  -4.472  -0.589  0.00  0.00    -0.081 HD
BRANCH  17  21
ATOM     21  C   UNL     1      -6.833  -6.128  -1.747  0.00  0.00    -0.040 C 
ATOM     22  C   UNL     1      -7.421  -6.965  -0.579  0.00  0.00    +0.015 C 
ATOM     23  C   UNL     1      -8.713  -7.517  -1.233  0.00  0.00    +0.158 C 
ATOM     24  O   UNL     1      -9.191  -6.455  -2.073  0.00  0.00    -0.381 OA
ATOM     25  C   UNL     1      -8.105  -5.595  -2.441  0.00  0.00    +0.144 C 
ENDBRANCH  17  21
ENDBRANCH   3  14
BRANCH   2  26
ATOM     26  C   UNL     1      -0.610  -2.644  -1.641  0.00  0.00    +0.078 A 
ATOM     27  C   UNL     1       0.688  -2.961  -1.228  0.00  0.00    +0.048 A 
ATOM     28  C   UNL     1       1.519  -3.612  -2.120  0.00  0.00    +0.114 A 
ATOM     29  N   UNL     1       1.063  -3.912  -3.328  0.00  0.00    -0.244 NA
ATOM     30  C   UNL     1      -0.166  -3.600  -3.687  0.00  0.00    +0.221 A 
ATOM     31  N   UNL     1      -0.996  -2.985  -2.870  0.00  0.00    -0.235 NA
ENDBRANCH   2  26
TORSDOF 4
