REMARK  Name = CHEMBL370156
REMARK  10 active torsions:
REMARK  status: ('A' for Active; 'I' for Inactive)
REMARK    1  A    between atoms: C_1  and  C_2
REMARK    2  A    between atoms: C_2  and  C_3
REMARK    3  A    between atoms: C_2  and  C_4
REMARK    4  A    between atoms: C_2  and  O_33
REMARK    5  A    between atoms: C_5  and  C_6
REMARK    6  A    between atoms: C_9  and  O_31
REMARK    7  A    between atoms: C_10  and  C_12
REMARK    8  A    between atoms: C_16  and  N_19
REMARK    9  A    between atoms: N_19  and  C_20
REMARK   10  A    between atoms: O_31  and  C_32
REMARK                            x       y       z     vdW  Elec       q    Type
REMARK                         _______ _______ _______ _____ _____    ______ ____
ROOT
ATOM      1  C   UNL     1      -5.642  -4.769  -0.557  0.00  0.00    +0.124 A 
ATOM      2  C   UNL     1      -4.626  -5.822  -0.448  0.00  0.00    +0.135 A 
ATOM      3  C   UNL     1      -5.324  -7.018  -0.191  0.00  0.00    +0.177 A 
ATOM      4  N   UNL     1      -4.650  -8.154  -0.043  0.00  0.00    -0.210 NA
ATOM      5  C   UNL     1      -3.330  -8.153  -0.139  0.00  0.00    +0.144 A 
ATOM      6  C   UNL     1      -2.640  -6.962  -0.394  0.00  0.00    +0.155 A 
ATOM      7  N   UNL     1      -3.298  -5.833  -0.542  0.00  0.00    -0.246 NA
ATOM      8  N   UNL     1      -6.655  -6.701  -0.150  0.00  0.00    -0.258 N 
ATOM      9  N   UNL     1      -6.812  -5.330  -0.370  0.00  0.00    -0.170 NA
ATOM     10  H   UNL     1      -7.377  -7.330   0.010  0.00  0.00    +0.191 HD
ENDROOT
BRANCH   1  15
ATOM     11  C   UNL     1      -3.859  -1.522  -1.245  0.00  0.00    +0.026 A 
ATOM     12  C   UNL     1      -4.935  -0.635  -1.321  0.00  0.00    +0.020 A 
ATOM     13  C   UNL     1      -6.225  -1.092  -1.150  0.00  0.00    +0.047 A 
ATOM     14  C   UNL     1      -6.461  -2.436  -0.901  0.00  0.00    +0.129 A 
ATOM     15  C   UNL     1      -5.390  -3.333  -0.823  0.00  0.00    +0.047 A 
ATOM     16  C   UNL     1      -4.089  -2.875  -1.001  0.00  0.00    +0.030 A 
BRANCH  11  18
ATOM     17  C   UNL     1      -1.425  -0.650  -1.568  0.00  0.00    -0.063 C 
ATOM     18  C   UNL     1      -2.521  -1.043  -1.422  0.00  0.00    -0.063 C 
BRANCH  17  20
ATOM     19  C   UNL     1      -0.077   1.351  -2.001  0.00  0.00    +0.055 C 
ATOM     20  C   UNL     1      -0.050  -0.158  -1.750  0.00  0.00    +0.121 C 
ATOM     21  C   UNL     1       0.768  -0.451  -0.491  0.00  0.00    +0.055 C 
BRANCH  20  22
ATOM     22  O   UNL     1       0.547  -0.816  -2.870  0.00  0.00    -0.377 OA
ATOM     23  H   UNL     1       1.457  -0.540  -3.049  0.00  0.00    +0.211 HD
ENDBRANCH  20  22
ENDBRANCH  17  20
ENDBRANCH  11  18
BRANCH  14  24
ATOM     24  O   UNL     1      -7.733  -2.881  -0.733  0.00  0.00    -0.494 OA
ATOM     25  C   UNL     1      -8.778  -1.911  -0.825  0.00  0.00    +0.277 C 
ENDBRANCH  14  24
ENDBRANCH   1  15
BRANCH   5  26
ATOM     26  N   UNL     1      -2.625  -9.340   0.016  0.00  0.00    -0.296 N 
ATOM     27  H   UNL     1      -1.655  -9.327   0.047  0.00  0.00    +0.154 HD
BRANCH  26  28
ATOM     28  C   UNL     1      -3.314 -10.554   0.127  0.00  0.00    +0.068 A 
ATOM     29  C   UNL     1      -4.566 -10.698  -0.454  0.00  0.00    +0.029 A 
ATOM     30  C   UNL     1      -5.244 -11.896  -0.344  0.00  0.00    +0.040 A 
ATOM     31  C   UNL     1      -4.676 -12.954   0.346  0.00  0.00    +0.126 A 
ATOM     32  C   UNL     1      -3.427 -12.814   0.927  0.00  0.00    +0.078 A 
ATOM     33  C   UNL     1      -2.742 -11.619   0.814  0.00  0.00    +0.147 A 
ATOM     34  F   UNL     1      -1.520 -11.484   1.375  0.00  0.00    -0.203 F 
ATOM     35  F   UNL     1      -5.343 -14.125   0.453  0.00  0.00    -0.205 F 
ENDBRANCH  26  28
ENDBRANCH   5  26
TORSDOF 7
