REMARK  Name = CHEMBL92415
REMARK  3 active torsions:
REMARK  status: ('A' for Active; 'I' for Inactive)
REMARK    1  A    between atoms: C_4  and  N_8
REMARK    2  A    between atoms: C_13  and  C_15
REMARK    3  A    between atoms: C_16  and  C_24
REMARK                            x       y       z     vdW  Elec       q    Type
REMARK                         _______ _______ _______ _____ _____    ______ ____
ROOT
ATOM      1  N   UNL     1       1.531  -4.662   1.379  0.00  0.00    -0.281 N 
ATOM      2  C   UNL     1       2.651  -3.971   0.948  0.00  0.00    +0.220 A 
ATOM      3  N   UNL     1       2.556  -2.668   0.716  0.00  0.00    -0.223 NA
ATOM      4  C   UNL     1       3.602  -1.972   0.304  0.00  0.00    +0.116 A 
ATOM      5  C   UNL     1       4.813  -2.617   0.113  0.00  0.00    +0.050 A 
ATOM      6  C   UNL     1       4.883  -3.991   0.365  0.00  0.00    +0.095 A 
ATOM      7  N   UNL     1       3.788  -4.626   0.783  0.00  0.00    -0.213 NA
ATOM      8  H   UNL     1       1.565  -5.626   1.480  0.00  0.00    +0.155 HD
ENDROOT
BRANCH   6   9
ATOM      9  C   UNL     1       6.151  -4.726   0.175  0.00  0.00    +0.097 A 
ATOM     10  C   UNL     1       6.321  -6.091   0.291  0.00  0.00    +0.075 A 
ATOM     11  C   UNL     1       7.737  -6.365   0.019  0.00  0.00    +0.276 A 
ATOM     12  O   UNL     1       8.276  -7.457   0.025  0.00  0.00    -0.266 OA
ATOM     13  N   UNL     1       8.329  -5.178  -0.240  0.00  0.00    -0.249 N 
ATOM     14  N   UNL     1       7.368  -4.167  -0.153  0.00  0.00    -0.279 N 
ATOM     15  C   UNL     1       7.987  -2.861  -0.440  0.00  0.00    +0.144 C 
ATOM     16  C   UNL     1       9.505  -3.095  -0.289  0.00  0.00    +0.046 C 
ATOM     17  C   UNL     1       9.640  -4.601  -0.585  0.00  0.00    +0.147 C 
BRANCH  10  18
ATOM     18  C   UNL     1       5.277  -7.085   0.626  0.00  0.00    -0.010 A 
ATOM     19  C   UNL     1       4.694  -7.089   1.894  0.00  0.00    +0.011 A 
ATOM     20  C   UNL     1       3.721  -8.018   2.200  0.00  0.00    +0.039 A 
ATOM     21  C   UNL     1       3.324  -8.947   1.252  0.00  0.00    +0.123 A 
ATOM     22  C   UNL     1       3.899  -8.947  -0.008  0.00  0.00    +0.039 A 
ATOM     23  C   UNL     1       4.869  -8.019  -0.327  0.00  0.00    +0.011 A 
ATOM     24  F   UNL     1       2.371  -9.855   1.558  0.00  0.00    -0.205 F 
ENDBRANCH  10  18
ENDBRANCH   6   9
BRANCH   1  28
ATOM     25  C   UNL     1      -1.987  -2.601   2.244  0.00  0.00    +0.003 A 
ATOM     26  C   UNL     1      -1.548  -2.697   0.936  0.00  0.00    +0.022 A 
ATOM     27  C   UNL     1      -0.381  -3.380   0.646  0.00  0.00    +0.064 A 
ATOM     28  C   UNL     1       0.350  -3.970   1.669  0.00  0.00    +0.071 A 
ATOM     29  C   UNL     1      -0.095  -3.870   2.982  0.00  0.00    +0.064 A 
ATOM     30  C   UNL     1      -1.262  -3.187   3.265  0.00  0.00    +0.022 A 
ATOM     31 CL   UNL     1       0.815  -4.606   4.265  0.00  0.00    -0.082 Cl
ATOM     32 CL   UNL     1       0.169  -3.501  -0.997  0.00  0.00    -0.082 Cl
ENDBRANCH   1  28
TORSDOF 3
