REMARK  Name = CHEMBL258851
REMARK  5 active torsions:
REMARK  status: ('A' for Active; 'I' for Inactive)
REMARK    1  A    between atoms: C_1  and  C_2
REMARK    2  A    between atoms: C_5  and  C_29
REMARK    3  A    between atoms: C_7  and  N_8
REMARK    4  A    between atoms: N_13  and  C_23
REMARK    5  A    between atoms: N_31  and  C_32
REMARK                            x       y       z     vdW  Elec       q    Type
REMARK                         _______ _______ _______ _____ _____    ______ ____
ROOT
ATOM      1  N   UNL     1       0.032   0.002   2.390  0.00  0.00    -0.299 N 
ATOM      2  C   UNL     1       0.152  -0.685   3.583  0.00  0.00    +0.139 A 
ATOM      3  C   UNL     1       0.051  -0.011   4.816  0.00  0.00    +0.079 A 
ATOM      4  C   UNL     1      -0.166   1.332   5.196  0.00  0.00    +0.148 A 
ATOM      5  N   UNL     1      -0.168   1.399   6.498  0.00  0.00    -0.172 NA
ATOM      6  N   UNL     1       0.044   0.123   7.036  0.00  0.00    -0.214 N 
ATOM      7  C   UNL     1       0.181  -0.759   6.002  0.00  0.00    +0.170 A 
ATOM      8  N   UNL     1       0.395  -2.071   5.915  0.00  0.00    -0.194 NA
ATOM      9  C   UNL     1       0.484  -2.662   4.736  0.00  0.00    +0.221 A 
ATOM     10  N   UNL     1       0.361  -1.996   3.594  0.00  0.00    -0.198 NA
ATOM     11  N   UNL     1       0.707  -4.027   4.690  0.00  0.00    -0.300 N 
ATOM     12  C   UNL     1       0.956  -4.894   5.852  0.00  0.00    +0.108 C 
ATOM     13  C   UNL     1       1.173  -6.325   5.317  0.00  0.00    +0.020 C 
ATOM     14  C   UNL     1       1.595  -6.085   3.844  0.00  0.00    +0.020 C 
ATOM     15  C   UNL     1       0.729  -4.854   3.470  0.00  0.00    +0.108 C 
ATOM     16  H   UNL     1      -0.036   0.969   2.392  0.00  0.00    +0.154 HD
ENDROOT
BRANCH   1  23
ATOM     17  C   UNL     1       1.190   1.237   0.107  0.00  0.00    +0.045 C 
ATOM     18  C   UNL     1       0.563  -0.132   0.038  0.00  0.00    -0.029 A 
ATOM     19  C   UNL     1       0.548  -0.823  -1.159  0.00  0.00    +0.006 A 
ATOM     20  C   UNL     1      -0.024  -2.076  -1.231  0.00  0.00    +0.013 A 
ATOM     21  C   UNL     1      -0.589  -2.652  -0.091  0.00  0.00    +0.038 A 
ATOM     22  C   UNL     1      -0.574  -1.955   1.117  0.00  0.00    +0.036 A 
ATOM     23  C   UNL     1       0.008  -0.698   1.180  0.00  0.00    +0.036 A 
BRANCH  21  24
ATOM     24  C   UNL     1      -1.203  -3.995  -0.165  0.00  0.00    +0.244 C 
ATOM     25  O   UNL     1      -1.611  -4.533   0.846  0.00  0.00    -0.270 OA
ATOM     26  N   UNL     1      -1.310  -4.623  -1.353  0.00  0.00    -0.314 N 
ATOM     27  C   UNL     1      -1.918  -5.954  -1.426  0.00  0.00    +0.128 C 
ATOM     28  H   UNL     1      -0.985  -4.193  -2.159  0.00  0.00    +0.149 HD
ENDBRANCH  21  24
ENDBRANCH   1  23
BRANCH   6  29
ATOM     29  C   UNL     1       0.105  -0.193   8.399  0.00  0.00    +0.068 A 
ATOM     30  C   UNL     1      -0.386  -1.410   8.854  0.00  0.00    +0.028 A 
ATOM     31  C   UNL     1      -0.324  -1.719  10.198  0.00  0.00    +0.002 A 
ATOM     32  C   UNL     1       0.227  -0.818  11.091  0.00  0.00    +0.000 A 
ATOM     33  C   UNL     1       0.717   0.394  10.642  0.00  0.00    +0.002 A 
ATOM     34  C   UNL     1       0.663   0.707   9.297  0.00  0.00    +0.028 A 
ENDBRANCH   6  29
TORSDOF 3
