REMARK  Name = CHEMBL306667
REMARK  4 active torsions:
REMARK  status: ('A' for Active; 'I' for Inactive)
REMARK    1  A    between atoms: C_6  and  C_7
REMARK    2  A    between atoms: C_8  and  C_23
REMARK    3  A    between atoms: C_11  and  C_13
REMARK    4  A    between atoms: C_15  and  N_21
REMARK                            x       y       z     vdW  Elec       q    Type
REMARK                         _______ _______ _______ _____ _____    ______ ____
ROOT
ATOM      1  C   UNL     1      -1.264  -0.762   0.011  0.00  0.00    +0.074 A 
ATOM      2  C   UNL     1      -1.581  -1.858  -0.777  0.00  0.00    +0.097 A 
ATOM      3  N   UNL     1      -2.826  -2.245  -0.456  0.00  0.00    -0.227 NA
ATOM      4  H   UNL     1      -2.449   0.176   1.470  0.00  0.00    +0.167 HD
ATOM      5  C   UNL     1      -3.303  -1.459   0.481  0.00  0.00    +0.145 A 
ATOM      6  N   UNL     1      -2.360  -0.525   0.805  0.00  0.00    -0.337 N 
ENDROOT
BRANCH   5   7
ATOM      7  C   UNL     1      -4.644  -1.570   1.093  0.00  0.00    +0.095 A 
ATOM      8  C   UNL     1      -5.534  -2.575   0.696  0.00  0.00    +0.176 A 
ATOM      9  C   UNL     1      -6.784  -2.643   1.298  0.00  0.00    +0.156 A 
ATOM     10  N   UNL     1      -7.135  -1.772   2.232  0.00  0.00    -0.199 NA
ATOM     11  C   UNL     1      -6.322  -0.810   2.633  0.00  0.00    +0.251 A 
ATOM     12  C   UNL     1      -5.057  -0.676   2.090  0.00  0.00    +0.191 A 
ATOM     13  F   UNL     1      -4.232   0.308   2.512  0.00  0.00    -0.200 F 
ATOM     14  F   UNL     1      -6.731   0.051   3.590  0.00  0.00    -0.181 F 
ATOM     15  F   UNL     1      -5.182  -3.465  -0.258  0.00  0.00    -0.201 F 
BRANCH   9  16
ATOM     16  N   UNL     1      -7.680  -3.638   0.913  0.00  0.00    -0.341 N 
ATOM     17  H   UNL     1      -7.430  -4.278   0.229  0.00  0.00    +0.144 HD
ATOM     18  H   UNL     1      -8.555  -3.690   1.329  0.00  0.00    +0.144 HD
ENDBRANCH   9  16
ENDBRANCH   5   7
BRANCH   1  24
ATOM     19  C   UNL     1      -0.017   1.393   0.010  0.00  0.00    +0.013 A 
ATOM     20  C   UNL     1       1.169   2.096   0.002  0.00  0.00    +0.039 A 
ATOM     21  C   UNL     1       2.379   1.419  -0.013  0.00  0.00    +0.123 A 
ATOM     22  C   UNL     1       2.404   0.033  -0.021  0.00  0.00    +0.039 A 
ATOM     23  C   UNL     1       1.224  -0.680  -0.014  0.00  0.00    +0.013 A 
ATOM     24  C   UNL     1       0.002  -0.004   0.002  0.00  0.00    +0.001 A 
ATOM     25  F   UNL     1       3.538   2.113  -0.021  0.00  0.00    -0.205 F 
ENDBRANCH   1  24
BRANCH   2  26
ATOM     26  C   UNL     1      -0.705  -2.488  -1.790  0.00  0.00    +0.005 A 
ATOM     27  C   UNL     1       0.174  -1.717  -2.560  0.00  0.00    +0.030 A 
ATOM     28  C   UNL     1       0.973  -2.344  -3.493  0.00  0.00    +0.111 A 
ATOM     29  N   UNL     1       0.916  -3.652  -3.663  0.00  0.00    -0.263 NA
ATOM     30  C   UNL     1       0.102  -4.415  -2.959  0.00  0.00    +0.111 A 
ATOM     31  C   UNL     1      -0.727  -3.871  -2.001  0.00  0.00    +0.030 A 
ENDBRANCH   2  26
TORSDOF 4
