REMARK  Name = ZINC22748375
REMARK  9 active torsions:
REMARK  status: ('A' for Active; 'I' for Inactive)
REMARK    1  A    between atoms: C_1  and  C_2
REMARK    2  A    between atoms: C_5  and  C_9
REMARK    3  A    between atoms: C_12  and  C_14
REMARK    4  A    between atoms: C_15  and  C_16
REMARK    5  A    between atoms: N_18  and  C_19
REMARK    6  A    between atoms: C_19  and  N_21
REMARK    7  A    between atoms: N_21  and  C_22
REMARK    8  A    between atoms: C_25  and  N_29
REMARK    9  A    between atoms: C_27  and  C_28
REMARK                            x       y       z     vdW  Elec       q    Type
REMARK                         _______ _______ _______ _____ _____    ______ ____
ROOT
ATOM      1  C   UNL     1      -0.657  -8.374  -3.925  0.00  0.00    +0.242 C 
ATOM      2  O   UNL     1      -0.997  -9.481  -3.549  0.00  0.00    -0.270 OA
ATOM      3  N   UNL     1      -0.271  -8.184  -5.202  0.00  0.00    -0.264 N 
ATOM      4  H   UNL     1      -0.000  -7.302  -5.501  0.00  0.00    +0.157 HD
ENDROOT
BRANCH   1   6
ATOM      5  C   UNL     1      -1.057  -7.478  -1.734  0.00  0.00    +0.051 C 
ATOM      6  C   UNL     1      -0.668  -7.287  -3.021  0.00  0.00    +0.071 C 
BRANCH   5  10
ATOM      7  C   UNL     1      -0.851  -4.361  -0.016  0.00  0.00    +0.136 A 
ATOM      8  C   UNL     1      -1.300  -5.156   1.013  0.00  0.00    +0.050 A 
ATOM      9  C   UNL     1      -1.440  -6.448   0.500  0.00  0.00    +0.050 A 
ATOM     10  C   UNL     1      -1.068  -6.392  -0.830  0.00  0.00    +0.129 A 
ATOM     11  O   UNL     1      -0.722  -5.120  -1.119  0.00  0.00    -0.455 OA
BRANCH   7  16
ATOM     12  C   UNL     1       0.268   1.272   0.330  0.00  0.00    +0.045 C 
ATOM     13  C   UNL     1      -0.026  -0.203   0.239  0.00  0.00    -0.032 A 
ATOM     14  C   UNL     1       0.150  -0.868  -0.961  0.00  0.00    +0.005 A 
ATOM     15  C   UNL     1      -0.116  -2.218  -1.052  0.00  0.00    +0.012 A 
ATOM     16  C   UNL     1      -0.564  -2.916   0.073  0.00  0.00    +0.019 A 
ATOM     17  C   UNL     1      -0.739  -2.239   1.282  0.00  0.00    +0.031 A 
ATOM     18  C   UNL     1      -0.464  -0.888   1.360  0.00  0.00    +0.045 A 
ATOM     19 CL   UNL     1      -0.675  -0.046   2.863  0.00  0.00    -0.083 Cl
ENDBRANCH   7  16
ENDBRANCH   5  10
ENDBRANCH   1   6
BRANCH   3  20
ATOM     20  C   UNL     1      -0.261  -9.221  -6.064  0.00  0.00    +0.141 C 
ATOM     21  S   UNL     1      -0.738 -10.778  -5.536  0.00  0.00    -0.018 S 
BRANCH  20  22
ATOM     22  N   UNL     1       0.126  -9.031  -7.341  0.00  0.00    -0.296 N 
ATOM     23  H   UNL     1       0.320  -8.136  -7.661  0.00  0.00    +0.154 HD
BRANCH  22  24
ATOM     24  C   UNL     1       0.246 -10.125  -8.205  0.00  0.00    +0.037 A 
ATOM     25  C   UNL     1       0.869 -11.288  -7.771  0.00  0.00    +0.045 A 
ATOM     26  C   UNL     1       0.986 -12.367  -8.627  0.00  0.00    +0.073 A 
ATOM     27  C   UNL     1       0.484 -12.288  -9.915  0.00  0.00    +0.145 A 
ATOM     28  C   UNL     1      -0.136 -11.131 -10.348  0.00  0.00    +0.039 A 
ATOM     29  C   UNL     1      -0.261 -10.051  -9.495  0.00  0.00    -0.027 A 
ATOM     30  C   UNL     1      -0.942  -8.793  -9.967  0.00  0.00    +0.046 C 
ATOM     31 CL   UNL     1       1.763 -13.822  -8.087  0.00  0.00    -0.081 Cl
BRANCH  27  32
ATOM     32  N   UNL     1       0.612 -13.445 -10.830  0.00  0.00    +0.058 N 
ATOM     33  O   UNL     1       0.174 -13.377 -11.955  0.00  0.00    -0.126 OA
ATOM     34  O   UNL     1       1.154 -14.457 -10.452  0.00  0.00    -0.126 OA
ENDBRANCH  27  32
ENDBRANCH  22  24
ENDBRANCH  20  22
ENDBRANCH   3  20
TORSDOF 7
