REMARK  Name = ZINC02353912
REMARK  9 active torsions:
REMARK  status: ('A' for Active; 'I' for Inactive)
REMARK    1  A    between atoms: C_2  and  C_3
REMARK    2  A    between atoms: C_2  and  N_10
REMARK    3  A    between atoms: C_8  and  O_9
REMARK    4  A    between atoms: N_10  and  N_11
REMARK    5  A    between atoms: C_12  and  C_14
REMARK    6  A    between atoms: C_14  and  S_15
REMARK    7  A    between atoms: S_15  and  C_16
REMARK    8  A    between atoms: C_19  and  C_28
REMARK    9  A    between atoms: N_20  and  C_21
REMARK                            x       y       z     vdW  Elec       q    Type
REMARK                         _______ _______ _______ _____ _____    ______ ____
ROOT
ATOM      1  S   UNL     1       6.281  -1.006  -0.345  0.00  0.00    -0.076 S 
ENDROOT
BRANCH   1   2
ATOM      2  C   UNL     1       7.694   0.036  -0.489  0.00  0.00    +0.197 A 
ATOM      3  N   UNL     1       7.692   1.349  -0.551  0.00  0.00    -0.122 NA
ATOM      4  N   UNL     1       8.895   1.790  -0.652  0.00  0.00    -0.128 NA
ATOM      5  C   UNL     1       9.742   0.786  -0.661  0.00  0.00    +0.169 A 
ATOM      6  N   UNL     1       8.999  -0.369  -0.551  0.00  0.00    -0.270 N 
BRANCH   6   7
ATOM      7  C   UNL     1       9.480  -1.686  -0.513  0.00  0.00    +0.051 A 
ATOM      8  C   UNL     1      10.259  -2.111   0.555  0.00  0.00    +0.027 A 
ATOM      9  C   UNL     1      10.731  -3.409   0.590  0.00  0.00    +0.017 A 
ATOM     10  C   UNL     1      10.430  -4.284  -0.439  0.00  0.00    +0.018 A 
ATOM     11  C   UNL     1       9.655  -3.862  -1.504  0.00  0.00    +0.017 A 
ATOM     12  C   UNL     1       9.175  -2.568  -1.541  0.00  0.00    +0.027 A 
ATOM     13 BR   UNL     1      11.080  -6.059  -0.388  0.00  0.00    -0.050 Br
ENDBRANCH   6   7
BRANCH   5  14
ATOM     14  C   UNL     1      11.213   0.878  -0.764  0.00  0.00    +0.020 A 
ATOM     15  C   UNL     1      11.966  -0.253  -1.080  0.00  0.00    +0.011 A 
ATOM     16  C   UNL     1      13.340  -0.160  -1.174  0.00  0.00    +0.001 A 
ATOM     17  C   UNL     1      13.970   1.052  -0.956  0.00  0.00    +0.000 A 
ATOM     18  C   UNL     1      13.230   2.178  -0.642  0.00  0.00    +0.001 A 
ATOM     19  C   UNL     1      11.855   2.099  -0.551  0.00  0.00    +0.011 A 
ENDBRANCH   5  14
ENDBRANCH   1   2
BRANCH   1  20
ATOM     20  C   UNL     1       4.884   0.151  -0.316  0.00  0.00    +0.174 C 
BRANCH  20  22
ATOM     21  N   UNL     1       2.418   0.035  -0.153  0.00  0.00    -0.236 N 
ATOM     22  C   UNL     1       3.595  -0.621  -0.194  0.00  0.00    +0.239 C 
ATOM     23  O   UNL     1       3.617  -1.832  -0.133  0.00  0.00    -0.273 OA
ATOM     24  H   UNL     1       2.401   1.003  -0.203  0.00  0.00    +0.173 HD
BRANCH  21  25
ATOM     25  N   UNL     1       1.220  -0.683  -0.040  0.00  0.00    -0.264 N 
ATOM     26  H   UNL     1       1.238  -1.651   0.009  0.00  0.00    +0.170 HD
BRANCH  25  28
ATOM     27  C   UNL     1      -0.022   1.328  -0.066  0.00  0.00    +0.035 C 
ATOM     28  C   UNL     1       0.002  -0.004   0.002  0.00  0.00    +0.048 C 
BRANCH  28  29
ATOM     29  C   UNL     1      -1.264  -0.762   0.122  0.00  0.00    +0.038 A 
ATOM     30  C   UNL     1      -2.271  -0.599  -0.829  0.00  0.00    +0.013 A 
ATOM     31  C   UNL     1      -3.448  -1.308  -0.713  0.00  0.00    +0.001 A 
ATOM     32  C   UNL     1      -3.635  -2.182   0.345  0.00  0.00    +0.004 A 
ATOM     33  C   UNL     1      -2.644  -2.352   1.293  0.00  0.00    +0.046 A 
ATOM     34  C   UNL     1      -1.453  -1.650   1.186  0.00  0.00    +0.126 A 
BRANCH  34  35
ATOM     35  O   UNL     1      -0.476  -1.820   2.114  0.00  0.00    -0.506 OA
ATOM     36  H   UNL     1      -0.539  -1.216   2.867  0.00  0.00    +0.292 HD
ENDBRANCH  34  35
ENDBRANCH  28  29
ENDBRANCH  25  28
ENDBRANCH  21  25
ENDBRANCH  20  22
ENDBRANCH   1  20
TORSDOF 9
