REMARK  Name = ZINC67063453
REMARK  6 active torsions:
REMARK  status: ('A' for Active; 'I' for Inactive)
REMARK    1  A    between atoms: C_1  and  C_2
REMARK    2  A    between atoms: C_2  and  C_4
REMARK    3  A    between atoms: C_2  and  N_15
REMARK    4  A    between atoms: N_18  and  C_19
REMARK    5  A    between atoms: C_19  and  C_20
REMARK    6  A    between atoms: C_20  and  C_23
REMARK                            x       y       z     vdW  Elec       q    Type
REMARK                         _______ _______ _______ _____ _____    ______ ____
ROOT
ATOM      1  N   UNL     1      -1.662  -1.065  -0.648  0.00  0.00    -0.293 N 
ATOM      2  C   UNL     1      -2.148  -1.042   0.609  0.00  0.00    +0.300 C 
ATOM      3  O   UNL     1      -1.422  -0.738   1.536  0.00  0.00    -0.253 OA
ATOM      4  N   UNL     1      -3.438  -1.356   0.839  0.00  0.00    -0.299 N 
ATOM      5  H   UNL     1      -2.241  -1.307  -1.387  0.00  0.00    +0.151 HD
ATOM      6  H   UNL     1      -4.017  -1.599   0.100  0.00  0.00    +0.150 HD
ENDROOT
BRANCH   1   8
ATOM      7  C   UNL     1      -0.120   0.795  -1.027  0.00  0.00    +0.033 C 
ATOM      8  C   UNL     1      -0.260  -0.723  -0.897  0.00  0.00    +0.102 C 
BRANCH   8   9
ATOM      9  C   UNL     1       0.198  -1.381  -2.174  0.00  0.00    -0.025 A 
ATOM     10  C   UNL     1      -0.646  -1.425  -3.268  0.00  0.00    +0.009 A 
ATOM     11  C   UNL     1      -0.233  -2.026  -4.443  0.00  0.00    +0.048 A 
ATOM     12  C   UNL     1       1.030  -2.585  -4.524  0.00  0.00    +0.142 A 
ATOM     13  C   UNL     1       1.881  -2.542  -3.421  0.00  0.00    +0.076 A 
ATOM     14  C   UNL     1       1.464  -1.933  -2.249  0.00  0.00    +0.032 A 
ATOM     15  N   UNL     1       3.157  -3.114  -3.516  0.00  0.00    -0.280 N 
ATOM     16  C   UNL     1       3.653  -3.408  -4.738  0.00  0.00    +0.255 C 
ATOM     17  O   UNL     1       4.742  -3.933  -4.843  0.00  0.00    -0.272 OA
ATOM     18  C   UNL     1       2.848  -3.082  -5.970  0.00  0.00    +0.325 C 
ATOM     19  O   UNL     1       1.453  -3.179  -5.672  0.00  0.00    -0.481 OA
ATOM     20  H   UNL     1       3.676  -3.296  -2.717  0.00  0.00    +0.155 HD
ENDBRANCH   8   9
ENDBRANCH   1   8
BRANCH   4  21
ATOM     21  C   UNL     1      -3.966  -1.332   2.205  0.00  0.00    +0.117 C 
BRANCH  21  22
ATOM     22  C   UNL     1      -5.451  -1.701   2.185  0.00  0.00    +0.011 C 
ATOM     23  C   UNL     1      -5.940  -2.718   3.218  0.00  0.00    +0.014 C 
ATOM     24  C   UNL     1      -5.820  -3.120   1.747  0.00  0.00    +0.014 C 
BRANCH  22  25
ATOM     25  C   UNL     1      -6.392  -0.588   1.804  0.00  0.00    -0.040 A 
ATOM     26  C   UNL     1      -6.527   0.516   2.626  0.00  0.00    +0.005 A 
ATOM     27  C   UNL     1      -7.390   1.537   2.276  0.00  0.00    +0.020 A 
ATOM     28  C   UNL     1      -8.120   1.455   1.104  0.00  0.00    +0.041 A 
ATOM     29  C   UNL     1      -7.985   0.350   0.282  0.00  0.00    +0.020 A 
ATOM     30  C   UNL     1      -7.117  -0.668   0.629  0.00  0.00    +0.005 A 
ATOM     31 CL   UNL     1      -9.205   2.737   0.665  0.00  0.00    -0.084 Cl
ENDBRANCH  22  25
ENDBRANCH  21  22
ENDBRANCH   4  21
TORSDOF 5
