REMARK  Name = ZINC02246277
REMARK  11 active torsions:
REMARK  status: ('A' for Active; 'I' for Inactive)
REMARK    1  A    between atoms: C_1  and  C_2
REMARK    2  A    between atoms: N_8  and  C_9
REMARK    3  A    between atoms: C_9  and  C_10
REMARK    4  A    between atoms: C_10  and  C_11
REMARK    5  A    between atoms: C_14  and  O_19
REMARK    6  A    between atoms: C_15  and  O_17
REMARK    7  A    between atoms: O_17  and  C_18
REMARK    8  A    between atoms: O_19  and  C_20
REMARK    9  A    between atoms: C_21  and  C_29
REMARK   10  A    between atoms: C_23  and  C_27
REMARK   11  A    between atoms: C_24  and  N_26
REMARK                            x       y       z     vdW  Elec       q    Type
REMARK                         _______ _______ _______ _____ _____    ______ ____
ROOT
ATOM      1  C   UNL     1       0.431   5.247  -3.791  0.00  0.00    +0.064 C 
ATOM      2  C   UNL     1       0.326   6.742  -3.633  0.00  0.00    +0.022 A 
ATOM      3  C   UNL     1       0.851   7.550  -4.579  0.00  0.00    +0.068 A 
ATOM      4  C   UNL     1       0.755   8.950  -4.436  0.00  0.00    +0.141 A 
ATOM      5  C   UNL     1       0.123   9.466  -3.324  0.00  0.00    +0.072 A 
ATOM      6  C   UNL     1      -0.411   8.588  -2.372  0.00  0.00    +0.259 A 
ATOM      7  O   UNL     1      -0.978   9.031  -1.385  0.00  0.00    -0.267 OA
ATOM      8  N   UNL     1      -0.296   7.258  -2.540  0.00  0.00    -0.312 N 
ATOM      9  C   UNL     1      -0.001  10.952  -3.131  0.00  0.00    +0.105 C 
ATOM     10  C   UNL     1       0.958  11.673  -4.037  0.00  0.00    +0.098 C 
ATOM     11  C   UNL     1       1.534  11.048  -5.091  0.00  0.00    +0.199 C 
ATOM     12  O   UNL     1       1.279   9.760  -5.379  0.00  0.00    -0.441 OA
ENDROOT
BRANCH   9  13
ATOM     13  C   UNL     1      -1.410  11.381  -3.453  0.00  0.00    -0.015 A 
ATOM     14  C   UNL     1      -1.923  11.175  -4.719  0.00  0.00    +0.006 A 
ATOM     15  C   UNL     1      -3.215  11.568  -5.015  0.00  0.00    +0.002 A 
ATOM     16  C   UNL     1      -3.995  12.169  -4.044  0.00  0.00    +0.021 A 
ATOM     17  C   UNL     1      -3.482  12.377  -2.776  0.00  0.00    +0.060 A 
ATOM     18  C   UNL     1      -2.190  11.977  -2.478  0.00  0.00    +0.063 A 
ATOM     19 CL   UNL     1      -1.548  12.229  -0.885  0.00  0.00    -0.082 Cl
ATOM     20 CL   UNL     1      -4.460  13.133  -1.557  0.00  0.00    -0.082 Cl
ENDBRANCH   9  13
BRANCH  11  21
ATOM     21  N   UNL     1       2.404  11.750  -5.888  0.00  0.00    -0.328 N 
ATOM     22  H   UNL     1       2.824  11.316  -6.646  0.00  0.00    +0.145 HD
ATOM     23  H   UNL     1       2.598  12.680  -5.692  0.00  0.00    +0.145 HD
ENDBRANCH  11  21
BRANCH  10  24
ATOM     24  C   UNL     1       1.270  13.047  -3.779  0.00  0.00    +0.101 C 
ATOM     25  N   UNL     1       1.516  14.137  -3.574  0.00  0.00    -0.191 NA
ENDBRANCH  10  24
BRANCH   8  26
ATOM     26  C   UNL     1      -0.855   6.352  -1.533  0.00  0.00    +0.130 C 
BRANCH  26  27
ATOM     27  C   UNL     1       0.207   6.050  -0.474  0.00  0.00    +0.057 C 
BRANCH  27  28
ATOM     28  C   UNL     1      -0.368   5.119   0.562  0.00  0.00    -0.042 A 
ATOM     29  C   UNL     1      -1.003   5.634   1.677  0.00  0.00    +0.007 A 
ATOM     30  C   UNL     1      -1.532   4.784   2.629  0.00  0.00    +0.049 A 
ATOM     31  C   UNL     1      -1.432   3.411   2.465  0.00  0.00    +0.161 A 
ATOM     32  C   UNL     1      -0.787   2.893   1.346  0.00  0.00    +0.162 A 
ATOM     33  C   UNL     1      -0.259   3.751   0.395  0.00  0.00    +0.053 A 
BRANCH  32  34
ATOM     34  O   UNL     1      -0.682   1.547   1.184  0.00  0.00    -0.491 OA
ATOM     35  C   UNL     1      -0.013   1.086   0.008  0.00  0.00    +0.277 C 
ENDBRANCH  32  34
BRANCH  31  36
ATOM     36  O   UNL     1      -1.957   2.573   3.399  0.00  0.00    -0.491 OA
ATOM     37  C   UNL     1      -2.603   3.176   4.521  0.00  0.00    +0.277 C 
ENDBRANCH  31  36
ENDBRANCH  27  28
ENDBRANCH  26  27
ENDBRANCH   8  26
TORSDOF 8
