REMARK  Name = ZINC05700061
REMARK  11 active torsions:
REMARK  status: ('A' for Active; 'I' for Inactive)
REMARK    1  A    between atoms: C_1  and  C_2
REMARK    2  A    between atoms: C_5  and  S_8
REMARK    3  A    between atoms: S_8  and  O_11
REMARK    4  A    between atoms: O_11  and  C_12
REMARK    5  A    between atoms: C_12  and  C_13
REMARK    6  A    between atoms: C_15  and  O_29
REMARK    7  A    between atoms: C_17  and  O_28
REMARK    8  A    between atoms: C_19  and  N_45
REMARK    9  A    between atoms: C_21  and  O_24
REMARK   10  A    between atoms: C_25  and  C_26
REMARK   11  A    between atoms: C_25  and  N_45
REMARK                            x       y       z     vdW  Elec       q    Type
REMARK                         _______ _______ _______ _____ _____    ______ ____
ROOT
ATOM      1  C   UNL     1      -1.754   6.201   2.092  0.00  0.00    +0.180 C 
ATOM      2  C   UNL     1      -1.812   5.028   3.075  0.00  0.00    +0.173 C 
ATOM      3  C   UNL     1      -2.913   4.059   2.636  0.00  0.00    +0.136 C 
ATOM      4  C   UNL     1      -2.634   3.602   1.201  0.00  0.00    +0.017 C 
ATOM      5  C   UNL     1      -2.544   4.829   0.291  0.00  0.00    +0.236 C 
ATOM      6  O   UNL     1      -1.522   5.704   0.773  0.00  0.00    -0.345 OA
ENDROOT
BRANCH   4   7
ATOM      7  N   UNL     1      -1.356   2.866   1.166  0.00  0.00    +0.390 N 
ATOM      8  H   UNL     1      -1.248   2.332   2.036  0.00  0.00    -0.085 HD
ATOM      9  H   UNL     1      -0.582   3.536   1.077  0.00  0.00    -0.085 HD
BRANCH   7  10
ATOM     10  C   UNL     1      -1.329   1.939   0.019  0.00  0.00    -0.010 C 
BRANCH  10  11
ATOM     11  C   UNL     1      -0.014   1.203   0.009  0.00  0.00    +0.204 C 
ATOM     12  O   UNL     1       0.002  -0.004   0.002  0.00  0.00    -0.303 OA
ENDBRANCH  10  11
ENDBRANCH   7  10
ENDBRANCH   4   7
BRANCH   5  13
ATOM     13  O   UNL     1      -2.228   4.414  -1.040  0.00  0.00    -0.368 OA
ATOM     14  H   UNL     1      -2.155   5.142  -1.672  0.00  0.00    +0.212 HD
ENDBRANCH   5  13
BRANCH   3  15
ATOM     15  O   UNL     1      -2.926   2.925   3.505  0.00  0.00    -0.391 OA
ATOM     16  H   UNL     1      -3.098   3.141   4.432  0.00  0.00    +0.210 HD
ENDBRANCH   3  15
BRANCH   2  17
ATOM     17  O   UNL     1      -2.101   5.518   4.386  0.00  0.00    -0.387 OA
ATOM     18  H   UNL     1      -1.445   6.142   4.726  0.00  0.00    +0.210 HD
ENDBRANCH   2  17
BRANCH   1  19
ATOM     19  C   UNL     1      -0.616   7.144   2.490  0.00  0.00    +0.228 C 
BRANCH  19  20
ATOM     20  O   UNL     1      -0.634   8.295   1.643  0.00  0.00    -0.232 OA
BRANCH  20  21
ATOM     21  S   UNL     1       0.461   9.307   1.951  0.00  0.00    +0.112 S 
ATOM     22  O   UNL     1       0.175  10.463   1.175  0.00  0.00    -0.142 OA
ATOM     23  O   UNL     1       0.587   9.351   3.365  0.00  0.00    -0.142 OA
BRANCH  21  28
ATOM     24  C   UNL     1       5.633   7.039  -0.172  0.00  0.00    +0.044 C 
ATOM     25  C   UNL     1       4.341   7.605   0.358  0.00  0.00    -0.050 A 
ATOM     26  C   UNL     1       3.551   8.399  -0.452  0.00  0.00    +0.005 A 
ATOM     27  C   UNL     1       2.365   8.918   0.035  0.00  0.00    +0.030 A 
ATOM     28  C   UNL     1       1.971   8.644   1.331  0.00  0.00    +0.117 A 
ATOM     29  C   UNL     1       2.764   7.855   2.142  0.00  0.00    +0.030 A 
ATOM     30  C   UNL     1       3.946   7.330   1.654  0.00  0.00    +0.005 A 
ENDBRANCH  21  28
ENDBRANCH  20  21
ENDBRANCH  19  20
ENDBRANCH   1  19
TORSDOF 10
