REMARK  Name = ZINC00683729
REMARK  9 active torsions:
REMARK  status: ('A' for Active; 'I' for Inactive)
REMARK    1  A    between atoms: C_1  and  O_2
REMARK    2  A    between atoms: O_2  and  C_3
REMARK    3  A    between atoms: C_5  and  C_12
REMARK    4  A    between atoms: C_7  and  O_10
REMARK    5  A    between atoms: C_8  and  O_9
REMARK    6  A    between atoms: O_10  and  C_11
REMARK    7  A    between atoms: C_24  and  S_27
REMARK    8  A    between atoms: S_27  and  C_28
REMARK    9  A    between atoms: C_28  and  C_29
REMARK                            x       y       z     vdW  Elec       q    Type
REMARK                         _______ _______ _______ _____ _____    ______ ____
ROOT
ATOM      1  C   UNL     1      -3.270   3.732   1.291  0.00  0.00    +0.294 C 
ATOM      2  N   UNL     1      -2.403   3.747   0.129  0.00  0.00    -0.305 N 
ATOM      3  C   UNL     1      -1.210   3.016   0.157  0.00  0.00    +0.039 A 
ATOM      4  C   UNL     1       0.020   3.646   0.179  0.00  0.00    +0.024 A 
ATOM      5  C   UNL     1       1.178   2.892   0.235  0.00  0.00    +0.002 A 
ATOM      6  C   UNL     1       1.113   1.510   0.269  0.00  0.00    +0.001 A 
ATOM      7  C   UNL     1      -0.108   0.866   0.241  0.00  0.00    +0.012 A 
ATOM      8  C   UNL     1      -1.280   1.610   0.174  0.00  0.00    +0.028 A 
ATOM      9  C   UNL     1      -2.606   0.962   0.111  0.00  0.00    +0.156 A 
ATOM     10  C   UNL     1      -3.644   1.413   0.956  0.00  0.00    +0.248 A 
ATOM     11  N   UNL     1      -4.827   0.828   0.878  0.00  0.00    -0.184 NA
ATOM     12  C   UNL     1      -5.004  -0.168   0.015  0.00  0.00    +0.213 A 
ATOM     13  N   UNL     1      -4.014  -0.582  -0.766  0.00  0.00    -0.122 NA
ATOM     14  N   UNL     1      -2.847  -0.037  -0.725  0.00  0.00    -0.141 NA
ATOM     15  O   UNL     1      -3.411   2.423   1.828  0.00  0.00    -0.449 OA
ATOM     16  H   UNL     1      -2.653   4.254  -0.659  0.00  0.00    +0.150 HD
ENDROOT
BRANCH   1  19
ATOM     17  C   UNL     1      -1.516   6.645   2.941  0.00  0.00    +0.165 A 
ATOM     18  C   UNL     1      -2.059   5.812   1.974  0.00  0.00    +0.058 A 
ATOM     19  C   UNL     1      -2.682   4.635   2.344  0.00  0.00    +0.018 A 
ATOM     20  C   UNL     1      -2.771   4.286   3.679  0.00  0.00    +0.058 A 
ATOM     21  C   UNL     1      -2.226   5.111   4.651  0.00  0.00    +0.165 A 
ATOM     22  C   UNL     1      -1.599   6.295   4.283  0.00  0.00    +0.201 A 
BRANCH  17  24
ATOM     23  C   UNL     1      -0.854   8.098   1.178  0.00  0.00    +0.277 C 
ATOM     24  O   UNL     1      -0.902   7.803   2.576  0.00  0.00    -0.491 OA
ENDBRANCH  17  24
BRANCH  22  25
ATOM     25  O   UNL     1      -1.068   7.110   5.235  0.00  0.00    -0.501 OA
ATOM     26  H   UNL     1      -1.685   7.773   5.574  0.00  0.00    +0.292 HD
ENDBRANCH  22  25
BRANCH  21  27
ATOM     27  O   UNL     1      -2.310   4.764   5.964  0.00  0.00    -0.491 OA
ATOM     28  C   UNL     1      -2.969   3.533   6.269  0.00  0.00    +0.277 C 
ENDBRANCH  21  27
ENDBRANCH   1  19
BRANCH  12  29
ATOM     29  S   UNL     1      -6.578  -0.952  -0.093  0.00  0.00    -0.080 S 
BRANCH  29  30
ATOM     30  C   UNL     1      -6.232  -2.177  -1.379  0.00  0.00    +0.114 C 
BRANCH  30  31
ATOM     31  C   UNL     1      -7.473  -2.990  -1.646  0.00  0.00    -0.019 A 
ATOM     32  C   UNL     1      -8.376  -2.576  -2.608  0.00  0.00    +0.006 A 
ATOM     33  C   UNL     1      -9.514  -3.321  -2.853  0.00  0.00    +0.000 A 
ATOM     34  C   UNL     1      -9.750  -4.480  -2.137  0.00  0.00    +0.001 A 
ATOM     35  C   UNL     1      -8.848  -4.894  -1.176  0.00  0.00    +0.020 A 
ATOM     36  C   UNL     1      -7.706  -4.152  -0.934  0.00  0.00    +0.045 A 
ATOM     37 CL   UNL     1      -6.568  -4.676   0.268  0.00  0.00    -0.083 Cl
ENDBRANCH  30  31
ENDBRANCH  29  30
ENDBRANCH  12  29
TORSDOF 7
