REMARK  Name = ZINC34954625
REMARK  9 active torsions:
REMARK  status: ('A' for Active; 'I' for Inactive)
REMARK    1  A    between atoms: C_1  and  C_2
REMARK    2  A    between atoms: C_7  and  C_22
REMARK    3  A    between atoms: C_12  and  C_20
REMARK    4  A    between atoms: C_13  and  N_19
REMARK    5  A    between atoms: C_14  and  C_15
REMARK    6  A    between atoms: C_14  and  C_17
REMARK    7  A    between atoms: C_22  and  C_23
REMARK    8  A    between atoms: C_22  and  C_24
REMARK    9  A    between atoms: C_22  and  C_25
REMARK                            x       y       z     vdW  Elec       q    Type
REMARK                         _______ _______ _______ _____ _____    ______ ____
ROOT
ATOM      1  C   UNL     1      -0.019   1.526   0.010  0.00  0.00    +0.011 C 
ATOM      2  C   UNL     1       0.002  -0.004   0.002  0.00  0.00    +0.033 C 
ATOM      3  C   UNL     1       0.723  -0.500  -1.253  0.00  0.00    +0.026 C 
ATOM      4  C   UNL     1      -0.077  -0.230  -2.506  0.00  0.00    +0.013 C 
ATOM      5  C   UNL     1       0.407   1.024  -3.232  0.00  0.00    -0.001 C 
ATOM      6  C   UNL     1       1.886   0.831  -3.595  0.00  0.00    +0.031 C 
ATOM      7  C   UNL     1       2.656   0.657  -2.311  0.00  0.00    -0.021 C 
ATOM      8  C   UNL     1       2.099   0.097  -1.274  0.00  0.00    -0.029 C 
ATOM      9  C   UNL     1       2.864   0.067   0.001  0.00  0.00    +0.074 C 
ATOM     10  C   UNL     1       2.214  -0.208   1.160  0.00  0.00    +0.054 C 
ATOM     11  C   UNL     1       0.746  -0.513   1.237  0.00  0.00    +0.184 C 
ENDROOT
BRANCH   5  12
ATOM     12  C   UNL     1      -0.414   1.231  -4.506  0.00  0.00    -0.035 C 
ATOM     13  C   UNL     1      -1.891   1.396  -4.140  0.00  0.00    +0.011 C 
ATOM     14  C   UNL     1       0.075   2.487  -5.229  0.00  0.00    +0.011 C 
ATOM     15  C   UNL     1      -0.249   0.018  -5.423  0.00  0.00    +0.011 C 
ENDBRANCH   5  12
BRANCH  10  16
ATOM     16  N   UNL     1       2.935  -0.208   2.321  0.00  0.00    -0.358 N 
ATOM     17  H   UNL     1       3.886  -0.014   2.301  0.00  0.00    +0.142 HD
ATOM     18  H   UNL     1       2.497  -0.401   3.164  0.00  0.00    +0.142 HD
ENDBRANCH  10  16
BRANCH  11  19
ATOM     19  C   UNL     1       0.181   0.128   2.436  0.00  0.00    +0.091 C 
ATOM     20  N   UNL     1      -0.255   0.623   3.361  0.00  0.00    -0.195 NA
ENDBRANCH  11  19
BRANCH  11  21
ATOM     21  C   UNL     1       0.563  -1.970   1.342  0.00  0.00    +0.091 C 
ATOM     22  N   UNL     1       0.422  -3.094   1.423  0.00  0.00    -0.195 NA
ENDBRANCH  11  21
BRANCH   9  23
ATOM     23  C   UNL     1       4.272   0.325   0.005  0.00  0.00    +0.101 C 
ATOM     24  N   UNL     1       5.390   0.530   0.008  0.00  0.00    -0.191 NA
ENDBRANCH   9  23
TORSDOF 5
