REMARK  Name = ZINC13567589
REMARK  6 active torsions:
REMARK  status: ('A' for Active; 'I' for Inactive)
REMARK    1  A    between atoms: C_1  and  C_2
REMARK    2  A    between atoms: C_5  and  N_8
REMARK    3  A    between atoms: N_23  and  C_26
REMARK    4  A    between atoms: C_26  and  C_27
REMARK    5  A    between atoms: C_29  and  C_32
REMARK    6  A    between atoms: C_30  and  N_31
REMARK                            x       y       z     vdW  Elec       q    Type
REMARK                         _______ _______ _______ _____ _____    ______ ____
ROOT
ATOM      1  N   UNL     1      -2.736  -1.487   0.189  0.00  0.00    -0.260 N 
ATOM      2  C   UNL     1      -3.469  -0.947   1.213  0.00  0.00    +0.025 C 
ATOM      3  C   UNL     1      -3.617   0.391   1.323  0.00  0.00    +0.037 C 
ATOM      4  C   UNL     1      -4.379   0.953   2.362  0.00  0.00    +0.162 C 
ATOM      5  O   UNL     1      -4.487   2.161   2.436  0.00  0.00    -0.292 OA
ATOM      6  C   UNL     1      -5.064   0.087   3.384  0.00  0.00    +0.080 C 
ATOM      7  C   UNL     1      -5.395  -1.267   2.749  0.00  0.00    +0.014 C 
ATOM      8  C   UNL     1      -4.100  -1.883   2.215  0.00  0.00    +0.052 C 
ATOM      9  C   UNL     1      -2.967   1.321   0.333  0.00  0.00    +0.141 C 
ATOM     10  C   UNL     1      -1.786   2.007   0.950  0.00  0.00    -0.001 A 
ATOM     11  C   UNL     1      -0.607   1.508   1.460  0.00  0.00    +0.007 A 
ATOM     12  C   UNL     1       0.295   2.431   1.979  0.00  0.00    +0.000 A 
ATOM     13  C   UNL     1       0.017   3.783   1.985  0.00  0.00    +0.002 A 
ATOM     14  C   UNL     1      -1.169   4.291   1.478  0.00  0.00    +0.024 A 
ATOM     15  C   UNL     1      -2.083   3.375   0.955  0.00  0.00    +0.041 A 
ATOM     16  N   UNL     1      -3.327   3.599   0.392  0.00  0.00    -0.266 N 
ATOM     17  C   UNL     1      -3.919   2.452  -0.001  0.00  0.00    +0.240 C 
ATOM     18  O   UNL     1      -5.008   2.346  -0.524  0.00  0.00    -0.274 OA
ATOM     19  C   UNL     1      -2.566   0.602  -0.919  0.00  0.00    +0.089 C 
ATOM     20  C   UNL     1      -2.465  -0.753  -0.944  0.00  0.00    +0.108 C 
ENDROOT
BRANCH   1  25
ATOM     21  C   UNL     1      -0.798  -6.801   0.621  0.00  0.00    +0.044 C 
ATOM     22  C   UNL     1      -1.313  -5.390   0.506  0.00  0.00    -0.050 A 
ATOM     23  C   UNL     1      -2.532  -5.147  -0.100  0.00  0.00    +0.005 A 
ATOM     24  C   UNL     1      -3.007  -3.854  -0.206  0.00  0.00    +0.024 A 
ATOM     25  C   UNL     1      -2.258  -2.798   0.296  0.00  0.00    +0.040 A 
ATOM     26  C   UNL     1      -1.032  -3.044   0.899  0.00  0.00    +0.024 A 
ATOM     27  C   UNL     1      -0.565  -4.340   1.007  0.00  0.00    +0.005 A 
ENDBRANCH   1  25
BRANCH  20  28
ATOM     28  N   UNL     1      -2.090  -1.393  -2.101  0.00  0.00    -0.345 N 
ATOM     29  H   UNL     1      -1.808  -0.875  -2.872  0.00  0.00    +0.144 HD
ATOM     30  H   UNL     1      -2.108  -2.361  -2.148  0.00  0.00    +0.144 HD
ENDBRANCH  20  28
BRANCH  19  31
ATOM     31  C   UNL     1      -2.288   1.352  -2.107  0.00  0.00    +0.100 C 
ATOM     32  N   UNL     1      -2.067   1.947  -3.049  0.00  0.00    -0.191 NA
ENDBRANCH  19  31
BRANCH  16  33
ATOM     33  C   UNL     1      -3.931   4.925   0.242  0.00  0.00    +0.140 C 
BRANCH  33  34
ATOM     34  C   UNL     1      -3.536   5.509  -1.089  0.00  0.00    -0.015 C 
ATOM     35  C   UNL     1      -4.459   5.913  -1.927  0.00  0.00    +0.005 C 
ENDBRANCH  33  34
ENDBRANCH  16  33
TORSDOF 5
