REMARK  Name = ZINC32855885
REMARK  11 active torsions:
REMARK  status: ('A' for Active; 'I' for Inactive)
REMARK    1  A    between atoms: C_1  and  C_2
REMARK    2  A    between atoms: C_5  and  C_33
REMARK    3  A    between atoms: C_6  and  O_9
REMARK    4  A    between atoms: C_7  and  C_8
REMARK    5  A    between atoms: O_9  and  C_10
REMARK    6  A    between atoms: C_10  and  C_11
REMARK    7  A    between atoms: C_11  and  C_13
REMARK    8  A    between atoms: C_11  and  O_32
REMARK    9  A    between atoms: C_13  and  N_14
REMARK   10  A    between atoms: C_25  and  O_27
REMARK   11  A    between atoms: O_27  and  C_28
REMARK                            x       y       z     vdW  Elec       q    Type
REMARK                         _______ _______ _______ _____ _____    ______ ____
ROOT
ATOM      1  N   UNL     1      -1.946   0.218  -2.595  0.00  0.00    -0.221 N 
ATOM      2  C   UNL     1      -2.053   0.836  -1.400  0.00  0.00    +0.251 C 
ATOM      3  O   UNL     1      -2.991   0.792  -0.633  0.00  0.00    -0.272 OA
ATOM      4  C   UNL     1      -0.757   1.594  -1.220  0.00  0.00    +0.138 C 
ATOM      5  C   UNL     1      -0.013   1.086   0.008  0.00  0.00    +0.040 C 
ATOM      6  C   UNL     1      -0.739   1.585   1.264  0.00  0.00    +0.008 C 
ATOM      7  C   UNL     1      -0.560   3.098   1.357  0.00  0.00    +0.036 C 
ATOM      8  C   UNL     1      -0.941   3.763   0.061  0.00  0.00    -0.038 A 
ATOM      9  C   UNL     1      -1.028   3.070  -1.128  0.00  0.00    -0.012 A 
ATOM     10  C   UNL     1      -1.379   3.741  -2.292  0.00  0.00    +0.010 A 
ATOM     11  C   UNL     1      -1.643   5.094  -2.271  0.00  0.00    +0.046 A 
ATOM     12  C   UNL     1      -1.559   5.793  -1.075  0.00  0.00    +0.120 A 
ATOM     13  C   UNL     1      -1.209   5.124   0.085  0.00  0.00    +0.049 A 
ATOM     14  N   UNL     1       0.003   1.293  -2.440  0.00  0.00    -0.281 N 
ATOM     15  C   UNL     1      -0.773   0.481  -3.183  0.00  0.00    +0.310 C 
ATOM     16  O   UNL     1      -0.446   0.037  -4.266  0.00  0.00    -0.252 OA
ATOM     17  H   UNL     1       1.006   1.721  -2.583  0.00  0.00    +0.152 HD
ENDROOT
BRANCH  12  18
ATOM     18  O   UNL     1      -1.821   7.126  -1.043  0.00  0.00    -0.495 OA
ATOM     19  C   UNL     1      -2.176   7.747  -2.280  0.00  0.00    +0.277 C 
ENDBRANCH  12  18
BRANCH   1  20
ATOM     20  C   UNL     1      -2.986  -0.636  -3.176  0.00  0.00    +0.152 C 
BRANCH  20  21
ATOM     21  C   UNL     1      -2.764  -2.083  -2.732  0.00  0.00    +0.170 C 
BRANCH  21  22
ATOM     22  O   UNL     1      -1.480  -2.527  -3.176  0.00  0.00    -0.387 OA
ATOM     23  H   UNL     1      -0.572  -2.004  -2.841  0.00  0.00    +0.210 HD
ENDBRANCH  21  22
BRANCH  21  24
ATOM     24  C   UNL     1      -3.849  -2.974  -3.339  0.00  0.00    +0.262 C 
BRANCH  24  25
ATOM     25  O   UNL     1      -3.713  -4.304  -2.832  0.00  0.00    -0.489 OA
BRANCH  25  31
ATOM     26  C   UNL     1      -4.939  -7.719  -6.096  0.00  0.00    +0.044 C 
ATOM     27  C   UNL     1      -5.239  -6.910  -4.860  0.00  0.00    -0.044 A 
ATOM     28  C   UNL     1      -6.424  -7.108  -4.176  0.00  0.00    +0.004 A 
ATOM     29  C   UNL     1      -6.701  -6.368  -3.042  0.00  0.00    +0.007 A 
ATOM     30  C   UNL     1      -5.793  -5.432  -2.586  0.00  0.00    -0.009 A 
ATOM     31  C   UNL     1      -4.606  -5.228  -3.275  0.00  0.00    +0.127 A 
ATOM     32  C   UNL     1      -4.329  -5.972  -4.412  0.00  0.00    -0.006 A 
ATOM     33  C   UNL     1      -3.038  -5.756  -5.160  0.00  0.00    +0.048 C 
ATOM     34  C   UNL     1      -6.093  -4.630  -1.347  0.00  0.00    +0.047 C 
ENDBRANCH  25  31
ENDBRANCH  24  25
ENDBRANCH  21  24
ENDBRANCH  20  21
ENDBRANCH   1  20
TORSDOF 7
