REMARK  Name = ZINC12406695
REMARK  2 active torsions:
REMARK  status: ('A' for Active; 'I' for Inactive)
REMARK    1  A    between atoms: C_1  and  C_2
REMARK    2  A    between atoms: C_6  and  C_20
REMARK                            x       y       z     vdW  Elec       q    Type
REMARK                         _______ _______ _______ _____ _____    ______ ____
ROOT
ATOM      1  C   UNL     1       0.034   1.502   0.012  0.00  0.00    +0.044 C 
ATOM      2  C   UNL     1       0.021  -0.005   0.003  0.00  0.00    -0.040 C 
ATOM      3  C   UNL     1       0.029  -0.692  -1.171  0.00  0.00    +0.028 C 
ATOM      4  C   UNL     1       0.016  -2.095  -1.171  0.00  0.00    +0.046 C 
ATOM      5  C   UNL     1       0.026  -2.786  -2.404  0.00  0.00    +0.082 C 
ATOM      6  C   UNL     1      -0.077  -2.213  -3.696  0.00  0.00    +0.071 C 
ATOM      7  N   UNL     1      -0.030  -3.175  -4.573  0.00  0.00    -0.175 NA
ATOM      8  N   UNL     1       0.103  -4.403  -3.918  0.00  0.00    -0.132 N 
ATOM      9  C   UNL     1       0.145  -4.180  -2.588  0.00  0.00    +0.276 C 
ATOM     10  O   UNL     1       0.261  -5.023  -1.712  0.00  0.00    -0.268 OA
ATOM     11  C   UNL     1       0.185  -5.644  -4.533  0.00  0.00    +0.189 A 
ATOM     12  N   UNL     1       0.304  -6.829  -3.983  0.00  0.00    -0.223 NA
ATOM     13  C   UNL     1       0.373  -7.964  -4.712  0.00  0.00    +0.080 A 
ATOM     14  C   UNL     1       0.502  -9.294  -4.247  0.00  0.00    +0.029 A 
ATOM     15  C   UNL     1       0.559 -10.341  -5.128  0.00  0.00    +0.002 A 
ATOM     16  C   UNL     1       0.493 -10.139  -6.500  0.00  0.00    +0.001 A 
ATOM     17  C   UNL     1       0.367  -8.852  -6.989  0.00  0.00    +0.017 A 
ATOM     18  C   UNL     1       0.309  -7.797  -6.114  0.00  0.00    +0.041 A 
ATOM     19  S   UNL     1       0.147  -6.035  -6.277  0.00  0.00    -0.050 S 
ATOM     20  C   UNL     1      -0.218  -0.745  -4.003  0.00  0.00    +0.068 C 
ATOM     21  N   UNL     1      -0.004  -2.807  -0.009  0.00  0.00    -0.313 N 
ATOM     22  C   UNL     1      -0.013  -2.166   1.209  0.00  0.00    +0.039 A 
ATOM     23  C   UNL     1       0.005  -0.758   1.256  0.00  0.00    -0.001 A 
ATOM     24  C   UNL     1       0.001  -0.103   2.493  0.00  0.00    +0.010 A 
ATOM     25  C   UNL     1      -0.015  -0.834   3.647  0.00  0.00    +0.001 A 
ATOM     26  C   UNL     1      -0.027  -2.222   3.604  0.00  0.00    +0.002 A 
ATOM     27  C   UNL     1      -0.034  -2.889   2.398  0.00  0.00    +0.024 A 
ATOM     28  H   UNL     1      -0.012  -3.776  -0.041  0.00  0.00    +0.152 HD
ENDROOT
TORSDOF 0
