REMARK  Name = ZINC05176057
REMARK  3 active torsions:
REMARK  status: ('A' for Active; 'I' for Inactive)
REMARK    1  A    between atoms: C_4  and  C_7
REMARK    2  A    between atoms: C_12  and  O_30
REMARK    3  A    between atoms: C_20  and  C_25
REMARK                            x       y       z     vdW  Elec       q    Type
REMARK                         _______ _______ _______ _____ _____    ______ ____
ROOT
ATOM      1  C   UNL     1       1.240  -2.185  -0.021  0.00  0.00    +0.091 C 
ATOM      2  C   UNL     1      -0.084  -2.757   0.413  0.00  0.00    +0.007 A 
ATOM      3  C   UNL     1      -0.157  -4.077   0.819  0.00  0.00    +0.012 A 
ATOM      4  C   UNL     1      -1.364  -4.615   1.221  0.00  0.00    +0.046 A 
ATOM      5  C   UNL     1      -2.508  -3.830   1.218  0.00  0.00    +0.120 A 
ATOM      6  C   UNL     1      -2.438  -2.508   0.811  0.00  0.00    +0.092 A 
ATOM      7  C   UNL     1      -1.224  -1.967   0.406  0.00  0.00    +0.138 A 
ATOM      8  O   UNL     1      -1.174  -0.674   0.009  0.00  0.00    -0.437 OA
ATOM      9  C   UNL     1       0.002  -0.004   0.002  0.00  0.00    +0.230 A 
ATOM     10  C   UNL     1       1.188  -0.689  -0.013  0.00  0.00    +0.070 A 
ATOM     11  C   UNL     1       2.363   0.082  -0.020  0.00  0.00    +0.167 A 
ATOM     12  N   UNL     1       3.635  -0.234  -0.034  0.00  0.00    -0.206 NA
ATOM     13  C   UNL     1       4.374   0.884  -0.034  0.00  0.00    +0.189 A 
ATOM     14  N   UNL     1       3.574   1.942  -0.020  0.00  0.00    -0.143 NA
ATOM     15  N   UNL     1       2.272   1.463  -0.011  0.00  0.00    -0.201 N 
ATOM     16  C   UNL     1       1.064   2.080   0.003  0.00  0.00    +0.229 A 
ATOM     17  N   UNL     1      -0.016   1.338   0.009  0.00  0.00    -0.201 NA
ENDROOT
BRANCH   1  21
ATOM     18  C   UNL     1       2.142  -3.548  -3.968  0.00  0.00    +0.000 A 
ATOM     19  C   UNL     1       2.986  -3.861  -2.919  0.00  0.00    +0.000 A 
ATOM     20  C   UNL     1       2.694  -3.420  -1.642  0.00  0.00    +0.004 A 
ATOM     21  C   UNL     1       1.558  -2.666  -1.414  0.00  0.00    -0.035 A 
ATOM     22  C   UNL     1       0.711  -2.358  -2.462  0.00  0.00    +0.004 A 
ATOM     23  C   UNL     1       1.005  -2.795  -3.740  0.00  0.00    +0.000 A 
ENDBRANCH   1  21
BRANCH  13  24
ATOM     24  C   UNL     1       5.851   0.932  -0.046  0.00  0.00    +0.058 A 
ATOM     25  C   UNL     1       6.679   2.022  -0.053  0.00  0.00    +0.019 A 
ATOM     26  C   UNL     1       8.041   1.820  -0.061  0.00  0.00    +0.008 A 
ATOM     27  C   UNL     1       8.521   0.549  -0.072  0.00  0.00    +0.046 A 
ATOM     28  S   UNL     1       7.020  -0.417  -0.064  0.00  0.00    -0.093 S 
ENDBRANCH  13  24
BRANCH   5  29
ATOM     29  O   UNL     1      -3.696  -4.358   1.613  0.00  0.00    -0.507 OA
ATOM     30  H   UNL     1      -4.207  -4.758   0.895  0.00  0.00    +0.292 HD
ENDBRANCH   5  29
TORSDOF 3
