REMARK  Name = ZINC13498954
REMARK  15 active torsions:
REMARK  status: ('A' for Active; 'I' for Inactive)
REMARK    1  A    between atoms: C_1  and  C_2
REMARK    2  A    between atoms: C_6  and  C_15
REMARK    3  A    between atoms: C_13  and  C_14
REMARK    4  A    between atoms: C_15  and  N_69
REMARK    5  A    between atoms: C_16  and  C_17
REMARK    6  A    between atoms: C_16  and  N_69
REMARK    7  A    between atoms: C_17  and  C_18
REMARK    8  A    between atoms: C_18  and  O_19
REMARK    9  A    between atoms: C_20  and  C_22
REMARK   10  A    between atoms: C_20  and  C_35
REMARK   11  A    between atoms: C_20  and  N_69
REMARK   12  A    between atoms: N_26  and  C_27
REMARK   13  A    between atoms: C_27  and  C_28
REMARK   14  A    between atoms: C_35  and  C_36
REMARK   15  A    between atoms: C_35  and  C_37
REMARK                            x       y       z     vdW  Elec       q    Type
REMARK                         _______ _______ _______ _____ _____    ______ ____
ROOT
ATOM      1  N   UNL     1      -5.267   3.743  -0.601  0.00  0.00    +0.389 N 
ATOM      2  H   UNL     1      -4.475   4.273  -0.982  0.00  0.00    -0.080 HD
ENDROOT
BRANCH   1   3
ATOM      3  C   UNL     1      -5.127   3.662   0.869  0.00  0.00    -0.037 C 
BRANCH   3   9
ATOM      4  C   UNL     1       1.860   5.550   2.666  0.00  0.00    +0.044 C 
ATOM      5  C   UNL     1       0.818   4.505   2.364  0.00  0.00    -0.047 A 
ATOM      6  C   UNL     1      -0.462   4.888   2.075  0.00  0.00    +0.013 A 
ATOM      7  C   UNL     1      -1.429   3.917   1.794  0.00  0.00    -0.001 A 
ATOM      8  C   UNL     1      -2.809   4.293   1.481  0.00  0.00    +0.017 A 
ATOM      9  C   UNL     1      -3.700   3.309   1.200  0.00  0.00    +0.001 A 
ATOM     10  C   UNL     1      -3.298   1.957   1.228  0.00  0.00    +0.251 A 
ATOM     11  O   UNL     1      -4.117   1.088   0.982  0.00  0.00    -0.268 OA
ATOM     12  N   UNL     1      -2.034   1.602   1.519  0.00  0.00    -0.322 N 
ATOM     13  H   UNL     1      -1.791   0.663   1.530  0.00  0.00    +0.169 HD
ATOM     14  C   UNL     1      -1.078   2.554   1.804  0.00  0.00    +0.049 A 
ATOM     15  C   UNL     1       0.229   2.188   2.105  0.00  0.00    +0.030 A 
ATOM     16  C   UNL     1       1.166   3.161   2.379  0.00  0.00    -0.046 A 
ATOM     17  C   UNL     1       2.584   2.763   2.700  0.00  0.00    +0.044 C 
ENDBRANCH   3   9
ENDBRANCH   1   3
BRANCH   1  18
ATOM     18  C   UNL     1      -5.262   2.385  -1.185  0.00  0.00    -0.075 C 
BRANCH  18  19
ATOM     19  C   UNL     1      -5.077   2.502  -2.699  0.00  0.00    +0.009 C 
BRANCH  19  20
ATOM     20  C   UNL     1      -4.918   1.105  -3.302  0.00  0.00    +0.154 C 
BRANCH  20  21
ATOM     21  O   UNL     1      -4.634   1.218  -4.698  0.00  0.00    -0.395 OA
ATOM     22  H   UNL     1      -4.521   0.369  -5.146  0.00  0.00    +0.209 HD
ENDBRANCH  20  21
ENDBRANCH  19  20
ENDBRANCH  18  19
ENDBRANCH   1  18
BRANCH   1  23
ATOM     23  C   UNL     1      -6.524   4.438  -0.951  0.00  0.00    +0.006 C 
BRANCH  23  24
ATOM     24  C   UNL     1      -7.572   4.190   0.103  0.00  0.00    +0.139 A 
ATOM     25  N   UNL     1      -7.411   4.270   1.401  0.00  0.00    -0.115 NA
ATOM     26  N   UNL     1      -8.537   3.987   1.960  0.00  0.00    -0.023 NA
ATOM     27  N   UNL     1      -9.412   3.729   1.052  0.00  0.00    -0.044 NA
ATOM     28  N   UNL     1      -8.857   3.848  -0.107  0.00  0.00    -0.226 N 
BRANCH  28  29
ATOM     29  C   UNL     1      -9.503   3.647  -1.406  0.00  0.00    +0.182 C 
BRANCH  29  30
ATOM     30  C   UNL     1      -9.531   2.175  -1.730  0.00  0.00    -0.026 A 
ATOM     31  C   UNL     1      -8.470   1.596  -2.400  0.00  0.00    +0.008 A 
ATOM     32  C   UNL     1      -8.492   0.245  -2.694  0.00  0.00    +0.038 A 
ATOM     33  C   UNL     1      -9.583  -0.524  -2.327  0.00  0.00    +0.123 A 
ATOM     34  C   UNL     1     -10.647   0.058  -1.660  0.00  0.00    +0.038 A 
ATOM     35  C   UNL     1     -10.620   1.408  -1.363  0.00  0.00    +0.008 A 
ATOM     36  F   UNL     1      -9.608  -1.844  -2.617  0.00  0.00    -0.205 F 
ENDBRANCH  29  30
ENDBRANCH  28  29
ENDBRANCH  23  24
BRANCH  23  37
ATOM     37  C   UNL     1      -6.240   5.939  -1.044  0.00  0.00    -0.024 C 
ATOM     38  C   UNL     1      -7.531   6.680  -1.399  0.00  0.00    +0.006 C 
ATOM     39  C   UNL     1      -5.715   6.443   0.301  0.00  0.00    +0.006 C 
ENDBRANCH  23  37
ENDBRANCH   1  23
TORSDOF 11
