REMARK  Name = ZINC01296701
REMARK  5 active torsions:
REMARK  status: ('A' for Active; 'I' for Inactive)
REMARK    1  A    between atoms: C_4  and  C_7
REMARK    2  A    between atoms: C_13  and  C_27
REMARK    3  A    between atoms: C_14  and  C_21
REMARK    4  A    between atoms: C_16  and  C_19
REMARK    5  A    between atoms: C_17  and  N_18
REMARK                            x       y       z     vdW  Elec       q    Type
REMARK                         _______ _______ _______ _____ _____    ______ ____
ROOT
ATOM      1  C   UNL     1      -3.966  -2.463  -0.422  0.00  0.00    +0.028 C 
ATOM      2  C   UNL     1      -3.699  -1.140  -0.279  0.00  0.00    +0.079 A 
ATOM      3  C   UNL     1      -2.439  -0.478   0.083  0.00  0.00    +0.271 A 
ATOM      4  O   UNL     1      -1.435  -1.127   0.306  0.00  0.00    -0.266 OA
ATOM      5  N   UNL     1      -2.422   0.868   0.163  0.00  0.00    -0.257 N 
ATOM      6  C   UNL     1      -3.598   1.540  -0.102  0.00  0.00    +0.099 A 
ATOM      7  C   UNL     1      -3.734   2.892  -0.061  0.00  0.00    +0.057 C 
ATOM      8  C   UNL     1      -2.521   3.726   0.299  0.00  0.00    +0.100 C 
ATOM      9  C   UNL     1      -1.252   2.950   0.589  0.00  0.00    +0.079 C 
ATOM     10  C   UNL     1      -1.279   1.602   0.500  0.00  0.00    +0.118 C 
ATOM     11  S   UNL     1      -4.783   0.264  -0.479  0.00  0.00    -0.065 S 
ENDROOT
BRANCH   1  15
ATOM     12  C   UNL     1      -7.959  -3.767  -1.001  0.00  0.00    +0.000 A 
ATOM     13  C   UNL     1      -6.908  -4.557  -1.432  0.00  0.00    +0.001 A 
ATOM     14  C   UNL     1      -5.607  -4.140  -1.248  0.00  0.00    +0.008 A 
ATOM     15  C   UNL     1      -5.351  -2.915  -0.622  0.00  0.00    -0.024 A 
ATOM     16  C   UNL     1      -6.419  -2.125  -0.183  0.00  0.00    +0.008 A 
ATOM     17  C   UNL     1      -7.715  -2.554  -0.381  0.00  0.00    +0.001 A 
ENDBRANCH   1  15
BRANCH   8  18
ATOM     18  C   UNL     1      -2.856   4.544   1.519  0.00  0.00    -0.035 A 
ATOM     19  C   UNL     1      -3.218   3.915   2.695  0.00  0.00    +0.004 A 
ATOM     20  C   UNL     1      -3.521   4.665   3.816  0.00  0.00    +0.000 A 
ATOM     21  C   UNL     1      -3.471   6.046   3.757  0.00  0.00    +0.000 A 
ATOM     22  C   UNL     1      -3.115   6.675   2.579  0.00  0.00    +0.000 A 
ATOM     23  C   UNL     1      -2.807   5.924   1.460  0.00  0.00    +0.004 A 
ENDBRANCH   8  18
BRANCH   7  24
ATOM     24  C   UNL     1      -4.968   3.500  -0.345  0.00  0.00    +0.241 C 
ATOM     25  O   UNL     1      -5.934   2.814  -0.633  0.00  0.00    -0.271 OA
ATOM     26  N   UNL     1      -5.083   4.842  -0.299  0.00  0.00    -0.326 N 
ATOM     27  H   UNL     1      -4.315   5.388  -0.070  0.00  0.00    +0.145 HD
ATOM     28  H   UNL     1      -5.935   5.262  -0.495  0.00  0.00    +0.145 HD
ENDBRANCH   7  24
BRANCH  10  29
ATOM     29  N   UNL     1      -0.120   0.912   0.760  0.00  0.00    -0.343 N 
ATOM     30  H   UNL     1       0.740   1.329   0.594  0.00  0.00    +0.144 HD
ATOM     31  H   UNL     1      -0.161   0.010   1.113  0.00  0.00    +0.144 HD
ENDBRANCH  10  29
BRANCH   9  32
ATOM     32  C   UNL     1      -0.045   3.633   0.945  0.00  0.00    +0.099 C 
ATOM     33  N   UNL     1       0.913   4.175   1.227  0.00  0.00    -0.191 NA
ENDBRANCH   9  32
TORSDOF 5
