REMARK  Name = ZINC65499645
REMARK  6 active torsions:
REMARK  status: ('A' for Active; 'I' for Inactive)
REMARK    1  A    between atoms: C_1  and  C_2
REMARK    2  A    between atoms: C_2  and  C_3
REMARK    3  A    between atoms: C_2  and  O_4
REMARK    4  A    between atoms: O_4  and  C_5
REMARK    5  A    between atoms: C_8  and  C_12
REMARK    6  A    between atoms: N_22  and  C_23
REMARK                            x       y       z     vdW  Elec       q    Type
REMARK                         _______ _______ _______ _____ _____    ______ ____
ROOT
ATOM      1  C   UNL     1       2.014  -0.653  -1.086  0.00  0.00    +0.157 A 
ATOM      2  C   UNL     1       2.883   0.390  -1.378  0.00  0.00    +0.084 A 
ATOM      3  C   UNL     1       4.249   0.195  -1.288  0.00  0.00    +0.028 A 
ATOM      4  C   UNL     1       4.750  -1.036  -0.907  0.00  0.00    -0.036 A 
ATOM      5  C   UNL     1       3.887  -2.076  -0.616  0.00  0.00    +0.028 A 
ATOM      6  C   UNL     1       2.520  -1.886  -0.699  0.00  0.00    +0.084 A 
ATOM      7 CL   UNL     1       1.437  -3.191  -0.325  0.00  0.00    -0.080 Cl
ATOM      8 CL   UNL     1       2.255   1.935  -1.856  0.00  0.00    -0.080 Cl
ENDROOT
BRANCH   4   9
ATOM      9  C   UNL     1       6.239  -1.244  -0.810  0.00  0.00    +0.063 C 
ATOM     10  C   UNL     1       6.611  -1.654   0.618  0.00  0.00    +0.109 C 
ATOM     11  C   UNL     1       6.258  -3.088   0.888  0.00  0.00    +0.219 C 
ATOM     12  O   UNL     1       5.851  -3.393   1.989  0.00  0.00    -0.275 OA
ATOM     13  N   UNL     1       6.377  -4.050  -0.052  0.00  0.00    -0.270 N 
ATOM     14  C   UNL     1       6.713  -3.660  -1.349  0.00  0.00    +0.127 A 
ATOM     15  C   UNL     1       6.659  -2.349  -1.745  0.00  0.00    +0.020 A 
ATOM     16  C   UNL     1       7.044  -2.287  -3.076  0.00  0.00    +0.140 A 
ATOM     17  N   UNL     1       7.323  -3.505  -3.478  0.00  0.00    -0.178 NA
ATOM     18  N   UNL     1       7.121  -4.386  -2.400  0.00  0.00    -0.253 N 
ATOM     19  C   UNL     1       7.321  -5.837  -2.421  0.00  0.00    +0.174 C 
ATOM     20  H   UNL     1       6.234  -4.983   0.167  0.00  0.00    +0.156 HD
ENDBRANCH   4   9
BRANCH   1  21
ATOM     21  O   UNL     1       0.671  -0.465  -1.174  0.00  0.00    -0.486 OA
BRANCH  21  23
ATOM     22  C   UNL     1      -0.019   1.526   0.010  0.00  0.00    +0.051 C 
ATOM     23  C   UNL     1       0.002  -0.004   0.002  0.00  0.00    +0.167 C 
ATOM     24  C   UNL     1      -1.433  -0.534   0.013  0.00  0.00    +0.051 C 
ENDBRANCH  21  23
ENDBRANCH   1  21
TORSDOF 3
