REMARK  Name = ZINC21369399
REMARK  12 active torsions:
REMARK  status: ('A' for Active; 'I' for Inactive)
REMARK    1  A    between atoms: C_1  and  C_2
REMARK    2  A    between atoms: C_2  and  C_3
REMARK    3  A    between atoms: C_2  and  C_4
REMARK    4  A    between atoms: C_7  and  C_10
REMARK    5  A    between atoms: C_10  and  S_11
REMARK    6  A    between atoms: S_11  and  C_12
REMARK    7  A    between atoms: C_15  and  S_17
REMARK    8  A    between atoms: S_17  and  C_18
REMARK    9  A    between atoms: C_18  and  C_19
REMARK   10  A    between atoms: N_21  and  C_22
REMARK   11  A    between atoms: C_25  and  S_28
REMARK   12  A    between atoms: S_28  and  N_31
REMARK                            x       y       z     vdW  Elec       q    Type
REMARK                         _______ _______ _______ _____ _____    ______ ____
ROOT
ATOM      1  S   UNL     1      -0.021   1.757   0.014  0.00  0.00    -0.088 S 
ENDROOT
BRANCH   1   5
ATOM      2  C   UNL     1      -0.404  -2.662   0.019  0.00  0.00    +0.160 A 
ATOM      3  N   UNL     1       0.827  -2.186   0.013  0.00  0.00    -0.134 NA
ATOM      4  N   UNL     1       1.035  -0.826   0.011  0.00  0.00    -0.134 NA
ATOM      5  C   UNL     1       0.003  -0.004   0.015  0.00  0.00    +0.160 A 
ATOM      6  S   UNL     1      -1.363  -1.155   0.030  0.00  0.00    -0.033 S 
BRANCH   2   7
ATOM      7  S   UNL     1      -0.954  -4.336   0.024  0.00  0.00    -0.092 S 
BRANCH   7   8
ATOM      8  C   UNL     1       0.581  -5.302   0.017  0.00  0.00    +0.111 C 
BRANCH   8  12
ATOM      9  C   UNL     1      -0.359  -9.469   0.027  0.00  0.00    -0.045 A 
ATOM     10  C   UNL     1      -0.213  -8.796  -1.171  0.00  0.00    +0.004 A 
ATOM     11  C   UNL     1       0.091  -7.448  -1.175  0.00  0.00    +0.005 A 
ATOM     12  C   UNL     1       0.250  -6.772   0.021  0.00  0.00    -0.037 A 
ATOM     13  C   UNL     1       0.109  -7.446   1.220  0.00  0.00    +0.005 A 
ATOM     14  C   UNL     1      -0.199  -8.794   1.223  0.00  0.00    +0.004 A 
BRANCH   9  16
ATOM     15  C   UNL     1       0.419 -11.711   0.746  0.00  0.00    +0.012 C 
ATOM     16  C   UNL     1      -0.691 -10.939   0.031  0.00  0.00    +0.013 C 
ATOM     17  C   UNL     1      -2.018 -11.160   0.760  0.00  0.00    +0.012 C 
ENDBRANCH   9  16
ENDBRANCH   8  12
ENDBRANCH   7   8
ENDBRANCH   2   7
ENDBRANCH   1   5
BRANCH   1  18
ATOM     18  C   UNL     1       1.732   2.220   0.004  0.00  0.00    +0.172 C 
BRANCH  18  19
ATOM     19  C   UNL     1       1.855   3.722   0.003  0.00  0.00    +0.227 C 
ATOM     20  O   UNL     1       0.858   4.412   0.007  0.00  0.00    -0.275 OA
ATOM     21  N   UNL     1       3.074   4.299  -0.004  0.00  0.00    -0.285 N 
ATOM     22  H   UNL     1       3.977   3.675   0.068  0.00  0.00    +0.155 HD
BRANCH  21  23
ATOM     23  C   UNL     1       3.189   5.689  -0.103  0.00  0.00    +0.034 A 
ATOM     24  C   UNL     1       4.250   6.252  -0.802  0.00  0.00    +0.025 A 
ATOM     25  C   UNL     1       4.357   7.625  -0.904  0.00  0.00    +0.030 A 
ATOM     26  C   UNL     1       3.417   8.440  -0.300  0.00  0.00    +0.105 A 
ATOM     27  C   UNL     1       2.364   7.883   0.401  0.00  0.00    +0.030 A 
ATOM     28  C   UNL     1       2.247   6.511   0.501  0.00  0.00    +0.025 A 
BRANCH  26  29
ATOM     29  S   UNL     1       3.562  10.191  -0.426  0.00  0.00    +0.056 S 
ATOM     30  O   UNL     1       4.329  10.453  -1.593  0.00  0.00    -0.153 OA
ATOM     31  O   UNL     1       2.257  10.722  -0.237  0.00  0.00    -0.153 OA
BRANCH  29  32
ATOM     32  N   UNL     1       4.471  10.701   0.862  0.00  0.00    -0.204 NA
ATOM     33  H   UNL     1       4.585  11.794   0.820  0.00  0.00    +0.144 HD
ATOM     34  H   UNL     1       5.463  10.227   0.821  0.00  0.00    +0.144 HD
ENDBRANCH  29  32
ENDBRANCH  26  29
ENDBRANCH  21  23
ENDBRANCH  18  19
ENDBRANCH   1  18
TORSDOF 10
