REMARK  Name = ZINC39012566
REMARK  8 active torsions:
REMARK  status: ('A' for Active; 'I' for Inactive)
REMARK    1  A    between atoms: C_1  and  C_2
REMARK    2  A    between atoms: C_2  and  C_3
REMARK    3  A    between atoms: C_2  and  C_4
REMARK    4  A    between atoms: C_2  and  C_5
REMARK    5  A    between atoms: C_8  and  C_11
REMARK    6  A    between atoms: N_17  and  N_18
REMARK    7  A    between atoms: C_19  and  C_20
REMARK    8  A    between atoms: C_23  and  C_26
REMARK                            x       y       z     vdW  Elec       q    Type
REMARK                         _______ _______ _______ _____ _____    ______ ____
ROOT
ATOM      1  C   UNL     1       2.769  -1.838  -4.968  0.00  0.00    +0.264 C 
ATOM      2  N   UNL     1       2.255  -3.188  -5.248  0.00  0.00    -0.189 NA
ATOM      3  N   UNL     1       3.146  -4.000  -4.983  0.00  0.00    -0.219 N 
ATOM      4  C   UNL     1       4.289  -3.419  -4.529  0.00  0.00    +0.174 C 
ATOM      5  S   UNL     1       5.706  -4.266  -4.076  0.00  0.00    -0.015 S 
ATOM      6  N   UNL     1       4.144  -2.073  -4.489  0.00  0.00    -0.172 N 
ATOM      7  H   UNL     1       3.041  -4.958  -5.088  0.00  0.00    +0.176 HD
ENDROOT
BRANCH   1  11
ATOM      8  C   UNL     1       0.430   0.056  -1.937  0.00  0.00    -0.042 A 
ATOM      9  C   UNL     1      -0.168  -0.815  -2.828  0.00  0.00    +0.004 A 
ATOM     10  C   UNL     1       0.589  -1.428  -3.809  0.00  0.00    +0.008 A 
ATOM     11  C   UNL     1       1.944  -1.169  -3.899  0.00  0.00    -0.002 A 
ATOM     12  C   UNL     1       2.542  -0.298  -3.009  0.00  0.00    +0.008 A 
ATOM     13  C   UNL     1       1.784   0.319  -2.030  0.00  0.00    +0.004 A 
BRANCH   8  15
ATOM     14  C   UNL     1      -0.324   2.243  -1.043  0.00  0.00    +0.015 C 
ATOM     15  C   UNL     1      -0.395   0.725  -0.868  0.00  0.00    -0.013 C 
ATOM     16  C   UNL     1       0.150   0.344   0.510  0.00  0.00    +0.015 C 
ATOM     17  C   UNL     1      -1.850   0.265  -0.985  0.00  0.00    +0.015 C 
ENDBRANCH   8  15
ENDBRANCH   1  11
BRANCH   6  18
ATOM     18  N   UNL     1       5.086  -1.118  -4.084  0.00  0.00    -0.183 NA
ATOM     19  C   UNL     1       6.298  -1.483  -3.795  0.00  0.00    +0.138 C 
BRANCH  19  20
ATOM     20  C   UNL     1       7.259  -0.496  -3.269  0.00  0.00    -0.005 A 
ATOM     21  C   UNL     1       6.868   0.831  -3.077  0.00  0.00    +0.010 A 
ATOM     22  C   UNL     1       7.773   1.748  -2.585  0.00  0.00    +0.013 A 
ATOM     23  C   UNL     1       9.066   1.357  -2.283  0.00  0.00    +0.055 A 
ATOM     24  C   UNL     1       9.460   0.044  -2.472  0.00  0.00    +0.013 A 
ATOM     25  C   UNL     1       8.564  -0.886  -2.956  0.00  0.00    +0.010 A 
BRANCH  23  26
ATOM     26  C   UNL     1      10.049   2.365  -1.746  0.00  0.00    +0.417 C 
ATOM     27  F   UNL     1       9.978   2.389  -0.349  0.00  0.00    -0.166 F 
ATOM     28  F   UNL     1      11.343   2.011  -2.142  0.00  0.00    -0.166 F 
ATOM     29  F   UNL     1       9.738   3.633  -2.250  0.00  0.00    -0.166 F 
ENDBRANCH  23  26
ENDBRANCH  19  20
ENDBRANCH   6  18
TORSDOF 5
