REMARK  Name = ZINC08790410
REMARK  3 active torsions:
REMARK  status: ('A' for Active; 'I' for Inactive)
REMARK    1  A    between atoms: C_1  and  C_2
REMARK    2  A    between atoms: C_22  and  C_29
REMARK    3  A    between atoms: C_29  and  C_31
REMARK                            x       y       z     vdW  Elec       q    Type
REMARK                         _______ _______ _______ _____ _____    ______ ____
ROOT
ATOM      1  C   UNL     1       1.103   7.732   1.234  0.00  0.00    +0.046 C 
ATOM      2  C   UNL     1       1.990   6.529   1.048  0.00  0.00    -0.028 A 
ATOM      3  C   UNL     1       3.238   6.497   1.636  0.00  0.00    +0.025 A 
ATOM      4  C   UNL     1       4.060   5.396   1.471  0.00  0.00    +0.042 A 
ATOM      5  C   UNL     1       3.628   4.321   0.712  0.00  0.00    +0.024 A 
ATOM      6  C   UNL     1       2.383   4.351   0.124  0.00  0.00    -0.025 A 
ATOM      7  C   UNL     1       1.549   5.452   0.283  0.00  0.00    +0.039 A 
ATOM      8  N   UNL     1       0.348   5.251  -0.402  0.00  0.00    -0.286 N 
ATOM      9  C   UNL     1       0.314   4.061  -1.028  0.00  0.00    +0.212 C 
ATOM     10  O   UNL     1      -0.598   3.621  -1.696  0.00  0.00    -0.277 OA
ATOM     11  C   UNL     1       1.627   3.378  -0.741  0.00  0.00    +0.060 C 
ATOM     12  C   UNL     1       2.386   3.075  -2.029  0.00  0.00    +0.085 C 
ATOM     13  C   UNL     1       1.930   3.928  -3.176  0.00  0.00    -0.011 A 
ATOM     14  C   UNL     1       0.711   4.133  -3.783  0.00  0.00    +0.006 A 
ATOM     15  C   UNL     1       0.606   5.008  -4.849  0.00  0.00    +0.000 A 
ATOM     16  C   UNL     1       1.728   5.677  -5.304  0.00  0.00    +0.002 A 
ATOM     17  C   UNL     1       2.951   5.475  -4.700  0.00  0.00    +0.023 A 
ATOM     18  C   UNL     1       3.066   4.596  -3.625  0.00  0.00    +0.038 A 
ATOM     19  N   UNL     1       4.176   4.232  -2.859  0.00  0.00    -0.285 N 
ATOM     20  C   UNL     1       3.859   3.342  -1.897  0.00  0.00    +0.228 C 
ATOM     21  O   UNL     1       4.615   2.852  -1.085  0.00  0.00    -0.275 OA
ATOM     22  C   UNL     1       2.125   1.569  -2.289  0.00  0.00    +0.066 C 
ATOM     23  C   UNL     1       2.051   1.024  -0.841  0.00  0.00    -0.055 C 
ATOM     24  C   UNL     1      -0.040   1.786  -0.019  0.00  0.00    -0.076 C 
ATOM     25  C   UNL     1      -0.078   0.242   0.080  0.00  0.00    -0.020 C 
ATOM     26  C   UNL     1       1.112  -0.191  -0.806  0.00  0.00    -0.016 C 
ATOM     27 CL   UNL     1       5.629   5.362   2.213  0.00  0.00    -0.084 Cl
ATOM     28  H   UNL     1      -0.377   5.895  -0.424  0.00  0.00    +0.155 HD
ATOM     29  H   UNL     1       5.070   4.579  -3.002  0.00  0.00    +0.155 HD
ATOM     30  N   UNL     1       1.404   2.081  -0.068  0.00  0.00    +0.395 N 
ATOM     31  H   UNL     1       1.790   2.112   0.883  0.00  0.00    -0.079 HD
ENDROOT
BRANCH  22  32
ATOM     32  C   UNL     1       0.815   1.371  -3.008  0.00  0.00    +0.166 C 
ATOM     33  O   UNL     1      -0.204   1.198  -2.375  0.00  0.00    -0.292 OA
BRANCH  32  34
ATOM     34  C   UNL     1       0.773   1.388  -4.479  0.00  0.00    +0.018 A 
ATOM     35  C   UNL     1       1.946   1.593  -5.213  0.00  0.00    +0.011 A 
ATOM     36  C   UNL     1       1.900   1.601  -6.591  0.00  0.00    +0.001 A 
ATOM     37  C   UNL     1       0.695   1.418  -7.248  0.00  0.00    +0.000 A 
ATOM     38  C   UNL     1      -0.471   1.220  -6.529  0.00  0.00    +0.001 A 
ATOM     39  C   UNL     1      -0.440   1.204  -5.150  0.00  0.00    +0.011 A 
ENDBRANCH  32  34
ENDBRANCH  22  32
TORSDOF 2
