REMARK  Name = ZINC36612662
REMARK  8 active torsions:
REMARK  status: ('A' for Active; 'I' for Inactive)
REMARK    1  A    between atoms: C_1  and  C_2
REMARK    2  A    between atoms: C_2  and  O_3
REMARK    3  A    between atoms: O_3  and  C_4
REMARK    4  A    between atoms: C_4  and  C_6
REMARK    5  A    between atoms: C_9  and  N_12
REMARK    6  A    between atoms: C_13  and  C_15
REMARK    7  A    between atoms: C_16  and  C_28
REMARK    8  A    between atoms: C_21  and  C_23
REMARK                            x       y       z     vdW  Elec       q    Type
REMARK                         _______ _______ _______ _____ _____    ______ ____
ROOT
ATOM      1  N   UNL     1      -6.822  -4.117  -0.634  0.00  0.00    -0.282 N 
ATOM      2  C   UNL     1      -6.946  -5.438  -0.398  0.00  0.00    +0.248 C 
ATOM      3  O   UNL     1      -5.952  -6.128  -0.264  0.00  0.00    -0.270 OA
ATOM      4  H   UNL     1      -7.606  -3.545  -0.618  0.00  0.00    +0.155 HD
ENDROOT
BRANCH   2   5
ATOM      5  C   UNL     1      -8.232  -6.023  -0.306  0.00  0.00    +0.059 C 
ATOM      6  C   UNL     1      -8.982  -6.236  -1.407  0.00  0.00    +0.019 C 
ATOM      7  N   UNL     1     -10.223  -6.801  -1.317  0.00  0.00    -0.273 N 
ATOM      8  C   UNL     1     -10.784  -7.180  -0.162  0.00  0.00    +0.304 C 
ATOM      9  O   UNL     1     -11.894  -7.675  -0.182  0.00  0.00    -0.252 OA
ATOM     10  N   UNL     1     -10.157  -7.032   1.022  0.00  0.00    -0.285 N 
ATOM     11  C   UNL     1      -8.810  -6.437   1.032  0.00  0.00    +0.177 C 
ATOM     12  C   UNL     1      -8.443  -5.844  -2.758  0.00  0.00    +0.061 C 
ATOM     13  H   UNL     1     -10.726  -6.935  -2.136  0.00  0.00    +0.156 HD
ATOM     14  H   UNL     1     -10.582  -7.314   1.847  0.00  0.00    +0.151 HD
BRANCH  11  15
ATOM     15  C   UNL     1      -8.853  -5.218   1.917  0.00  0.00    +0.130 A 
ATOM     16  C   UNL     1      -7.966  -4.915   2.883  0.00  0.00    +0.047 A 
ATOM     17  C   UNL     1      -8.386  -3.693   3.456  0.00  0.00    +0.041 A 
ATOM     18  C   UNL     1      -9.505  -3.322   2.807  0.00  0.00    +0.195 A 
ATOM     19  O   UNL     1      -9.779  -4.247   1.872  0.00  0.00    -0.466 OA
ENDBRANCH  11  15
ENDBRANCH   2   5
BRANCH   1  23
ATOM     20  C   UNL     1      -3.074  -2.486  -1.429  0.00  0.00    +0.059 A 
ATOM     21  C   UNL     1      -4.213  -1.958  -2.045  0.00  0.00    +0.017 A 
ATOM     22  C   UNL     1      -5.450  -2.500  -1.780  0.00  0.00    +0.024 A 
ATOM     23  C   UNL     1      -5.568  -3.571  -0.900  0.00  0.00    +0.034 A 
ATOM     24  C   UNL     1      -4.437  -4.099  -0.285  0.00  0.00    +0.024 A 
ATOM     25  C   UNL     1      -3.196  -3.566  -0.550  0.00  0.00    +0.017 A 
BRANCH  20  26
ATOM     26  C   UNL     1      -1.746  -1.909  -1.711  0.00  0.00    +0.339 C 
ATOM     27  O   UNL     1      -0.757  -2.371  -1.179  0.00  0.00    -0.245 OA
BRANCH  26  28
ATOM     28  O   UNL     1      -1.631  -0.868  -2.559  0.00  0.00    -0.461 OA
BRANCH  28  30
ATOM     29  C   UNL     1      -0.383   0.812  -3.768  0.00  0.00    +0.048 C 
ATOM     30  C   UNL     1      -0.315  -0.359  -2.785  0.00  0.00    +0.229 C 
ENDBRANCH  28  30
ENDBRANCH  26  28
ENDBRANCH  20  26
ENDBRANCH   1  23
TORSDOF 6
