REMARK  Name = ZINC38915309
REMARK  12 active torsions:
REMARK  status: ('A' for Active; 'I' for Inactive)
REMARK    1  A    between atoms: C_1  and  C_2
REMARK    2  A    between atoms: C_5  and  S_8
REMARK    3  A    between atoms: S_8  and  C_9
REMARK    4  A    between atoms: C_9  and  C_10
REMARK    5  A    between atoms: C_12  and  C_24
REMARK    6  A    between atoms: C_14  and  C_22
REMARK    7  A    between atoms: C_15  and  N_21
REMARK    8  A    between atoms: C_27  and  O_32
REMARK    9  A    between atoms: C_28  and  O_30
REMARK   10  A    between atoms: O_30  and  C_31
REMARK   11  A    between atoms: O_32  and  C_33
REMARK   12  A    between atoms: C_33  and  C_34
REMARK                            x       y       z     vdW  Elec       q    Type
REMARK                         _______ _______ _______ _____ _____    ______ ____
ROOT
ATOM      1  C   UNL     1       0.097  -6.482   1.870  0.00  0.00    +0.079 C 
ATOM      2  C   UNL     1       1.146  -7.189   2.215  0.00  0.00    +0.031 C 
ATOM      3  C   UNL     1       2.525  -6.831   2.695  0.00  0.00    +0.098 C 
ATOM      4  C   UNL     1       2.829  -7.801   3.822  0.00  0.00    +0.097 C 
ATOM      5  C   UNL     1       2.025  -8.851   4.089  0.00  0.00    +0.195 C 
ATOM      6  O   UNL     1       0.881  -9.169   3.457  0.00  0.00    -0.448 OA
ATOM      7  C   UNL     1       0.686  -8.646   2.140  0.00  0.00    +0.343 C 
ATOM      8  N   UNL     1      -0.734  -8.500   1.806  0.00  0.00    -0.138 NA
ATOM      9  N   UNL     1      -0.970  -7.294   1.659  0.00  0.00    -0.154 NA
ENDROOT
BRANCH   3  10
ATOM     10  C   UNL     1       3.525  -6.995   1.579  0.00  0.00    -0.031 A 
ATOM     11  C   UNL     1       3.695  -8.230   0.982  0.00  0.00    +0.008 A 
ATOM     12  C   UNL     1       4.611  -8.386  -0.042  0.00  0.00    +0.050 A 
ATOM     13  C   UNL     1       5.359  -7.303  -0.473  0.00  0.00    +0.163 A 
ATOM     14  C   UNL     1       5.187  -6.059   0.127  0.00  0.00    +0.162 A 
ATOM     15  C   UNL     1       4.264  -5.909   1.150  0.00  0.00    +0.054 A 
BRANCH  14  16
ATOM     16  O   UNL     1       5.919  -4.993  -0.292  0.00  0.00    -0.491 OA
ATOM     17  C   UNL     1       5.690  -3.747   0.370  0.00  0.00    +0.277 C 
ENDBRANCH  14  16
BRANCH  13  18
ATOM     18  O   UNL     1       6.260  -7.454  -1.480  0.00  0.00    -0.479 OA
BRANCH  18  19
ATOM     19  C   UNL     1       6.384  -8.759  -2.049  0.00  0.00    +0.324 C 
BRANCH  19  20
ATOM     20  C   UNL     1       7.421  -8.735  -3.142  0.00  0.00    +0.248 C 
ATOM     21  O   UNL     1       7.998  -7.701  -3.407  0.00  0.00    -0.272 OA
ATOM     22  N   UNL     1       7.708  -9.861  -3.824  0.00  0.00    -0.327 N 
ATOM     23  H   UNL     1       7.247 -10.688  -3.612  0.00  0.00    +0.145 HD
ATOM     24  H   UNL     1       8.376  -9.845  -4.527  0.00  0.00    +0.145 HD
ENDBRANCH  19  20
ENDBRANCH  18  19
ENDBRANCH  13  18
ENDBRANCH   3  10
BRANCH   5  25
ATOM     25  N   UNL     1       2.414  -9.679   5.112  0.00  0.00    -0.329 N 
ATOM     26  H   UNL     1       3.231  -9.495   5.601  0.00  0.00    +0.145 HD
ATOM     27  H   UNL     1       1.871 -10.449   5.345  0.00  0.00    +0.145 HD
ENDBRANCH   5  25
BRANCH   4  28
ATOM     28  C   UNL     1       3.999  -7.597   4.621  0.00  0.00    +0.101 C 
ATOM     29  N   UNL     1       4.928  -7.436   5.255  0.00  0.00    -0.191 NA
ENDBRANCH   4  28
BRANCH   1  30
ATOM     30  C   UNL     1       0.077  -4.981   1.735  0.00  0.00    +0.131 C 
BRANCH  30  31
ATOM     31  S   UNL     1       0.062  -4.533  -0.023  0.00  0.00    -0.119 S 
BRANCH  31  36
ATOM     32  C   UNL     1      -0.018   1.503   0.010  0.00  0.00    +0.044 C 
ATOM     33  C   UNL     1       0.002  -0.004   0.002  0.00  0.00    -0.050 A 
ATOM     34  C   UNL     1       0.006  -0.687  -1.200  0.00  0.00    +0.004 A 
ATOM     35  C   UNL     1       0.024  -2.068  -1.212  0.00  0.00    +0.015 A 
ATOM     36  C   UNL     1       0.039  -2.771  -0.013  0.00  0.00    +0.008 A 
ATOM     37  C   UNL     1       0.036  -2.081   1.193  0.00  0.00    +0.015 A 
ATOM     38  C   UNL     1       0.023  -0.700   1.197  0.00  0.00    +0.004 A 
ENDBRANCH  31  36
ENDBRANCH  30  31
ENDBRANCH   1  30
TORSDOF 10
