REMARK  Name = ZINC35910545
REMARK  9 active torsions:
REMARK  status: ('A' for Active; 'I' for Inactive)
REMARK    1  A    between atoms: C_1  and  C_2
REMARK    2  A    between atoms: C_2  and  C_3
REMARK    3  A    between atoms: C_12  and  C_13
REMARK    4  A    between atoms: C_13  and  C_15
REMARK    5  A    between atoms: C_13  and  C_32
REMARK    6  A    between atoms: C_15  and  C_16
REMARK    7  A    between atoms: N_18  and  C_19
REMARK    8  A    between atoms: N_22  and  C_25
REMARK    9  A    between atoms: C_25  and  C_26
REMARK                            x       y       z     vdW  Elec       q    Type
REMARK                         _______ _______ _______ _____ _____    ______ ____
ROOT
ATOM      1  C   UNL     1       5.278  -1.492  -3.042  0.00  0.00    +0.062 C 
ENDROOT
BRANCH   1  11
ATOM      2  C   UNL     1       0.707  -0.490  -1.238  0.00  0.00    -0.024 A 
ATOM      3  C   UNL     1      -0.018  -0.817  -2.363  0.00  0.00    +0.005 A 
ATOM      4  C   UNL     1       0.620  -1.265  -3.511  0.00  0.00    +0.001 A 
ATOM      5  C   UNL     1       1.980  -1.391  -3.545  0.00  0.00    +0.010 A 
ATOM      6  C   UNL     1       2.735  -1.065  -2.417  0.00  0.00    +0.004 A 
ATOM      7  C   UNL     1       2.094  -0.605  -1.252  0.00  0.00    +0.050 A 
ATOM      8  N   UNL     1       3.075  -0.360  -0.318  0.00  0.00    -0.360 N 
ATOM      9  H   UNL     1       2.919  -0.035   0.582  0.00  0.00    +0.165 HD
ATOM     10  C   UNL     1       4.304  -0.641  -0.850  0.00  0.00    +0.088 A 
ATOM     11  C   UNL     1       4.167  -1.079  -2.112  0.00  0.00    -0.014 A 
BRANCH   2  13
ATOM     12  C   UNL     1      -0.019   1.526   0.010  0.00  0.00    +0.009 C 
ATOM     13  C   UNL     1       0.002  -0.004   0.002  0.00  0.00    +0.034 C 
ENDBRANCH   2  13
ENDBRANCH   1  11
BRANCH   1  14
ATOM     14  C   UNL     1       6.029  -2.654  -2.444  0.00  0.00    -0.004 A 
ATOM     15  C   UNL     1       6.649  -2.518  -1.216  0.00  0.00    +0.010 A 
ATOM     16  C   UNL     1       7.337  -3.582  -0.666  0.00  0.00    +0.039 A 
ATOM     17  C   UNL     1       7.407  -4.787  -1.345  0.00  0.00    +0.126 A 
ATOM     18  C   UNL     1       6.786  -4.925  -2.575  0.00  0.00    +0.077 A 
ATOM     19  C   UNL     1       6.092  -3.860  -3.122  0.00  0.00    +0.130 A 
ATOM     20  F   UNL     1       5.482  -3.994  -4.319  0.00  0.00    -0.205 F 
ATOM     21  F   UNL     1       8.080  -5.828  -0.807  0.00  0.00    -0.205 F 
ENDBRANCH   1  14
BRANCH   1  22
ATOM     22  C   UNL     1       6.237  -0.317  -3.246  0.00  0.00    +0.108 C 
BRANCH  22  23
ATOM     23  C   UNL     1       7.277  -0.689  -4.271  0.00  0.00    +0.214 C 
ATOM     24  O   UNL     1       7.255  -1.786  -4.787  0.00  0.00    -0.276 OA
ATOM     25  N   UNL     1       8.233   0.197  -4.613  0.00  0.00    -0.313 N 
ATOM     26  H   UNL     1       8.251   1.075  -4.200  0.00  0.00    +0.149 HD
BRANCH  25  27
ATOM     27  C   UNL     1       9.245  -0.165  -5.609  0.00  0.00    +0.069 C 
ATOM     28  C   UNL     1      10.397  -0.904  -4.923  0.00  0.00    +0.003 C 
ATOM     29  C   UNL     1      11.486  -1.209  -5.954  0.00  0.00    -0.077 C 
ATOM     30  N   UNL     1      11.983   0.045  -6.531  0.00  0.00    +0.382 N 
ATOM     31  C   UNL     1      10.900   0.726  -7.252  0.00  0.00    -0.077 C 
ATOM     32  C   UNL     1       9.789   1.105  -6.271  0.00  0.00    +0.003 C 
ATOM     33  H   UNL     1      12.321   0.643  -5.792  0.00  0.00    -0.081 HD
BRANCH  30  34
ATOM     34  C   UNL     1      13.081  -0.247  -7.462  0.00  0.00    -0.043 C 
BRANCH  34  35
ATOM     35  C   UNL     1      13.674   1.046  -7.961  0.00  0.00    -0.064 A 
ATOM     36  C   UNL     1      13.168   1.643  -9.101  0.00  0.00    +0.002 A 
ATOM     37  C   UNL     1      13.711   2.828  -9.559  0.00  0.00    +0.000 A 
ATOM     38  C   UNL     1      14.760   3.417  -8.878  0.00  0.00    +0.000 A 
ATOM     39  C   UNL     1      15.266   2.820  -7.738  0.00  0.00    +0.000 A 
ATOM     40  C   UNL     1      14.719   1.637  -7.277  0.00  0.00    +0.002 A 
ENDBRANCH  34  35
ENDBRANCH  30  34
ENDBRANCH  25  27
ENDBRANCH  22  23
ENDBRANCH   1  22
TORSDOF 8
