REMARK  Name = ZINC11814630
REMARK  7 active torsions:
REMARK  status: ('A' for Active; 'I' for Inactive)
REMARK    1  A    between atoms: C_4  and  C_7
REMARK    2  A    between atoms: C_7  and  N_62
REMARK    3  A    between atoms: C_10  and  C_13
REMARK    4  A    between atoms: C_13  and  C_24
REMARK    5  A    between atoms: N_16  and  C_20
REMARK    6  A    between atoms: C_20  and  C_21
REMARK    7  A    between atoms: C_24  and  C_25
REMARK                            x       y       z     vdW  Elec       q    Type
REMARK                         _______ _______ _______ _____ _____    ______ ____
ROOT
ATOM      1  C   UNL     1       1.348   1.902   0.170  0.00  0.00    +0.119 C 
ATOM      2  C   UNL     1       1.370   3.409   0.333  0.00  0.00    +0.247 C 
ATOM      3  O   UNL     1       0.941   4.050   1.268  0.00  0.00    -0.273 OA
ATOM      4  N   UNL     1       1.965   3.885  -0.783  0.00  0.00    -0.224 N 
ATOM      5  C   UNL     1       2.319   2.897  -1.613  0.00  0.00    +0.309 C 
ATOM      6  O   UNL     1       2.872   3.078  -2.680  0.00  0.00    -0.252 OA
ATOM      7  N   UNL     1       1.995   1.682  -1.135  0.00  0.00    -0.284 N 
ATOM      8  H   UNL     1       2.156   0.828  -1.566  0.00  0.00    +0.151 HD
ENDROOT
BRANCH   1  11
ATOM      9  C   UNL     1      -2.355   1.679  -0.859  0.00  0.00    -0.078 C 
ATOM     10  C   UNL     1      -0.903   2.162  -0.887  0.00  0.00    -0.013 C 
ATOM     11  C   UNL     1      -0.091   1.383   0.152  0.00  0.00    +0.018 C 
ATOM     12  C   UNL     1      -0.722   1.577   1.533  0.00  0.00    -0.013 C 
ATOM     13  C   UNL     1      -2.181   1.111   1.491  0.00  0.00    -0.078 C 
ATOM     14  N   UNL     1      -2.913   1.915   0.489  0.00  0.00    +0.382 N 
ATOM     15  H   UNL     1      -2.811   2.910   0.722  0.00  0.00    -0.081 HD
BRANCH  14  16
ATOM     16  C   UNL     1      -4.348   1.563   0.511  0.00  0.00    -0.043 C 
BRANCH  16  20
ATOM     17  C   UNL     1      -5.720   1.523   4.556  0.00  0.00    +0.000 A 
ATOM     18  C   UNL     1      -5.763   2.695   3.823  0.00  0.00    +0.000 A 
ATOM     19  C   UNL     1      -5.318   2.708   2.514  0.00  0.00    +0.002 A 
ATOM     20  C   UNL     1      -4.832   1.549   1.938  0.00  0.00    -0.064 A 
ATOM     21  C   UNL     1      -4.795   0.376   2.669  0.00  0.00    +0.002 A 
ATOM     22  C   UNL     1      -5.234   0.365   3.979  0.00  0.00    +0.000 A 
ENDBRANCH  16  20
ENDBRANCH  14  16
ENDBRANCH   1  11
BRANCH   4  23
ATOM     23  C   UNL     1       2.195   5.307  -1.049  0.00  0.00    +0.121 C 
BRANCH  23  24
ATOM     24  C   UNL     1       0.991   5.888  -1.792  0.00  0.00    +0.007 C 
ATOM     25  C   UNL     1       1.222   6.410  -3.212  0.00  0.00    +0.005 C 
ATOM     26  C   UNL     1       0.987   7.394  -2.062  0.00  0.00    +0.005 C 
ENDBRANCH  23  24
ENDBRANCH   4  23
BRANCH   1  27
ATOM     27  C   UNL     1       2.148   1.228   1.287  0.00  0.00    +0.072 C 
BRANCH  27  28
ATOM     28  C   UNL     1       3.591   1.655   1.199  0.00  0.00    -0.027 A 
ATOM     29  C   UNL     1       4.029   2.759   1.905  0.00  0.00    +0.005 A 
ATOM     30  C   UNL     1       5.353   3.148   1.829  0.00  0.00    +0.000 A 
ATOM     31  C   UNL     1       6.238   2.438   1.038  0.00  0.00    +0.001 A 
ATOM     32  C   UNL     1       5.800   1.337   0.328  0.00  0.00    +0.020 A 
ATOM     33  C   UNL     1       4.475   0.944   0.408  0.00  0.00    +0.044 A 
ATOM     34 CL   UNL     1       3.924  -0.440  -0.484  0.00  0.00    -0.083 Cl
ENDBRANCH  27  28
ENDBRANCH   1  27
TORSDOF 7
