REMARK  Name = ZINC58289122
REMARK  10 active torsions:
REMARK  status: ('A' for Active; 'I' for Inactive)
REMARK    1  A    between atoms: C_1  and  C_2
REMARK    2  A    between atoms: C_2  and  N_3
REMARK    3  A    between atoms: C_5  and  C_14
REMARK    4  A    between atoms: C_14  and  N_15
REMARK    5  A    between atoms: N_15  and  C_16
REMARK    6  A    between atoms: N_15  and  C_17
REMARK    7  A    between atoms: C_17  and  C_18
REMARK    8  A    between atoms: N_20  and  C_21
REMARK    9  A    between atoms: C_24  and  C_27
REMARK   10  A    between atoms: N_29  and  C_30
REMARK                            x       y       z     vdW  Elec       q    Type
REMARK                         _______ _______ _______ _____ _____    ______ ____
ROOT
ATOM      1  N   UNL     1      -4.253  -3.721   2.286  0.00  0.00    +0.386 N 
ATOM      2  C   UNL     1      -3.217  -4.759   2.213  0.00  0.00    -0.095 C 
ATOM      3  H   UNL     1      -4.819  -3.750   1.451  0.00  0.00    -0.081 HD
ENDROOT
BRANCH   1   4
ATOM      4  C   UNL     1      -3.618  -2.402   2.401  0.00  0.00    -0.032 C 
BRANCH   4   7
ATOM      5  N   UNL     1      -1.365  -0.513   0.020  0.00  0.00    -0.324 N 
ATOM      6  C   UNL     1      -2.066  -0.781   1.287  0.00  0.00    +0.147 C 
ATOM      7  C   UNL     1      -2.833  -2.101   1.122  0.00  0.00    +0.174 C 
ATOM      8  O   UNL     1      -3.736  -1.975   0.021  0.00  0.00    -0.487 OA
ATOM      9  C   UNL     1      -3.244  -1.489  -1.149  0.00  0.00    +0.142 A 
ATOM     10  C   UNL     1      -2.063  -0.748  -1.175  0.00  0.00    +0.072 A 
ATOM     11  C   UNL     1      -1.578  -0.250  -2.373  0.00  0.00    +0.027 A 
ATOM     12  C   UNL     1      -2.268  -0.486  -3.548  0.00  0.00    +0.002 A 
ATOM     13  C   UNL     1      -3.440  -1.218  -3.527  0.00  0.00    +0.004 A 
ATOM     14  C   UNL     1      -3.926  -1.728  -2.332  0.00  0.00    +0.047 A 
BRANCH   5  16
ATOM     15  C   UNL     1      -0.002   1.518   0.024  0.00  0.00    +0.024 C 
ATOM     16  C   UNL     1       0.012  -0.012   0.007  0.00  0.00    +0.102 C 
ENDBRANCH   5  16
ENDBRANCH   4   7
ENDBRANCH   1   4
BRANCH   1  17
ATOM     17  C   UNL     1      -5.103  -3.959   3.461  0.00  0.00    +0.019 C 
BRANCH  17  18
ATOM     18  C   UNL     1      -5.850  -5.256   3.286  0.00  0.00    +0.201 C 
ATOM     19  O   UNL     1      -5.691  -5.917   2.282  0.00  0.00    -0.278 OA
ATOM     20  N   UNL     1      -6.695  -5.681   4.246  0.00  0.00    -0.287 N 
ATOM     21  H   UNL     1      -6.773  -5.188   5.078  0.00  0.00    +0.155 HD
BRANCH  20  22
ATOM     22  C   UNL     1      -7.458  -6.830   4.044  0.00  0.00    +0.033 A 
ATOM     23  C   UNL     1      -6.927  -7.900   3.330  0.00  0.00    +0.024 A 
ATOM     24  C   UNL     1      -7.677  -9.036   3.129  0.00  0.00    +0.015 A 
ATOM     25  C   UNL     1      -8.975  -9.115   3.642  0.00  0.00    +0.037 A 
ATOM     26  C   UNL     1      -9.505  -8.039   4.359  0.00  0.00    +0.015 A 
ATOM     27  C   UNL     1      -8.748  -6.907   4.561  0.00  0.00    +0.024 A 
BRANCH  25  28
ATOM     28  C   UNL     1      -9.783 -10.331   3.428  0.00  0.00    +0.244 C 
ATOM     29  O   UNL     1      -9.319 -11.266   2.804  0.00  0.00    -0.270 OA
ATOM     30  N   UNL     1     -11.034 -10.405   3.924  0.00  0.00    -0.314 N 
ATOM     31  C   UNL     1     -11.835 -11.613   3.711  0.00  0.00    +0.128 C 
ATOM     32  H   UNL     1     -11.403  -9.659   4.422  0.00  0.00    +0.149 HD
ENDBRANCH  25  28
ENDBRANCH  20  22
ENDBRANCH  17  18
ENDBRANCH   1  17
TORSDOF 7
