REMARK  Name = ZINC10693756
REMARK  10 active torsions:
REMARK  status: ('A' for Active; 'I' for Inactive)
REMARK    1  A    between atoms: C_1  and  C_2
REMARK    2  A    between atoms: C_4  and  C_37
REMARK    3  A    between atoms: C_6  and  N_8
REMARK    4  A    between atoms: C_9  and  C_11
REMARK    5  A    between atoms: C_11  and  C_13
REMARK    6  A    between atoms: C_11  and  O_19
REMARK    7  A    between atoms: O_19  and  C_20
REMARK    8  A    between atoms: C_20  and  C_22
REMARK    9  A    between atoms: C_22  and  N_23
REMARK   10  A    between atoms: C_31  and  C_33
REMARK                            x       y       z     vdW  Elec       q    Type
REMARK                         _______ _______ _______ _____ _____    ______ ____
ROOT
ATOM      1  C   UNL     1      -2.569   4.140   0.252  0.00  0.00    +0.292 C 
ENDROOT
BRANCH   1   2
ATOM      2  C   UNL     1      -3.236   3.756   1.548  0.00  0.00    +0.002 A 
ATOM      3  C   UNL     1      -2.906   4.415   2.717  0.00  0.00    +0.008 A 
ATOM      4  C   UNL     1      -3.521   4.066   3.905  0.00  0.00    +0.000 A 
ATOM      5  C   UNL     1      -4.460   3.051   3.924  0.00  0.00    +0.000 A 
ATOM      6  C   UNL     1      -4.786   2.389   2.756  0.00  0.00    +0.000 A 
ATOM      7  C   UNL     1      -4.174   2.741   1.567  0.00  0.00    +0.008 A 
ENDBRANCH   1   2
BRANCH   1   9
ATOM      8  N   UNL     1      -1.237   2.069   0.019  0.00  0.00    -0.282 N 
ATOM      9  C   UNL     1      -1.255   3.412   0.128  0.00  0.00    +0.263 C 
ATOM     10  O   UNL     1      -0.215   4.035   0.127  0.00  0.00    -0.271 OA
ATOM     11  H   UNL     1      -2.070   1.577  -0.057  0.00  0.00    +0.155 HD
BRANCH   8  17
ATOM     12  C   UNL     1       1.488  -1.714  -1.541  0.00  0.00    +0.044 C 
ATOM     13  C   UNL     1       1.331  -0.454  -0.729  0.00  0.00    -0.048 A 
ATOM     14  C   UNL     1       2.392   0.023   0.017  0.00  0.00    +0.006 A 
ATOM     15  C   UNL     1       2.252   1.180   0.763  0.00  0.00    -0.048 A 
ATOM     16  C   UNL     1       1.051   1.861   0.764  0.00  0.00    +0.026 A 
ATOM     17  C   UNL     1      -0.017   1.384   0.016  0.00  0.00    +0.034 A 
ATOM     18  C   UNL     1       0.127   0.222  -0.732  0.00  0.00    +0.026 A 
ATOM     19  C   UNL     1       3.412   1.697   1.574  0.00  0.00    +0.044 C 
ENDBRANCH   8  17
ENDBRANCH   1   9
BRANCH   1  20
ATOM     20  O   UNL     1      -2.332   5.573   0.236  0.00  0.00    -0.446 OA
BRANCH  20  21
ATOM     21  C   UNL     1      -3.305   6.346  -0.272  0.00  0.00    +0.326 C 
ATOM     22  O   UNL     1      -4.321   5.842  -0.690  0.00  0.00    -0.249 OA
BRANCH  21  23
ATOM     23  C   UNL     1      -3.130   7.842  -0.322  0.00  0.00    +0.238 C 
BRANCH  23  24
ATOM     24  N   UNL     1      -4.321   8.453  -0.915  0.00  0.00    -0.213 N 
ATOM     25  C   UNL     1      -4.476   8.687  -2.235  0.00  0.00    +0.247 C 
ATOM     26  O   UNL     1      -3.687   8.441  -3.122  0.00  0.00    -0.273 OA
ATOM     27  C   UNL     1      -5.842   9.319  -2.376  0.00  0.00    +0.115 C 
ATOM     28  C   UNL     1      -6.750   8.448  -3.237  0.00  0.00    +0.035 C 
ATOM     29  C   UNL     1      -6.186   8.368  -4.658  0.00  0.00    +0.003 C 
ATOM     30  C   UNL     1      -6.092   9.776  -5.248  0.00  0.00    +0.000 C 
ATOM     31  C   UNL     1      -5.158  10.630  -4.387  0.00  0.00    +0.006 C 
ATOM     32  C   UNL     1      -5.718  10.720  -2.965  0.00  0.00    +0.018 C 
ATOM     33  C   UNL     1      -4.775  11.556  -2.098  0.00  0.00    +0.010 C 
ATOM     34  N   UNL     1      -6.348   9.384  -0.998  0.00  0.00    -0.285 N 
ATOM     35  C   UNL     1      -5.389   8.855  -0.215  0.00  0.00    +0.310 C 
ATOM     36  O   UNL     1      -5.482   8.752   0.993  0.00  0.00    -0.252 OA
ATOM     37  H   UNL     1      -7.204   9.739  -0.710  0.00  0.00    +0.151 HD
ENDBRANCH  23  24
ENDBRANCH  21  23
ENDBRANCH  20  21
ENDBRANCH   1  20
TORSDOF 7
