REMARK  Name = ZINC35457460
REMARK  10 active torsions:
REMARK  status: ('A' for Active; 'I' for Inactive)
REMARK    1  A    between atoms: C_1  and  C_2
REMARK    2  A    between atoms: C_8  and  C_37
REMARK    3  A    between atoms: C_16  and  O_17
REMARK    4  A    between atoms: C_18  and  O_22
REMARK    5  A    between atoms: C_25  and  O_36
REMARK    6  A    between atoms: C_27  and  O_32
REMARK    7  A    between atoms: C_29  and  C_30
REMARK    8  A    between atoms: C_29  and  C_31
REMARK    9  A    between atoms: O_32  and  C_33
REMARK   10  A    between atoms: C_33  and  C_35
REMARK                            x       y       z     vdW  Elec       q    Type
REMARK                         _______ _______ _______ _____ _____    ______ ____
ROOT
ATOM      1  C   UNL     1      -1.881   0.488   1.211  0.00  0.00    +0.011 C 
ATOM      2  C   UNL     1      -1.280  -0.839   0.757  0.00  0.00    +0.031 C 
ATOM      3  C   UNL     1      -0.240  -0.587  -0.335  0.00  0.00    +0.007 C 
ATOM      4  C   UNL     1       0.327  -1.913  -0.836  0.00  0.00    +0.005 C 
ATOM      5  C   UNL     1       0.901  -2.784   0.284  0.00  0.00    +0.008 C 
ATOM      6  C   UNL     1      -0.098  -2.932   1.423  0.00  0.00    +0.014 C 
ATOM      7  C   UNL     1      -0.590  -1.561   1.905  0.00  0.00    +0.123 C 
ATOM      8  C   UNL     1       0.572  -0.727   2.465  0.00  0.00    +0.091 C 
ATOM      9  C   UNL     1      -0.050  -0.081   3.690  0.00  0.00    +0.040 A 
ATOM     10  C   UNL     1      -1.222  -0.774   3.963  0.00  0.00    +0.128 A 
ATOM     11  C   UNL     1      -1.981  -0.401   5.071  0.00  0.00    +0.052 A 
ATOM     12  C   UNL     1      -1.585   0.654   5.863  0.00  0.00    -0.007 A 
ATOM     13  C   UNL     1      -0.426   1.353   5.569  0.00  0.00    +0.055 A 
ATOM     14  C   UNL     1       0.345   0.983   4.479  0.00  0.00    +0.132 A 
ATOM     15  C   UNL     1      -0.281   2.444   6.604  0.00  0.00    +0.283 C 
ATOM     16  O   UNL     1      -1.576   2.584   7.216  0.00  0.00    -0.343 OA
ATOM     17  C   UNL     1      -2.184   1.284   7.100  0.00  0.00    +0.199 C 
ATOM     18  O   UNL     1      -1.462  -1.732   3.026  0.00  0.00    -0.484 OA
ATOM     19  C   UNL     1      -1.303  -3.746   0.937  0.00  0.00    +0.046 C 
ATOM     20  C   UNL     1      -0.843  -5.143   0.525  0.00  0.00    +0.156 C 
ATOM     21  C   UNL     1       0.174  -5.060  -0.603  0.00  0.00    +0.211 C 
ATOM     22  C   UNL     1       1.335  -4.122  -0.307  0.00  0.00    +0.008 C 
ATOM     23  C   UNL     1       2.061  -3.868  -1.651  0.00  0.00    +0.015 C 
ATOM     24  C   UNL     1       2.366  -4.828   0.583  0.00  0.00    +0.015 C 
ATOM     25  C   UNL     1       0.498  -3.636   2.648  0.00  0.00    +0.015 C 
ENDROOT
BRANCH  14  26
ATOM     26  O   UNL     1       1.486   1.662   4.188  0.00  0.00    -0.506 OA
ATOM     27  H   UNL     1       1.356   2.411   3.590  0.00  0.00    +0.292 HD
ENDBRANCH  14  26
BRANCH  15  28
ATOM     28  O   UNL     1       0.689   2.070   7.583  0.00  0.00    -0.363 OA
ATOM     29  H   UNL     1       0.825   2.732   8.275  0.00  0.00    +0.213 HD
ENDBRANCH  15  28
BRANCH  20  30
ATOM     30  O   UNL     1      -1.987  -5.882   0.065  0.00  0.00    -0.388 OA
ATOM     31  H   UNL     1      -2.682  -5.985   0.729  0.00  0.00    +0.210 HD
ENDBRANCH  20  30
BRANCH  21  32
ATOM     32  O   UNL     1      -0.477  -4.668  -1.815  0.00  0.00    -0.458 OA
BRANCH  32  33
ATOM     33  C   UNL     1      -0.955  -5.650  -2.596  0.00  0.00    +0.304 C 
ATOM     34  O   UNL     1      -0.824  -6.804  -2.262  0.00  0.00    -0.251 OA
ATOM     35  C   UNL     1      -1.653  -5.313  -3.888  0.00  0.00    +0.136 C 
ENDBRANCH  32  33
ENDBRANCH  21  32
TORSDOF 5
