REMARK  Name = ZINC39353723
REMARK  7 active torsions:
REMARK  status: ('A' for Active; 'I' for Inactive)
REMARK    1  A    between atoms: C_1  and  C_2
REMARK    2  A    between atoms: C_3  and  C_18
REMARK    3  A    between atoms: C_5  and  C_8
REMARK    4  A    between atoms: C_13  and  N_14
REMARK    5  A    between atoms: C_15  and  C_17
REMARK    6  A    between atoms: C_18  and  N_19
REMARK    7  A    between atoms: C_20  and  C_22
REMARK                            x       y       z     vdW  Elec       q    Type
REMARK                         _______ _______ _______ _____ _____    ______ ____
ROOT
ATOM      1  C   UNL     1       0.252   4.054  -0.827  0.00  0.00    +0.157 C 
ENDROOT
BRANCH   1   4
ATOM      2  C   UNL     1      -0.011   1.081   0.006  0.00  0.00    +0.044 C 
ATOM      3  C   UNL     1      -0.754   1.595  -1.229  0.00  0.00    +0.164 C 
ATOM      4  C   UNL     1      -0.859   3.104  -1.190  0.00  0.00    +0.062 C 
ATOM      5  N   UNL     1      -2.051   3.437  -1.518  0.00  0.00    -0.253 NA
ATOM      6  C   UNL     1      -2.841   2.234  -1.803  0.00  0.00    +0.268 C 
ATOM      7  O   UNL     1      -2.120   1.131  -1.223  0.00  0.00    -0.342 OA
BRANCH   6   8
ATOM      8  C   UNL     1      -4.206   2.350  -1.174  0.00  0.00    +0.024 A 
ATOM      9  C   UNL     1      -4.454   3.335  -0.238  0.00  0.00    +0.010 A 
ATOM     10  C   UNL     1      -5.706   3.442   0.340  0.00  0.00    +0.001 A 
ATOM     11  C   UNL     1      -6.713   2.564  -0.018  0.00  0.00    +0.002 A 
ATOM     12  C   UNL     1      -6.471   1.578  -0.954  0.00  0.00    +0.024 A 
ATOM     13  C   UNL     1      -5.217   1.471  -1.539  0.00  0.00    +0.041 A 
BRANCH  13  14
ATOM     14  N   UNL     1      -4.970   0.476  -2.491  0.00  0.00    -0.285 N 
ATOM     15  C   UNL     1      -5.989  -0.039  -3.208  0.00  0.00    +0.214 C 
ATOM     16  O   UNL     1      -7.103   0.428  -3.100  0.00  0.00    -0.276 OA
ATOM     17  C   UNL     1      -5.744  -1.195  -4.143  0.00  0.00    +0.109 C 
ATOM     18  H   UNL     1      -4.065   0.157  -2.636  0.00  0.00    +0.155 HD
ENDBRANCH  13  14
ENDBRANCH   6   8
ENDBRANCH   1   4
BRANCH   1  19
ATOM     19  N   UNL     1      -0.239   5.432  -0.905  0.00  0.00    -0.309 N 
ATOM     20  C   UNL     1       0.587   6.459  -0.621  0.00  0.00    +0.222 C 
ATOM     21  O   UNL     1       1.736   6.242  -0.299  0.00  0.00    -0.275 OA
ATOM     22  H   UNL     1      -1.158   5.606  -1.162  0.00  0.00    +0.149 HD
BRANCH  20  23
ATOM     23  C   UNL     1       0.082   7.877  -0.701  0.00  0.00    +0.122 C 
ATOM     24  C   UNL     1      -0.387   8.175  -2.129  0.00  0.00    +0.019 C 
ATOM     25  C   UNL     1      -0.662   9.675  -2.272  0.00  0.00    +0.006 C 
ATOM     26  C   UNL     1       0.665  10.441  -2.228  0.00  0.00    +0.037 C 
ATOM     27  C   UNL     1       1.453   9.970  -1.032  0.00  0.00    -0.018 A 
ATOM     28  C   UNL     1       2.590  10.602  -0.396  0.00  0.00    +0.003 A 
ATOM     29  C   UNL     1       3.291  11.782  -0.662  0.00  0.00    +0.010 A 
ATOM     30  C   UNL     1       4.345  12.079   0.168  0.00  0.00    +0.001 A 
ATOM     31  C   UNL     1       4.705  11.256   1.222  0.00  0.00    +0.002 A 
ATOM     32  C   UNL     1       4.029  10.083   1.508  0.00  0.00    +0.026 A 
ATOM     33  C   UNL     1       2.955   9.756   0.683  0.00  0.00    +0.047 A 
ATOM     34  N   UNL     1       2.092   8.698   0.679  0.00  0.00    -0.357 N 
ATOM     35  C   UNL     1       1.196   8.833  -0.346  0.00  0.00    +0.032 A 
ATOM     36  H   UNL     1       2.109   7.963   1.311  0.00  0.00    +0.166 HD
ENDBRANCH  20  23
ENDBRANCH   1  19
TORSDOF 5
