REMARK  Name = ZINC35758037
REMARK  7 active torsions:
REMARK  status: ('A' for Active; 'I' for Inactive)
REMARK    1  A    between atoms: C_4  and  C_7
REMARK    2  A    between atoms: C_7  and  C_8
REMARK    3  A    between atoms: N_10  and  C_11
REMARK    4  A    between atoms: C_14  and  C_17
REMARK    5  A    between atoms: C_19  and  C_33
REMARK    6  A    between atoms: N_21  and  C_25
REMARK    7  A    between atoms: C_25  and  C_26
REMARK                            x       y       z     vdW  Elec       q    Type
REMARK                         _______ _______ _______ _____ _____    ______ ____
ROOT
ATOM      1  C   UNL     1       6.664  -2.772   6.996  0.00  0.00    +0.238 C 
ATOM      2  C   UNL     1       6.417  -4.265   7.317  0.00  0.00    +0.210 C 
ATOM      3  N   UNL     1       7.745  -4.861   7.074  0.00  0.00    -0.248 N 
ATOM      4  C   UNL     1       8.640  -3.857   7.009  0.00  0.00    +0.405 C 
ATOM      5  O   UNL     1       9.823  -4.023   6.790  0.00  0.00    -0.226 OA
ATOM      6  O   UNL     1       8.084  -2.649   7.211  0.00  0.00    -0.440 OA
ENDROOT
BRANCH   1  10
ATOM      7  C   UNL     1       5.654  -1.895   2.937  0.00  0.00    +0.033 A 
ATOM      8  C   UNL     1       4.793  -1.528   3.963  0.00  0.00    +0.024 A 
ATOM      9  C   UNL     1       5.122  -1.813   5.274  0.00  0.00    +0.009 A 
ATOM     10  C   UNL     1       6.308  -2.463   5.565  0.00  0.00    -0.005 A 
ATOM     11  C   UNL     1       7.168  -2.829   4.546  0.00  0.00    +0.009 A 
ATOM     12  C   UNL     1       6.841  -2.552   3.232  0.00  0.00    +0.024 A 
BRANCH   7  15
ATOM     13  C   UNL     1       5.662  -2.468   0.628  0.00  0.00    +0.222 C 
ATOM     14  O   UNL     1       6.327  -3.450   0.886  0.00  0.00    -0.275 OA
ATOM     15  N   UNL     1       5.323  -1.607   1.608  0.00  0.00    -0.285 N 
ATOM     16  H   UNL     1       4.850  -0.789   1.392  0.00  0.00    +0.155 HD
BRANCH  13  17
ATOM     17  C   UNL     1       5.216  -2.211  -0.788  0.00  0.00    +0.131 C 
BRANCH  17  21
ATOM     18  C   UNL     1       6.652  -5.335  -3.324  0.00  0.00    +0.000 A 
ATOM     19  C   UNL     1       5.419  -5.454  -2.711  0.00  0.00    +0.000 A 
ATOM     20  C   UNL     1       4.954  -4.444  -1.890  0.00  0.00    +0.004 A 
ATOM     21  C   UNL     1       5.723  -3.314  -1.682  0.00  0.00    -0.039 A 
ATOM     22  C   UNL     1       6.957  -3.195  -2.295  0.00  0.00    +0.004 A 
ATOM     23  C   UNL     1       7.420  -4.204  -3.117  0.00  0.00    +0.000 A 
ENDBRANCH  17  21
ENDBRANCH  13  17
ENDBRANCH   7  15
ENDBRANCH   1  10
BRANCH   2  24
ATOM     24  C   UNL     1       5.998  -4.444   8.754  0.00  0.00    +0.235 C 
ATOM     25  O   UNL     1       6.810  -4.801   9.581  0.00  0.00    -0.274 OA
ATOM     26  N   UNL     1       4.723  -4.206   9.118  0.00  0.00    -0.328 N 
ATOM     27  H   UNL     1       4.074  -3.921   8.456  0.00  0.00    +0.145 HD
ATOM     28  H   UNL     1       4.454  -4.321  10.043  0.00  0.00    +0.145 HD
ENDBRANCH   2  24
BRANCH   3  29
ATOM     29  C   UNL     1       8.039  -6.289   6.930  0.00  0.00    +0.147 C 
BRANCH  29  30
ATOM     30  C   UNL     1       7.927  -6.681   5.479  0.00  0.00    -0.030 A 
ATOM     31  C   UNL     1       6.715  -7.109   4.970  0.00  0.00    +0.008 A 
ATOM     32  C   UNL     1       6.611  -7.468   3.640  0.00  0.00    +0.038 A 
ATOM     33  C   UNL     1       7.722  -7.399   2.816  0.00  0.00    +0.123 A 
ATOM     34  C   UNL     1       8.935  -6.970   3.326  0.00  0.00    +0.038 A 
ATOM     35  C   UNL     1       9.036  -6.606   4.656  0.00  0.00    +0.008 A 
ATOM     36  F   UNL     1       7.622  -7.750   1.515  0.00  0.00    -0.205 F 
ENDBRANCH  29  30
ENDBRANCH   3  29
TORSDOF 7
