REMARK  Name = ZINC38652384
REMARK  6 active torsions:
REMARK  status: ('A' for Active; 'I' for Inactive)
REMARK    1  A    between atoms: C_4  and  C_7
REMARK    2  A    between atoms: C_7  and  O_9
REMARK    3  A    between atoms: O_9  and  C_10
REMARK    4  A    between atoms: C_17  and  N_30
REMARK    5  A    between atoms: C_18  and  C_28
REMARK    6  A    between atoms: C_19  and  C_21
REMARK                            x       y       z     vdW  Elec       q    Type
REMARK                         _______ _______ _______ _____ _____    ______ ____
ROOT
ATOM      1  C   UNL     1       4.878  -2.735  -0.094  0.00  0.00    +0.135 A 
ATOM      2  C   UNL     1       6.096  -2.071  -0.060  0.00  0.00    +0.047 A 
ATOM      3  C   UNL     1       7.275  -2.788  -0.110  0.00  0.00    +0.012 A 
ATOM      4  C   UNL     1       7.248  -4.169  -0.194  0.00  0.00    +0.008 A 
ATOM      5  C   UNL     1       6.034  -4.838  -0.229  0.00  0.00    +0.138 A 
ATOM      6  C   UNL     1       4.847  -4.118  -0.173  0.00  0.00    +0.093 A 
ATOM      7  O   UNL     1       5.987  -6.190  -0.311  0.00  0.00    -0.441 OA
ATOM      8  C   UNL     1       7.061  -6.873  -0.741  0.00  0.00    +0.199 C 
ATOM      9  C   UNL     1       8.303  -6.333  -0.737  0.00  0.00    +0.098 C 
ATOM     10  C   UNL     1       8.544  -4.933  -0.247  0.00  0.00    +0.098 C 
ENDROOT
BRANCH  10  11
ATOM     11  C   UNL     1       9.150  -4.984   1.132  0.00  0.00    -0.034 A 
ATOM     12  C   UNL     1       8.457  -5.580   2.170  0.00  0.00    +0.007 A 
ATOM     13  C   UNL     1       9.011  -5.628   3.434  0.00  0.00    +0.038 A 
ATOM     14  C   UNL     1      10.262  -5.079   3.663  0.00  0.00    +0.123 A 
ATOM     15  C   UNL     1      10.955  -4.483   2.623  0.00  0.00    +0.038 A 
ATOM     16  C   UNL     1      10.401  -4.441   1.358  0.00  0.00    +0.007 A 
ATOM     17  F   UNL     1      10.805  -5.125   4.899  0.00  0.00    -0.205 F 
ENDBRANCH  10  11
BRANCH   8  18
ATOM     18  N   UNL     1       6.895  -8.157  -1.197  0.00  0.00    -0.328 N 
ATOM     19  H   UNL     1       6.012  -8.558  -1.206  0.00  0.00    +0.145 HD
ATOM     20  H   UNL     1       7.660  -8.663  -1.511  0.00  0.00    +0.145 HD
ENDBRANCH   8  18
BRANCH   9  21
ATOM     21  C   UNL     1       9.408  -7.112  -1.208  0.00  0.00    +0.101 C 
ATOM     22  N   UNL     1      10.285  -7.729  -1.583  0.00  0.00    -0.191 NA
ENDBRANCH   9  21
BRANCH   1  23
ATOM     23  O   UNL     1       3.716  -2.031  -0.045  0.00  0.00    -0.422 OA
BRANCH  23  24
ATOM     24  C   UNL     1       3.307  -1.407  -1.167  0.00  0.00    +0.344 C 
ATOM     25  O   UNL     1       4.014  -1.409  -2.155  0.00  0.00    -0.245 OA
BRANCH  24  29
ATOM     26  C   UNL     1      -0.452   0.566  -1.248  0.00  0.00    +0.000 A 
ATOM     27  C   UNL     1       0.350   0.566  -2.376  0.00  0.00    +0.001 A 
ATOM     28  C   UNL     1       1.573  -0.073  -2.356  0.00  0.00    +0.015 A 
ATOM     29  C   UNL     1       2.000  -0.720  -1.195  0.00  0.00    +0.059 A 
ATOM     30  C   UNL     1       1.185  -0.716  -0.061  0.00  0.00    +0.015 A 
ATOM     31  C   UNL     1      -0.035  -0.073  -0.094  0.00  0.00    +0.001 A 
ENDBRANCH  24  29
ENDBRANCH  23  24
ENDBRANCH   1  23
TORSDOF 6
