REMARK  Name = ZINC16534152
REMARK  7 active torsions:
REMARK  status: ('A' for Active; 'I' for Inactive)
REMARK    1  A    between atoms: C_4  and  N_7
REMARK    2  A    between atoms: C_8  and  O_35
REMARK    3  A    between atoms: C_9  and  C_18
REMARK    4  A    between atoms: C_10  and  C_12
REMARK    5  A    between atoms: C_12  and  C_13
REMARK    6  A    between atoms: N_22  and  C_26
REMARK    7  A    between atoms: C_26  and  C_27
REMARK                            x       y       z     vdW  Elec       q    Type
REMARK                         _______ _______ _______ _____ _____    ______ ____
ROOT
ATOM      1  N   UNL     1       2.404   1.105  -0.014  0.00  0.00    -0.200 N 
ATOM      2  C   UNL     1       3.525   1.509  -0.651  0.00  0.00    +0.223 A 
ATOM      3  C   UNL     1       4.503   0.547  -0.409  0.00  0.00    +0.062 A 
ATOM      4  C   UNL     1       3.909  -0.450   0.404  0.00  0.00    +0.079 A 
ATOM      5  N   UNL     1       2.673  -0.105   0.634  0.00  0.00    -0.167 NA
ENDROOT
BRANCH   3   6
ATOM      6  C   UNL     1       5.881   0.562  -0.901  0.00  0.00    +0.043 C 
ATOM      7  C   UNL     1       6.130   0.778  -2.221  0.00  0.00    +0.099 C 
ATOM      8  C   UNL     1       7.399   0.824  -2.857  0.00  0.00    +0.269 C 
ATOM      9  O   UNL     1       8.483   0.677  -2.320  0.00  0.00    -0.268 OA
ATOM     10  N   UNL     1       7.179   1.060  -4.164  0.00  0.00    -0.216 N 
ATOM     11  C   UNL     1       5.858   1.164  -4.388  0.00  0.00    +0.313 C 
ATOM     12  O   UNL     1       5.348   1.375  -5.472  0.00  0.00    -0.252 OA
ATOM     13  N   UNL     1       5.183   0.994  -3.236  0.00  0.00    -0.265 N 
ATOM     14  H   UNL     1       4.220   1.018  -3.126  0.00  0.00    +0.157 HD
BRANCH  10  15
ATOM     15  C   UNL     1       8.220   1.183  -5.187  0.00  0.00    +0.159 C 
BRANCH  15  16
ATOM     16  C   UNL     1       8.507  -0.174  -5.778  0.00  0.00    +0.041 A 
ATOM     17  C   UNL     1       9.483  -0.980  -5.220  0.00  0.00    +0.131 A 
ATOM     18  C   UNL     1       9.742  -2.229  -5.760  0.00  0.00    +0.039 A 
ATOM     19  C   UNL     1       9.033  -2.665  -6.864  0.00  0.00    +0.006 A 
ATOM     20  C   UNL     1       8.062  -1.858  -7.426  0.00  0.00    +0.039 A 
ATOM     21  C   UNL     1       7.798  -0.611  -6.884  0.00  0.00    +0.131 A 
ATOM     22  F   UNL     1       6.848   0.177  -7.433  0.00  0.00    -0.205 F 
ATOM     23  F   UNL     1      10.180  -0.552  -4.144  0.00  0.00    -0.205 F 
ENDBRANCH  15  16
ENDBRANCH  10  15
ENDBRANCH   3   6
BRANCH   1  27
ATOM     24  C   UNL     1      -1.237   3.133   0.030  0.00  0.00    +0.000 A 
ATOM     25  C   UNL     1      -1.218   1.751   0.017  0.00  0.00    +0.002 A 
ATOM     26  C   UNL     1      -0.013   1.076   0.008  0.00  0.00    +0.028 A 
ATOM     27  C   UNL     1       1.180   1.787   0.000  0.00  0.00    +0.069 A 
ATOM     28  C   UNL     1       1.157   3.175   0.008  0.00  0.00    +0.028 A 
ATOM     29  C   UNL     1      -0.051   3.845   0.022  0.00  0.00    +0.002 A 
ENDBRANCH   1  27
BRANCH   2  30
ATOM     30  O   UNL     1       3.670   2.635  -1.387  0.00  0.00    -0.492 OA
ATOM     31  H   UNL     1       3.966   3.403  -0.878  0.00  0.00    +0.294 HD
ENDBRANCH   2  30
BRANCH   4  32
ATOM     32  C   UNL     1       4.591  -1.691   0.920  0.00  0.00    +0.100 C 
BRANCH  32  33
ATOM     33  C   UNL     1       5.225  -1.397   2.256  0.00  0.00    -0.004 A 
ATOM     34  C   UNL     1       4.693  -1.512   3.497  0.00  0.00    +0.011 A 
ATOM     35  C   UNL     1       5.470  -1.187   4.593  0.00  0.00    +0.008 A 
ATOM     36  C   UNL     1       6.738  -0.751   4.393  0.00  0.00    +0.045 A 
ATOM     37  S   UNL     1       6.869  -0.800   2.613  0.00  0.00    -0.101 S 
ENDBRANCH  32  33
ENDBRANCH   4  32
TORSDOF 7
