REMARK  Name = ZINC39394948
REMARK  10 active torsions:
REMARK  status: ('A' for Active; 'I' for Inactive)
REMARK    1  A    between atoms: C_1  and  C_2
REMARK    2  A    between atoms: C_2  and  C_3
REMARK    3  A    between atoms: C_2  and  C_4
REMARK    4  A    between atoms: C_6  and  C_10
REMARK    5  A    between atoms: C_10  and  N_11
REMARK    6  A    between atoms: C_23  and  N_29
REMARK    7  A    between atoms: C_25  and  O_27
REMARK    8  A    between atoms: O_27  and  C_28
REMARK    9  A    between atoms: C_30  and  C_32
REMARK   10  A    between atoms: C_32  and  C_33
REMARK                            x       y       z     vdW  Elec       q    Type
REMARK                         _______ _______ _______ _____ _____    ______ ____
ROOT
ATOM      1  N   UNL     1      -4.975  -3.115   0.309  0.00  0.00    +0.381 N 
ATOM      2  C   UNL     1      -5.052  -2.377   1.576  0.00  0.00    -0.078 C 
ATOM      3  C   UNL     1      -6.496  -2.380   2.085  0.00  0.00    -0.005 C 
ATOM      4  C   UNL     1      -6.957  -3.822   2.285  0.00  0.00    +0.021 C 
ATOM      5  C   UNL     1      -6.787  -4.615   0.992  0.00  0.00    -0.005 C 
ATOM      6  C   UNL     1      -5.331  -4.522   0.528  0.00  0.00    -0.078 C 
ATOM      7  C   UNL     1      -8.397  -3.855   2.739  0.00  0.00    -0.034 A 
ATOM      8  C   UNL     1      -9.501  -3.149   2.289  0.00  0.00    +0.004 A 
ATOM      9  C   UNL     1     -10.738  -3.349   2.869  0.00  0.00    +0.000 A 
ATOM     10  C   UNL     1     -10.877  -4.258   3.901  0.00  0.00    +0.000 A 
ATOM     11  C   UNL     1      -9.779  -4.964   4.350  0.00  0.00    +0.006 A 
ATOM     12  C   UNL     1      -8.537  -4.765   3.771  0.00  0.00    -0.021 A 
ATOM     13  C   UNL     1      -7.199  -5.405   4.074  0.00  0.00    +0.133 C 
ATOM     14  C   UNL     1      -6.150  -4.481   3.418  0.00  0.00    +0.153 C 
ATOM     15  H   UNL     1      -5.616  -2.706  -0.354  0.00  0.00    -0.082 HD
ENDROOT
BRANCH  13  16
ATOM     16  N   UNL     1      -7.134  -6.747   3.489  0.00  0.00    -0.306 N 
ATOM     17  C   UNL     1      -7.608  -7.805   4.176  0.00  0.00    +0.218 C 
ATOM     18  O   UNL     1      -8.089  -7.647   5.278  0.00  0.00    -0.275 OA
ATOM     19  H   UNL     1      -6.749  -6.874   2.608  0.00  0.00    +0.149 HD
BRANCH  17  20
ATOM     20  C   UNL     1      -7.541  -9.185   3.574  0.00  0.00    +0.138 C 
BRANCH  20  21
ATOM     21  C   UNL     1      -8.132 -10.182   4.537  0.00  0.00    -0.001 A 
ATOM     22  C   UNL     1      -9.415 -10.608   4.644  0.00  0.00    +0.011 A 
ATOM     23  C   UNL     1      -9.732 -11.541   5.614  0.00  0.00    +0.008 A 
ATOM     24  C   UNL     1      -8.752 -12.003   6.428  0.00  0.00    +0.045 A 
ATOM     25  S   UNL     1      -7.324 -11.115   5.827  0.00  0.00    -0.101 S 
ENDBRANCH  20  21
ENDBRANCH  17  20
ENDBRANCH  13  16
BRANCH  14  26
ATOM     26  O   UNL     1      -5.684  -3.501   4.348  0.00  0.00    -0.377 OA
ATOM     27  C   UNL     1      -4.454  -3.845   4.987  0.00  0.00    +0.194 C 
ENDBRANCH  14  26
BRANCH   1  28
ATOM     28  C   UNL     1      -3.607  -3.034  -0.220  0.00  0.00    -0.046 C 
BRANCH  28  31
ATOM     29  C   UNL     1      -2.419  -2.767  -3.332  0.00  0.00    +0.064 C 
ATOM     30  C   UNL     1      -2.187  -3.493  -2.236  0.00  0.00    +0.024 C 
ATOM     31  C   UNL     1      -3.562  -3.664  -1.613  0.00  0.00    +0.136 C 
ATOM     32  N   UNL     1      -4.440  -2.939  -2.546  0.00  0.00    -0.182 NA
ATOM     33  N   UNL     1      -3.735  -2.478  -3.447  0.00  0.00    -0.159 NA
BRANCH  29  35
ATOM     34  C   UNL     1      -1.672  -2.888  -5.693  0.00  0.00    +0.014 C 
ATOM     35  C   UNL     1      -1.358  -2.325  -4.306  0.00  0.00    +0.033 C 
ATOM     36  C   UNL     1      -1.329  -0.797  -4.370  0.00  0.00    +0.014 C 
ENDBRANCH  29  35
ENDBRANCH  28  31
ENDBRANCH   1  28
TORSDOF 7
