REMARK  Name = ZINC35375442
REMARK  7 active torsions:
REMARK  status: ('A' for Active; 'I' for Inactive)
REMARK    1  A    between atoms: C_1  and  C_2
REMARK    2  A    between atoms: C_2  and  C_3
REMARK    3  A    between atoms: C_3  and  C_5
REMARK    4  A    between atoms: C_3  and  N_6
REMARK    5  A    between atoms: C_27  and  C_29
REMARK    6  A    between atoms: C_29  and  C_31
REMARK    7  A    between atoms: C_29  and  O_32
REMARK                            x       y       z     vdW  Elec       q    Type
REMARK                         _______ _______ _______ _____ _____    ______ ____
ROOT
ATOM      1  N   UNL     1       2.148  -0.104   1.172  0.00  0.00    -0.239 N 
ATOM      2  C   UNL     1       2.959  -0.473   0.174  0.00  0.00    +0.228 C 
ATOM      3  O   UNL     1       2.641  -1.168  -0.767  0.00  0.00    -0.275 OA
ATOM      4  C   UNL     1       4.334   0.113   0.401  0.00  0.00    +0.109 C 
ATOM      5  C   UNL     1       4.171   0.903   1.730  0.00  0.00    +0.123 C 
ATOM      6  C   UNL     1       2.723   0.672   2.098  0.00  0.00    +0.228 C 
ATOM      7  O   UNL     1       2.171   1.117   3.080  0.00  0.00    -0.275 OA
ATOM      8  C   UNL     1       5.100   0.191   2.720  0.00  0.00    +0.136 C 
ATOM      9  C   UNL     1       4.344  -0.764   3.601  0.00  0.00    +0.005 A 
ATOM     10  C   UNL     1       3.556  -1.864   3.348  0.00  0.00    +0.027 A 
ATOM     11  C   UNL     1       2.982  -2.561   4.399  0.00  0.00    +0.041 A 
ATOM     12  C   UNL     1       3.202  -2.147   5.701  0.00  0.00    +0.022 A 
ATOM     13  C   UNL     1       3.990  -1.044   5.957  0.00  0.00    +0.025 A 
ATOM     14  C   UNL     1       4.571  -0.338   4.906  0.00  0.00    +0.039 A 
ATOM     15  N   UNL     1       5.394   0.791   4.910  0.00  0.00    -0.283 N 
ATOM     16  C   UNL     1       5.748   1.166   3.665  0.00  0.00    +0.243 C 
ATOM     17  O   UNL     1       6.453   2.106   3.365  0.00  0.00    -0.273 OA
ATOM     18 CL   UNL     1       1.989  -3.949   4.083  0.00  0.00    -0.084 Cl
ATOM     19  N   UNL     1       6.104  -0.512   1.900  0.00  0.00    -0.293 NA
ATOM     20  C   UNL     1       5.324  -1.028   0.721  0.00  0.00    +0.096 C 
ATOM     21  H   UNL     1       5.677   1.252   5.715  0.00  0.00    +0.155 HD
ATOM     22  H   UNL     1       6.835   0.118   1.605  0.00  0.00    +0.124 HD
ENDROOT
BRANCH   1  23
ATOM     23  C   UNL     1       0.742  -0.511   1.242  0.00  0.00    +0.081 C 
ATOM     24  C   UNL     1       0.655  -2.037   1.299  0.00  0.00    +0.028 C 
BRANCH  23  26
ATOM     25  C   UNL     1      -0.019   1.526   0.010  0.00  0.00    +0.006 C 
ATOM     26  C   UNL     1       0.002  -0.004   0.002  0.00  0.00    +0.019 C 
ENDBRANCH  23  26
ENDBRANCH   1  23
BRANCH  20  27
ATOM     27  C   UNL     1       6.255  -1.273  -0.468  0.00  0.00    +0.129 C 
ATOM     28  C   UNL     1       7.226  -2.406  -0.130  0.00  0.00    +0.039 C 
BRANCH  27  29
ATOM     29  O   UNL     1       5.481  -1.636  -1.613  0.00  0.00    -0.390 OA
ATOM     30  H   UNL     1       4.954  -2.438  -1.493  0.00  0.00    +0.210 HD
ENDBRANCH  27  29
ENDBRANCH  20  27
TORSDOF 4
