REMARK  Name = ZINC14475318
REMARK  6 active torsions:
REMARK  status: ('A' for Active; 'I' for Inactive)
REMARK    1  A    between atoms: C_1  and  C_2
REMARK    2  A    between atoms: C_6  and  C_38
REMARK    3  A    between atoms: C_7  and  N_8
REMARK    4  A    between atoms: N_8  and  S_9
REMARK    5  A    between atoms: S_9  and  C_12
REMARK    6  A    between atoms: C_25  and  C_28
REMARK                            x       y       z     vdW  Elec       q    Type
REMARK                         _______ _______ _______ _____ _____    ______ ____
ROOT
ATOM      1  C   UNL     1      -4.101   3.623   0.042  0.00  0.00    +0.109 A 
ATOM      2  C   UNL     1      -4.138   2.252  -0.136  0.00  0.00    +0.030 A 
ATOM      3  C   UNL     1      -3.054   1.594  -0.678  0.00  0.00    +0.025 A 
ATOM      4  C   UNL     1      -1.919   2.303  -1.055  0.00  0.00    +0.031 A 
ATOM      5  C   UNL     1      -1.892   3.691  -0.881  0.00  0.00    -0.018 A 
ATOM      6  C   UNL     1      -2.978   4.338  -0.331  0.00  0.00    +0.034 A 
ATOM      7  C   UNL     1      -0.674   4.410  -1.313  0.00  0.00    +0.049 C 
ATOM      8  C   UNL     1      -0.268   5.704  -0.708  0.00  0.00    -0.023 C 
ATOM      9  C   UNL     1       1.057   5.787  -0.736  0.00  0.00    -0.030 C 
ATOM     10  C   UNL     1       1.649   4.514  -1.343  0.00  0.00    +0.033 C 
ATOM     11  C   UNL     1       0.550   3.487  -1.038  0.00  0.00    +0.029 C 
ATOM     12  C   UNL     1       0.404   2.323  -2.002  0.00  0.00    +0.105 C 
ATOM     13  N   UNL     1      -0.823   1.610  -1.583  0.00  0.00    -0.336 N 
ATOM     14  H   UNL     1      -0.870   0.646  -1.679  0.00  0.00    +0.147 HD
ENDROOT
BRANCH  12  15
ATOM     15  C   UNL     1       0.255   2.829  -3.414  0.00  0.00    -0.026 A 
ATOM     16  C   UNL     1      -1.018   3.068  -3.927  0.00  0.00    +0.006 A 
ATOM     17  C   UNL     1      -1.188   3.526  -5.197  0.00  0.00    +0.009 A 
ATOM     18  C   UNL     1      -0.063   3.761  -6.007  0.00  0.00    -0.018 A 
ATOM     19  C   UNL     1      -0.198   4.234  -7.324  0.00  0.00    +0.008 A 
ATOM     20  C   UNL     1       0.913   4.450  -8.079  0.00  0.00    +0.001 A 
ATOM     21  C   UNL     1       2.187   4.210  -7.566  0.00  0.00    +0.001 A 
ATOM     22  C   UNL     1       2.356   3.752  -6.296  0.00  0.00    +0.008 A 
ATOM     23  C   UNL     1       1.232   3.517  -5.486  0.00  0.00    -0.018 A 
ATOM     24  C   UNL     1       1.367   3.050  -4.167  0.00  0.00    +0.014 A 
ENDBRANCH  12  15
BRANCH   1  25
ATOM     25  S   UNL     1      -5.484   4.459   0.744  0.00  0.00    +0.072 S 
ATOM     26  O   UNL     1      -6.130   3.527   1.601  0.00  0.00    -0.150 OA
ATOM     27  O   UNL     1      -5.008   5.715   1.206  0.00  0.00    -0.150 OA
BRANCH  25  28
ATOM     28  N   UNL     1      -6.541   4.778  -0.490  0.00  0.00    -0.216 N 
ATOM     29  H   UNL     1      -6.694   5.693  -0.773  0.00  0.00    +0.174 HD
BRANCH  28  36
ATOM     30  C   UNL     1      -5.682   4.013  -3.093  0.00  0.00    +0.046 C 
ATOM     31  C   UNL     1      -6.826   3.323  -2.395  0.00  0.00    -0.028 A 
ATOM     32  C   UNL     1      -7.488   2.283  -3.017  0.00  0.00    +0.005 A 
ATOM     33  C   UNL     1      -8.542   1.653  -2.380  0.00  0.00    +0.001 A 
ATOM     34  C   UNL     1      -8.932   2.058  -1.116  0.00  0.00    +0.005 A 
ATOM     35  C   UNL     1      -8.271   3.094  -0.487  0.00  0.00    -0.028 A 
ATOM     36  C   UNL     1      -7.212   3.729  -1.124  0.00  0.00    +0.054 A 
ATOM     37  C   UNL     1      -8.696   3.535   0.890  0.00  0.00    +0.046 C 
ENDBRANCH  28  36
ENDBRANCH  25  28
ENDBRANCH   1  25
TORSDOF 4
