REMARK  Name = ZINC16190831
REMARK  12 active torsions:
REMARK  status: ('A' for Active; 'I' for Inactive)
REMARK    1  A    between atoms: C_1  and  C_2
REMARK    2  A    between atoms: C_2  and  C_3
REMARK    3  A    between atoms: C_2  and  C_4
REMARK    4  A    between atoms: C_2  and  C_17
REMARK    5  A    between atoms: C_4  and  N_5
REMARK    6  A    between atoms: N_5  and  C_6
REMARK    7  A    between atoms: C_6  and  N_8
REMARK    8  A    between atoms: N_8  and  C_9
REMARK    9  A    between atoms: C_17  and  N_18
REMARK   10  A    between atoms: N_18  and  C_19
REMARK   11  A    between atoms: C_19  and  N_21
REMARK   12  A    between atoms: N_21  and  C_22
REMARK                            x       y       z     vdW  Elec       q    Type
REMARK                         _______ _______ _______ _____ _____    ______ ____
ROOT
ATOM      1  C   UNL     1       0.119   1.465   0.247  0.00  0.00    +0.014 C 
ATOM      2  C   UNL     1       0.365  -0.039   0.110  0.00  0.00    -0.004 C 
ATOM      3  C   UNL     1       1.226  -0.524   1.278  0.00  0.00    +0.014 C 
ENDROOT
BRANCH   2   4
ATOM      4  C   UNL     1      -0.975  -0.777   0.122  0.00  0.00    +0.111 C 
BRANCH   4   5
ATOM      5  N   UNL     1      -1.669  -0.509   1.385  0.00  0.00    -0.326 N 
ATOM      6  H   UNL     1      -1.259   0.064   2.051  0.00  0.00    +0.148 HD
BRANCH   5   7
ATOM      7  C   UNL     1      -2.877  -1.058   1.620  0.00  0.00    +0.135 C 
ATOM      8  S   UNL     1      -3.601  -2.070   0.444  0.00  0.00    -0.019 S 
BRANCH   7   9
ATOM      9  N   UNL     1      -3.515  -0.812   2.781  0.00  0.00    -0.295 N 
ATOM     10  H   UNL     1      -3.075  -0.296   3.476  0.00  0.00    +0.154 HD
BRANCH   9  11
ATOM     11  C   UNL     1      -4.813  -1.299   2.985  0.00  0.00    +0.068 A 
ATOM     12  C   UNL     1      -5.124  -2.609   2.648  0.00  0.00    +0.029 A 
ATOM     13  C   UNL     1      -6.404  -3.088   2.850  0.00  0.00    +0.040 A 
ATOM     14  C   UNL     1      -7.377  -2.263   3.388  0.00  0.00    +0.126 A 
ATOM     15  C   UNL     1      -7.070  -0.956   3.725  0.00  0.00    +0.078 A 
ATOM     16  C   UNL     1      -5.789  -0.473   3.530  0.00  0.00    +0.147 A 
ATOM     17  F   UNL     1      -5.488   0.801   3.864  0.00  0.00    -0.203 F 
ATOM     18  F   UNL     1      -8.628  -2.734   3.584  0.00  0.00    -0.205 F 
ENDBRANCH   9  11
ENDBRANCH   7   9
ENDBRANCH   5   7
ENDBRANCH   4   5
ENDBRANCH   2   4
BRANCH   2  19
ATOM     19  C   UNL     1       1.089  -0.319  -1.209  0.00  0.00    +0.111 C 
BRANCH  19  20
ATOM     20  N   UNL     1       2.372   0.388  -1.221  0.00  0.00    -0.326 N 
ATOM     21  H   UNL     1       2.635   0.928  -0.460  0.00  0.00    +0.148 HD
BRANCH  20  22
ATOM     22  C   UNL     1       3.187   0.287  -2.290  0.00  0.00    +0.135 C 
ATOM     23  S   UNL     1       2.723  -0.667  -3.633  0.00  0.00    -0.019 S 
BRANCH  22  24
ATOM     24  N   UNL     1       4.367   0.938  -2.301  0.00  0.00    -0.295 N 
ATOM     25  H   UNL     1       4.652   1.438  -1.520  0.00  0.00    +0.154 HD
BRANCH  24  26
ATOM     26  C   UNL     1       5.182   0.891  -3.440  0.00  0.00    +0.068 A 
ATOM     27  C   UNL     1       4.612   0.927  -4.705  0.00  0.00    +0.029 A 
ATOM     28  C   UNL     1       5.417   0.881  -5.826  0.00  0.00    +0.040 A 
ATOM     29  C   UNL     1       6.793   0.799  -5.691  0.00  0.00    +0.126 A 
ATOM     30  C   UNL     1       7.365   0.763  -4.431  0.00  0.00    +0.078 A 
ATOM     31  C   UNL     1       6.564   0.814  -3.305  0.00  0.00    +0.147 A 
ATOM     32  F   UNL     1       7.123   0.784  -2.075  0.00  0.00    -0.203 F 
ATOM     33  F   UNL     1       7.577   0.754  -6.790  0.00  0.00    -0.205 F 
ENDBRANCH  24  26
ENDBRANCH  22  24
ENDBRANCH  20  22
ENDBRANCH  19  20
ENDBRANCH   2  19
TORSDOF 10
