REMARK  Name = ZINC02961772
REMARK  13 active torsions:
REMARK  status: ('A' for Active; 'I' for Inactive)
REMARK    1  A    between atoms: C_1  and  C_2
REMARK    2  A    between atoms: C_2  and  C_3
REMARK    3  A    between atoms: C_6  and  N_9
REMARK    4  A    between atoms: C_10  and  C_12
REMARK    5  A    between atoms: C_12  and  S_13
REMARK    6  A    between atoms: S_13  and  C_14
REMARK    7  A    between atoms: N_27  and  C_28
REMARK    8  A    between atoms: C_28  and  C_29
REMARK    9  A    between atoms: C_29  and  N_30
REMARK   10  A    between atoms: N_30  and  C_31
REMARK   11  A    between atoms: N_30  and  C_33
REMARK   12  A    between atoms: C_31  and  C_32
REMARK   13  A    between atoms: C_33  and  C_34
REMARK                            x       y       z     vdW  Elec       q    Type
REMARK                         _______ _______ _______ _____ _____    ______ ____
ROOT
ATOM      1  C   UNL     1       2.687  -2.957   9.637  0.00  0.00    +0.173 A 
ATOM      2  N   UNL     1       3.938  -3.147   9.305  0.00  0.00    -0.222 NA
ATOM      3  C   UNL     1       4.838  -3.692  10.168  0.00  0.00    +0.094 A 
ATOM      4  C   UNL     1       6.268  -3.958   9.921  0.00  0.00    +0.015 A 
ATOM      5  C   UNL     1       6.998  -3.702   8.738  0.00  0.00    +0.011 A 
ATOM      6  C   UNL     1       8.322  -4.004   8.659  0.00  0.00    +0.001 A 
ATOM      7  C   UNL     1       9.001  -4.570   9.729  0.00  0.00    +0.001 A 
ATOM      8  C   UNL     1       8.322  -4.834  10.902  0.00  0.00    +0.016 A 
ATOM      9  C   UNL     1       6.977  -4.531  10.992  0.00  0.00    +0.022 A 
ATOM     10  S   UNL     1       5.768  -4.705  12.278  0.00  0.00    -0.081 S 
ATOM     11  C   UNL     1       4.360  -4.039  11.431  0.00  0.00    +0.103 A 
ATOM     12  C   UNL     1       3.023  -3.836  11.784  0.00  0.00    +0.269 A 
ATOM     13  O   UNL     1       2.614  -4.143  12.892  0.00  0.00    -0.266 OA
ATOM     14  N   UNL     1       2.195  -3.283  10.867  0.00  0.00    -0.289 N 
ENDROOT
BRANCH   1  15
ATOM     15  S   UNL     1       1.596  -2.245   8.451  0.00  0.00    -0.078 S 
BRANCH  15  16
ATOM     16  C   UNL     1       2.644  -1.978   6.995  0.00  0.00    +0.173 C 
BRANCH  16  18
ATOM     17  N   UNL     1       2.396  -1.075   4.705  0.00  0.00    -0.285 N 
ATOM     18  C   UNL     1       1.823  -1.364   5.890  0.00  0.00    +0.227 C 
ATOM     19  O   UNL     1       0.646  -1.130   6.068  0.00  0.00    -0.275 OA
ATOM     20  H   UNL     1       3.317  -1.330   4.537  0.00  0.00    +0.155 HD
BRANCH  17  24
ATOM     21  C   UNL     1       0.214   0.911   1.764  0.00  0.00    -0.048 A 
ATOM     22  C   UNL     1      -0.015   1.190   3.100  0.00  0.00    +0.005 A 
ATOM     23  C   UNL     1       0.707   0.533   4.077  0.00  0.00    +0.023 A 
ATOM     24  C   UNL     1       1.663  -0.408   3.718  0.00  0.00    +0.033 A 
ATOM     25  C   UNL     1       1.890  -0.686   2.376  0.00  0.00    +0.023 A 
ATOM     26  C   UNL     1       1.162  -0.029   1.404  0.00  0.00    +0.005 A 
BRANCH  21  28
ATOM     27  C   UNL     1      -1.848   0.841   0.390  0.00  0.00    +0.009 C 
ATOM     28  C   UNL     1      -0.575   1.630   0.701  0.00  0.00    +0.032 C 
ENDBRANCH  21  28
ENDBRANCH  17  24
ENDBRANCH  16  18
ENDBRANCH  15  16
ENDBRANCH   1  15
BRANCH  14  29
ATOM     29  C   UNL     1       0.786  -3.043  11.189  0.00  0.00    +0.109 C 
BRANCH  29  30
ATOM     30  C   UNL     1      -0.040  -4.277  10.818  0.00  0.00    -0.057 C 
BRANCH  30  31
ATOM     31  N   UNL     1      -1.452  -4.036  11.141  0.00  0.00    +0.380 N 
ATOM     32  H   UNL     1      -1.535  -3.773  12.112  0.00  0.00    -0.082 HD
BRANCH  31  33
ATOM     33  C   UNL     1      -1.970  -2.953  10.294  0.00  0.00    -0.082 C 
ATOM     34  C   UNL     1      -3.393  -2.599  10.733  0.00  0.00    -0.017 C 
ENDBRANCH  31  33
BRANCH  31  35
ATOM     35  C   UNL     1      -2.226  -5.261  10.897  0.00  0.00    -0.082 C 
ATOM     36  C   UNL     1      -1.780  -6.348  11.877  0.00  0.00    -0.017 C 
ENDBRANCH  31  35
ENDBRANCH  30  31
ENDBRANCH  29  30
ENDBRANCH  14  29
TORSDOF 10
