REMARK  Name = ZINC09782525
REMARK  13 active torsions:
REMARK  status: ('A' for Active; 'I' for Inactive)
REMARK    1  A    between atoms: C_1  and  C_2
REMARK    2  A    between atoms: C_2  and  C_3
REMARK    3  A    between atoms: C_3  and  C_4
REMARK    4  A    between atoms: C_4  and  O_5
REMARK    5  A    between atoms: O_5  and  C_6
REMARK    6  A    between atoms: C_11  and  C_12
REMARK    7  A    between atoms: C_20  and  C_22
REMARK    8  A    between atoms: C_22  and  C_23
REMARK    9  A    between atoms: C_23  and  O_25
REMARK   10  A    between atoms: O_25  and  C_26
REMARK   11  A    between atoms: C_26  and  C_28
REMARK   12  A    between atoms: C_26  and  C_29
REMARK   13  A    between atoms: C_29  and  C_30
REMARK                            x       y       z     vdW  Elec       q    Type
REMARK                         _______ _______ _______ _____ _____    ______ ____
ROOT
ATOM      1  C   UNL     1      -1.549   7.856   2.604  0.00  0.00    +0.251 C 
ATOM      2  O   UNL     1      -0.915   7.329   1.711  0.00  0.00    -0.270 OA
ATOM      3  N   UNL     1      -1.693   9.196   2.627  0.00  0.00    -0.284 N 
ATOM      4  C   UNL     1      -2.344   9.877   3.760  0.00  0.00    +0.127 C 
ATOM      5  C   UNL     1      -1.324  10.821   4.400  0.00  0.00    +0.123 C 
ATOM      6  N   UNL     1      -0.634  11.602   3.382  0.00  0.00    -0.312 N 
ATOM      7  C   UNL     1      -0.532  11.253   2.099  0.00  0.00    +0.234 C 
ATOM      8  O   UNL     1       0.136  11.947   1.362  0.00  0.00    -0.274 OA
ATOM      9  C   UNL     1      -1.202  10.038   1.527  0.00  0.00    +0.173 C 
ATOM     10  H   UNL     1      -0.220  12.435   3.658  0.00  0.00    +0.149 HD
ENDROOT
BRANCH   1  16
ATOM     11  C   UNL     1      -1.375   6.136   4.401  0.00  0.00    +0.133 A 
ATOM     12  C   UNL     1      -1.962   5.360   5.390  0.00  0.00    +0.046 A 
ATOM     13  C   UNL     1      -3.312   5.477   5.651  0.00  0.00    +0.004 A 
ATOM     14  C   UNL     1      -4.093   6.360   4.922  0.00  0.00    +0.001 A 
ATOM     15  C   UNL     1      -3.528   7.134   3.932  0.00  0.00    +0.017 A 
ATOM     16  C   UNL     1      -2.161   7.030   3.662  0.00  0.00    +0.078 A 
BRANCH  11  17
ATOM     17  O   UNL     1      -0.047   6.027   4.148  0.00  0.00    -0.491 OA
BRANCH  17  18
ATOM     18  C   UNL     1       0.691   5.095   4.942  0.00  0.00    +0.229 C 
BRANCH  18  19
ATOM     19  C   UNL     1       2.160   5.111   4.514  0.00  0.00    +0.041 C 
BRANCH  19  21
ATOM     20  C   UNL     1       4.418   4.129   4.936  0.00  0.00    +0.004 C 
ATOM     21  C   UNL     1       2.949   4.113   5.364  0.00  0.00    -0.000 C 
ENDBRANCH  19  21
ENDBRANCH  18  19
ENDBRANCH  17  18
ENDBRANCH  11  17
ENDBRANCH   1  16
BRANCH   9  22
ATOM     22  C   UNL     1      -2.377  10.473   0.649  0.00  0.00    +0.152 C 
BRANCH  22  23
ATOM     23  C   UNL     1      -2.982   9.263  -0.015  0.00  0.00    +0.310 C 
ATOM     24  O   UNL     1      -2.521   8.166   0.192  0.00  0.00    -0.251 OA
BRANCH  23  25
ATOM     25  O   UNL     1      -4.034   9.404  -0.837  0.00  0.00    -0.462 OA
BRANCH  25  26
ATOM     26  C   UNL     1      -4.565   8.195  -1.442  0.00  0.00    +0.173 C 
ATOM     27  C   UNL     1      -3.856   7.937  -2.772  0.00  0.00    +0.052 C 
BRANCH  26  28
ATOM     28  C   UNL     1      -6.066   8.365  -1.688  0.00  0.00    +0.041 C 
ATOM     29  C   UNL     1      -6.791   8.499  -0.347  0.00  0.00    +0.007 C 
ENDBRANCH  26  28
ENDBRANCH  25  26
ENDBRANCH  23  25
ENDBRANCH  22  23
ENDBRANCH   9  22
TORSDOF 10
