REMARK  Name = ZINC39856273
REMARK  6 active torsions:
REMARK  status: ('A' for Active; 'I' for Inactive)
REMARK    1  A    between atoms: C_1  and  C_2
REMARK    2  A    between atoms: C_6  and  C_7
REMARK    3  A    between atoms: N_12  and  C_15
REMARK    4  A    between atoms: C_23  and  C_31
REMARK    5  A    between atoms: C_23  and  C_32
REMARK    6  A    between atoms: N_26  and  N_27
REMARK                            x       y       z     vdW  Elec       q    Type
REMARK                         _______ _______ _______ _____ _____    ______ ____
ROOT
ATOM      1  C   UNL     1       0.543   1.437   0.013  0.00  0.00    +0.048 C 
ATOM      2  C   UNL     1       0.189  -0.028   0.003  0.00  0.00    +0.009 A 
ATOM      3  C   UNL     1       0.028  -0.846  -1.122  0.00  0.00    +0.042 A 
ATOM      4  C   UNL     1      -0.293  -2.105  -0.673  0.00  0.00    +0.116 A 
ATOM      5  O   UNL     1      -0.326  -2.072   0.657  0.00  0.00    -0.454 OA
ATOM      6  C   UNL     1      -0.033  -0.825   1.091  0.00  0.00    +0.193 A 
ATOM      7  C   UNL     1      -0.550  -3.265  -1.601  0.00  0.00    +0.081 C 
ATOM      8  C   UNL     1      -0.904  -2.735  -2.993  0.00  0.00    -0.023 C 
ATOM      9  C   UNL     1       0.163  -1.751  -3.484  0.00  0.00    +0.064 C 
ATOM     10  C   UNL     1       0.152  -0.539  -2.564  0.00  0.00    +0.071 C 
ATOM     11  N   UNL     1       0.244   0.675  -3.012  0.00  0.00    -0.183 NA
ATOM     12  C   UNL     1      -0.996  -3.908  -3.971  0.00  0.00    +0.011 C 
ATOM     13  C   UNL     1      -2.256  -2.023  -2.933  0.00  0.00    +0.011 C 
ENDROOT
BRANCH   6  14
ATOM     14  C   UNL     1       0.032  -0.400   2.494  0.00  0.00    +0.282 C 
ATOM     15  O   UNL     1       0.158   0.780   2.766  0.00  0.00    -0.267 OA
ATOM     16  N   UNL     1      -0.047  -1.315   3.480  0.00  0.00    -0.292 N 
ATOM     17  C   UNL     1      -0.026  -2.751   3.171  0.00  0.00    +0.127 C 
ATOM     18  C   UNL     1       1.107  -3.407   3.969  0.00  0.00    +0.124 C 
ATOM     19  N   UNL     1       0.999  -2.986   5.373  0.00  0.00    -0.325 N 
ATOM     20  C   UNL     1       0.978  -1.550   5.681  0.00  0.00    +0.124 C 
ATOM     21  C   UNL     1      -0.150  -0.893   4.884  0.00  0.00    +0.127 C 
BRANCH  19  22
ATOM     22  C   UNL     1       0.916  -3.936   6.396  0.00  0.00    +0.065 A 
ATOM     23  C   UNL     1       2.072  -4.407   7.003  0.00  0.00    +0.026 A 
ATOM     24  C   UNL     1       1.988  -5.344   8.014  0.00  0.00    +0.002 A 
ATOM     25  C   UNL     1       0.753  -5.815   8.423  0.00  0.00    +0.003 A 
ATOM     26  C   UNL     1      -0.402  -5.349   7.821  0.00  0.00    +0.040 A 
ATOM     27  C   UNL     1      -0.325  -4.406   6.812  0.00  0.00    +0.144 A 
ATOM     28  F   UNL     1      -1.453  -3.946   6.229  0.00  0.00    -0.204 F 
ENDBRANCH  19  22
ENDBRANCH   6  14
BRANCH  11  29
ATOM     29  N   UNL     1       0.360   0.907  -4.389  0.00  0.00    -0.191 N 
ATOM     30  C   UNL     1       0.456   2.169  -4.854  0.00  0.00    +0.317 C 
ATOM     31  O   UNL     1       0.557   2.370  -6.049  0.00  0.00    -0.251 OA
ATOM     32  N   UNL     1       0.441   3.207  -3.994  0.00  0.00    -0.312 N 
ATOM     33  H   UNL     1       0.372   0.160  -5.007  0.00  0.00    +0.179 HD
ATOM     34  H   UNL     1       0.361   3.046  -3.041  0.00  0.00    +0.147 HD
ATOM     35  H   UNL     1       0.510   4.114  -4.329  0.00  0.00    +0.147 HD
ENDBRANCH  11  29
TORSDOF 3
