REMARK  Name = ZINC09778680
REMARK  8 active torsions:
REMARK  status: ('A' for Active; 'I' for Inactive)
REMARK    1  A    between atoms: C_1  and  O_2
REMARK    2  A    between atoms: O_2  and  C_3
REMARK    3  A    between atoms: C_8  and  O_9
REMARK    4  A    between atoms: O_9  and  C_10
REMARK    5  A    between atoms: C_11  and  C_31
REMARK    6  A    between atoms: C_15  and  C_16
REMARK    7  A    between atoms: C_15  and  N_60
REMARK    8  A    between atoms: N_21  and  C_22
REMARK                            x       y       z     vdW  Elec       q    Type
REMARK                         _______ _______ _______ _____ _____    ______ ____
ROOT
ATOM      1  C   UNL     1       2.906   5.476   4.018  0.00  0.00    +0.162 A 
ATOM      2  C   UNL     1       2.939   6.383   2.985  0.00  0.00    +0.053 A 
ATOM      3  C   UNL     1       2.727   5.971   1.677  0.00  0.00    -0.043 A 
ATOM      4  C   UNL     1       2.490   4.643   1.403  0.00  0.00    -0.049 A 
ATOM      5  C   UNL     1       2.462   3.723   2.441  0.00  0.00    +0.052 A 
ATOM      6  C   UNL     1       2.668   4.132   3.746  0.00  0.00    +0.162 A 
ATOM      7  C   UNL     1       2.264   4.146  -0.001  0.00  0.00    +0.001 C 
ATOM      8  C   UNL     1       2.920   6.331  -0.776  0.00  0.00    -0.072 C 
ATOM      9  C   UNL     1       2.758   7.009   0.585  0.00  0.00    +0.017 C 
ATOM     10  N   UNL     1       1.897   5.271  -0.876  0.00  0.00    +0.393 N 
ATOM     11  H   UNL     1       0.991   5.649  -0.575  0.00  0.00    -0.080 HD
ENDROOT
BRANCH   7  12
ATOM     12  C   UNL     1       1.139   3.143   0.002  0.00  0.00    -0.019 A 
ATOM     13  C   UNL     1       1.202   1.789  -0.008  0.00  0.00    +0.010 A 
ATOM     14  C   UNL     1       0.026   1.062  -0.002  0.00  0.00    +0.008 A 
ATOM     15  C   UNL     1      -1.156   1.725   0.008  0.00  0.00    +0.045 A 
ATOM     16  S   UNL     1      -0.623   3.429   0.021  0.00  0.00    -0.103 S 
ENDBRANCH   7  12
BRANCH   1  18
ATOM     17  C   UNL     1       3.349   7.283   5.500  0.00  0.00    +0.277 C 
ATOM     18  O   UNL     1       3.111   5.888   5.298  0.00  0.00    -0.491 OA
ENDBRANCH   1  18
BRANCH   6  19
ATOM     19  O   UNL     1       2.639   3.225   4.759  0.00  0.00    -0.491 OA
ATOM     20  C   UNL     1       2.390   1.864   4.404  0.00  0.00    +0.277 C 
ENDBRANCH   6  19
BRANCH  10  21
ATOM     21  C   UNL     1       1.782   4.806  -2.277  0.00  0.00    +0.020 C 
BRANCH  21  22
ATOM     22  C   UNL     1       1.191   5.912  -3.112  0.00  0.00    +0.204 C 
ATOM     23  O   UNL     1       0.908   6.974  -2.600  0.00  0.00    -0.277 OA
ATOM     24  N   UNL     1       0.976   5.721  -4.429  0.00  0.00    -0.241 N 
ATOM     25  C   UNL     1       0.446   6.710  -5.176  0.00  0.00    +0.310 C 
ATOM     26  O   UNL     1       0.163   7.775  -4.662  0.00  0.00    -0.252 OA
ATOM     27  N   UNL     1       0.231   6.519  -6.493  0.00  0.00    -0.269 N 
ATOM     28  H   UNL     1       1.202   4.872  -4.839  0.00  0.00    +0.159 HD
ATOM     29  H   UNL     1       0.518   5.695  -6.917  0.00  0.00    +0.156 HD
BRANCH  27  30
ATOM     30  C   UNL     1      -0.407   7.511  -7.250  0.00  0.00    +0.038 A 
ATOM     31  C   UNL     1      -0.188   8.851  -6.963  0.00  0.00    +0.027 A 
ATOM     32  C   UNL     1      -0.817   9.830  -7.709  0.00  0.00    +0.051 A 
ATOM     33  C   UNL     1      -1.667   9.477  -8.744  0.00  0.00    +0.166 A 
ATOM     34  C   UNL     1      -1.889   8.133  -9.034  0.00  0.00    +0.168 A 
ATOM     35  C   UNL     1      -1.254   7.152  -8.289  0.00  0.00    +0.073 A 
ATOM     36  O   UNL     1      -2.756   8.050 -10.085  0.00  0.00    -0.453 OA
ATOM     37  C   UNL     1      -2.743   9.353 -10.698  0.00  0.00    +0.466 C 
ATOM     38  O   UNL     1      -2.396  10.236  -9.615  0.00  0.00    -0.453 OA
ENDBRANCH  27  30
ENDBRANCH  21  22
ENDBRANCH  10  21
TORSDOF 6
