REMARK  Name = ZINC45866095
REMARK  8 active torsions:
REMARK  status: ('A' for Active; 'I' for Inactive)
REMARK    1  A    between atoms: C_1  and  S_2
REMARK    2  A    between atoms: S_2  and  C_5
REMARK    3  A    between atoms: C_8  and  S_11
REMARK    4  A    between atoms: S_11  and  N_14
REMARK    5  A    between atoms: N_14  and  C_15
REMARK    6  A    between atoms: C_18  and  S_21
REMARK    7  A    between atoms: S_21  and  N_24
REMARK    8  A    between atoms: N_24  and  C_25
REMARK                            x       y       z     vdW  Elec       q    Type
REMARK                         _______ _______ _______ _____ _____    ______ ____
ROOT
ATOM      1  C   UNL     1       1.947   1.720  -8.900  0.00  0.00    +0.074 A 
ATOM      2  C   UNL     1       2.446   0.458  -8.602  0.00  0.00    +0.028 A 
ATOM      3  C   UNL     1       3.586   0.002  -9.233  0.00  0.00    +0.031 A 
ATOM      4  C   UNL     1       4.232   0.799 -10.160  0.00  0.00    +0.109 A 
ATOM      5  C   UNL     1       3.738   2.056 -10.459  0.00  0.00    +0.031 A 
ATOM      6  C   UNL     1       2.595   2.517  -9.836  0.00  0.00    +0.028 A 
ENDROOT
BRANCH   4   7
ATOM      7  S   UNL     1       5.687   0.213 -10.962  0.00  0.00    +0.072 S 
ATOM      8  O   UNL     1       6.471   1.358 -11.269  0.00  0.00    -0.150 OA
ATOM      9  O   UNL     1       6.183  -0.859 -10.172  0.00  0.00    -0.150 OA
BRANCH   7  10
ATOM     10  N   UNL     1       5.219  -0.442 -12.409  0.00  0.00    -0.216 N 
ATOM     11  H   UNL     1       5.535  -0.057 -13.241  0.00  0.00    +0.174 HD
BRANCH  10  12
ATOM     12  C   UNL     1       4.369  -1.550 -12.431  0.00  0.00    +0.048 A 
ATOM     13  C   UNL     1       4.858  -2.809 -12.109  0.00  0.00    +0.024 A 
ATOM     14  C   UNL     1       4.014  -3.903 -12.131  0.00  0.00    +0.002 A 
ATOM     15  C   UNL     1       2.684  -3.745 -12.475  0.00  0.00    +0.000 A 
ATOM     16  C   UNL     1       2.194  -2.492 -12.796  0.00  0.00    +0.002 A 
ATOM     17  C   UNL     1       3.031  -1.394 -12.770  0.00  0.00    +0.024 A 
ENDBRANCH  10  12
ENDBRANCH   7  10
ENDBRANCH   4   7
BRANCH   1  18
ATOM     18  N   UNL     1       0.793   2.185  -8.264  0.00  0.00    -0.098 NA
BRANCH  18  19
ATOM     19  S   UNL     1       0.023   1.234  -7.149  0.00  0.00    +0.092 S 
ATOM     20  O   UNL     1       0.909   1.102  -6.046  0.00  0.00    -0.148 OA
ATOM     21  O   UNL     1      -0.487   0.111  -7.855  0.00  0.00    -0.148 OA
BRANCH  19  25
ATOM     22  C   UNL     1      -3.562   3.559  -5.654  0.00  0.00    +0.088 A 
ATOM     23  C   UNL     1      -3.686   2.728  -6.752  0.00  0.00    +0.029 A 
ATOM     24  C   UNL     1      -2.591   2.019  -7.209  0.00  0.00    +0.031 A 
ATOM     25  C   UNL     1      -1.373   2.139  -6.567  0.00  0.00    +0.110 A 
ATOM     26  C   UNL     1      -1.249   2.970  -5.470  0.00  0.00    +0.031 A 
ATOM     27  C   UNL     1      -2.343   3.683  -5.016  0.00  0.00    +0.029 A 
BRANCH  22  29
ATOM     28  C   UNL     1      -4.908   6.033  -5.980  0.00  0.00    +0.200 C 
ATOM     29  S   UNL     1      -4.958   4.463  -5.072  0.00  0.00    -0.006 S 
ATOM     30  O   UNL     1      -4.696   4.687  -3.693  0.00  0.00    -0.170 OA
ATOM     31  O   UNL     1      -6.083   3.697  -5.481  0.00  0.00    -0.170 OA
ENDBRANCH  22  29
ENDBRANCH  19  25
ENDBRANCH  18  19
ENDBRANCH   1  18
TORSDOF 7
