REMARK  Name = ZINC06660800
REMARK  5 active torsions:
REMARK  status: ('A' for Active; 'I' for Inactive)
REMARK    1  A    between atoms: C_4  and  O_21
REMARK    2  A    between atoms: C_5  and  C_7
REMARK    3  A    between atoms: N_8  and  N_9
REMARK    4  A    between atoms: N_9  and  S_10
REMARK    5  A    between atoms: S_10  and  C_13
REMARK                            x       y       z     vdW  Elec       q    Type
REMARK                         _______ _______ _______ _____ _____    ______ ____
ROOT
ATOM      1  N   UNL     1       0.480   4.559  -1.374  0.00  0.00    -0.137 N 
ATOM      2  H   UNL     1       0.939   5.252  -1.874  0.00  0.00    +0.197 HD
ENDROOT
BRANCH   1   3
ATOM      3  S   UNL     1       1.117   4.008   0.052  0.00  0.00    +0.088 S 
ATOM      4  O   UNL     1       0.077   4.086   1.018  0.00  0.00    -0.149 OA
ATOM      5  O   UNL     1       2.365   4.666   0.221  0.00  0.00    -0.149 OA
BRANCH   3   6
ATOM      6  C   UNL     1       1.476   2.296  -0.165  0.00  0.00    +0.130 A 
ATOM      7  C   UNL     1       2.786   1.875  -0.291  0.00  0.00    +0.050 A 
ATOM      8  C   UNL     1       3.067   0.532  -0.462  0.00  0.00    +0.043 A 
ATOM      9  C   UNL     1       2.037  -0.391  -0.506  0.00  0.00    +0.021 A 
ATOM     10  C   UNL     1       0.727   0.030  -0.380  0.00  0.00    +0.023 A 
ATOM     11  C   UNL     1       0.445   1.374  -0.209  0.00  0.00    +0.068 A 
ATOM     12 CL   UNL     1      -1.201   1.903  -0.058  0.00  0.00    -0.082 Cl
ATOM     13 CL   UNL     1       4.713   0.003  -0.620  0.00  0.00    -0.083 Cl
ENDBRANCH   3   6
ENDBRANCH   1   3
BRANCH   1  15
ATOM     14  C   UNL     1      -1.136   4.334  -3.048  0.00  0.00    +0.143 C 
ATOM     15  N   UNL     1      -0.721   4.024  -1.858  0.00  0.00    -0.174 NA
BRANCH  14  20
ATOM     16  C   UNL     1      -4.148   3.765  -5.212  0.00  0.00    +0.001 A 
ATOM     17  C   UNL     1      -5.013   3.154  -4.320  0.00  0.00    +0.004 A 
ATOM     18  C   UNL     1      -4.622   2.924  -3.014  0.00  0.00    +0.046 A 
ATOM     19  C   UNL     1      -3.360   3.305  -2.590  0.00  0.00    +0.125 A 
ATOM     20  C   UNL     1      -2.481   3.924  -3.489  0.00  0.00    +0.036 A 
ATOM     21  C   UNL     1      -2.890   4.155  -4.804  0.00  0.00    +0.013 A 
BRANCH  19  22
ATOM     22  O   UNL     1      -2.975   3.080  -1.306  0.00  0.00    -0.506 OA
ATOM     23  H   UNL     1      -3.249   3.770  -0.687  0.00  0.00    +0.292 HD
ENDBRANCH  19  22
ENDBRANCH  14  20
ENDBRANCH   1  15
TORSDOF 5
