REMARK  Name = ZINC12293493
REMARK  7 active torsions:
REMARK  status: ('A' for Active; 'I' for Inactive)
REMARK    1  A    between atoms: C_1  and  C_2
REMARK    2  A    between atoms: C_5  and  C_9
REMARK    3  A    between atoms: C_7  and  C_8
REMARK    4  A    between atoms: C_9  and  C_11
REMARK    5  A    between atoms: C_9  and  O_28
REMARK    6  A    between atoms: C_11  and  N_56
REMARK    7  A    between atoms: C_18  and  O_27
REMARK                            x       y       z     vdW  Elec       q    Type
REMARK                         _______ _______ _______ _____ _____    ______ ____
ROOT
ATOM      1  C   UNL     1       3.952   5.942   0.710  0.00  0.00    -0.075 C 
ATOM      2  C   UNL     1       2.518   5.410   0.679  0.00  0.00    +0.029 C 
ATOM      3  C   UNL     1       2.543   3.882   0.759  0.00  0.00    +0.110 C 
ATOM      4  C   UNL     1       3.378   3.326  -0.396  0.00  0.00    +0.029 C 
ATOM      5  C   UNL     1       4.787   3.921  -0.334  0.00  0.00    -0.075 C 
ATOM      6  C   UNL     1       1.111   3.344   0.662  0.00  0.00    +0.084 C 
ATOM      7  C   UNL     1       1.171   1.814   0.640  0.00  0.00    +0.152 C 
ATOM      8  C   UNL     1       2.069   1.326   1.747  0.00  0.00    +0.023 A 
ATOM      9  C   UNL     1       1.969   0.005   2.153  0.00  0.00    +0.010 A 
ATOM     10  C   UNL     1       2.779  -0.478   3.162  0.00  0.00    +0.001 A 
ATOM     11  C   UNL     1       3.696   0.359   3.772  0.00  0.00    +0.004 A 
ATOM     12  C   UNL     1       3.799   1.675   3.373  0.00  0.00    +0.046 A 
ATOM     13  C   UNL     1       2.982   2.166   2.359  0.00  0.00    +0.127 A 
ATOM     14  O   UNL     1       3.103   3.472   2.004  0.00  0.00    -0.485 OA
ATOM     15  N   UNL     1       4.692   5.392  -0.446  0.00  0.00    +0.382 N 
ATOM     16  H   UNL     1       4.187   5.628  -1.308  0.00  0.00    -0.082 HD
ENDROOT
BRANCH   7  17
ATOM     17  O   UNL     1      -0.143   1.284   0.824  0.00  0.00    -0.387 OA
ATOM     18  H   UNL     1      -0.182   0.318   0.818  0.00  0.00    +0.210 HD
ENDBRANCH   7  17
BRANCH  15  19
ATOM     19  C   UNL     1       6.046   5.982  -0.506  0.00  0.00    -0.042 C 
BRANCH  19  20
ATOM     20  C   UNL     1       5.939   7.394  -1.083  0.00  0.00    +0.128 C 
BRANCH  20  25
ATOM     21  C   UNL     1      11.170   9.848  -1.153  0.00  0.00    +0.044 C 
ATOM     22  C   UNL     1       9.806   9.208  -1.135  0.00  0.00    -0.048 A 
ATOM     23  C   UNL     1       9.410   8.395  -2.180  0.00  0.00    +0.004 A 
ATOM     24  C   UNL     1       8.160   7.804  -2.161  0.00  0.00    +0.006 A 
ATOM     25  C   UNL     1       7.303   8.034  -1.101  0.00  0.00    -0.021 A 
ATOM     26  C   UNL     1       7.699   8.847  -0.056  0.00  0.00    +0.009 A 
ATOM     27  C   UNL     1       8.951   9.434  -0.072  0.00  0.00    -0.047 A 
ATOM     28  C   UNL     1       9.383  10.320   1.067  0.00  0.00    +0.044 C 
ENDBRANCH  20  25
BRANCH  20  29
ATOM     29  O   UNL     1       5.426   7.327  -2.415  0.00  0.00    -0.389 OA
ATOM     30  H   UNL     1       5.975   6.812  -3.022  0.00  0.00    +0.210 HD
ENDBRANCH  20  29
ENDBRANCH  19  20
ENDBRANCH  15  19
TORSDOF 5
