REMARK  Name = ZINC00713137
REMARK  4 active torsions:
REMARK  status: ('A' for Active; 'I' for Inactive)
REMARK    1  A    between atoms: C_5  and  C_7
REMARK    2  A    between atoms: C_7  and  S_8
REMARK    3  A    between atoms: S_8  and  C_9
REMARK    4  A    between atoms: C_22  and  C_25
REMARK                            x       y       z     vdW  Elec       q    Type
REMARK                         _______ _______ _______ _____ _____    ______ ____
ROOT
ATOM      1  C   UNL     1       5.995   3.418  -0.066  0.00  0.00    +0.213 A 
ATOM      2  N   UNL     1       5.845   2.428   0.810  0.00  0.00    -0.184 NA
ATOM      3  C   UNL     1       4.697   1.774   0.854  0.00  0.00    +0.248 A 
ATOM      4  C   UNL     1       3.667   2.147  -0.039  0.00  0.00    +0.156 A 
ATOM      5  N   UNL     1       3.881   3.144  -0.884  0.00  0.00    -0.141 NA
ATOM      6  N   UNL     1       5.014   3.756  -0.892  0.00  0.00    -0.122 NA
ATOM      7  C   UNL     1       2.380   1.422  -0.013  0.00  0.00    +0.028 A 
ATOM      8  C   UNL     1       1.165   2.095   0.002  0.00  0.00    +0.012 A 
ATOM      9  C   UNL     1      -0.017   1.380   0.010  0.00  0.00    +0.001 A 
ATOM     10  C   UNL     1       0.002  -0.004   0.002  0.00  0.00    +0.002 A 
ATOM     11  C   UNL     1       1.204  -0.688  -0.007  0.00  0.00    +0.024 A 
ATOM     12  C   UNL     1       2.395   0.014  -0.009  0.00  0.00    +0.039 A 
ATOM     13  N   UNL     1       3.629  -0.644   0.014  0.00  0.00    -0.304 N 
ATOM     14  C   UNL     1       4.449  -0.558   1.219  0.00  0.00    +0.312 C 
ATOM     15  O   UNL     1       4.491   0.767   1.736  0.00  0.00    -0.447 OA
ATOM     16  H   UNL     1       3.934  -1.148  -0.756  0.00  0.00    +0.150 HD
ENDROOT
BRANCH  14  17
ATOM     17  C   UNL     1       3.878  -1.476   2.269  0.00  0.00    +0.100 A 
ATOM     18  C   UNL     1       4.069  -1.187   3.607  0.00  0.00    +0.029 A 
ATOM     19  C   UNL     1       3.539  -2.038   4.564  0.00  0.00    +0.003 A 
ATOM     20  C   UNL     1       2.833  -3.154   4.138  0.00  0.00    +0.020 A 
ATOM     21  C   UNL     1       2.683  -3.378   2.783  0.00  0.00    +0.111 A 
ATOM     22  N   UNL     1       3.197  -2.544   1.900  0.00  0.00    -0.254 NA
ENDBRANCH  14  17
BRANCH   1  23
ATOM     23  S   UNL     1       7.523   4.293  -0.130  0.00  0.00    -0.080 S 
BRANCH  23  24
ATOM     24  C   UNL     1       7.155   5.472  -1.453  0.00  0.00    +0.114 C 
BRANCH  24  29
ATOM     25  C   UNL     1       9.592   8.345  -1.206  0.00  0.00    +0.000 A 
ATOM     26  C   UNL     1      10.556   7.969  -2.125  0.00  0.00    +0.001 A 
ATOM     27  C   UNL     1      10.419   6.787  -2.826  0.00  0.00    +0.020 A 
ATOM     28  C   UNL     1       9.318   5.977  -2.609  0.00  0.00    +0.045 A 
ATOM     29  C   UNL     1       8.355   6.353  -1.690  0.00  0.00    -0.019 A 
ATOM     30  C   UNL     1       8.490   7.539  -0.993  0.00  0.00    +0.006 A 
ATOM     31 CL   UNL     1       9.145   4.491  -3.490  0.00  0.00    -0.083 Cl
ENDBRANCH  24  29
ENDBRANCH  23  24
ENDBRANCH   1  23
TORSDOF 4
