REMARK  Name = ZINC16845784
REMARK  4 active torsions:
REMARK  status: ('A' for Active; 'I' for Inactive)
REMARK    1  A    between atoms: C_1  and  C_2
REMARK    2  A    between atoms: C_12  and  S_19
REMARK    3  A    between atoms: S_19  and  C_20
REMARK    4  A    between atoms: C_20  and  C_21
REMARK                            x       y       z     vdW  Elec       q    Type
REMARK                         _______ _______ _______ _____ _____    ______ ____
ROOT
ATOM      1  C   UNL     1       3.191  -3.960  -0.347  0.00  0.00    +0.008 C 
ATOM      2  C   UNL     1       2.926  -2.461  -0.502  0.00  0.00    -0.009 C 
ATOM      3  C   UNL     1       3.945  -1.676   0.330  0.00  0.00    +0.009 C 
ATOM      4  C   UNL     1       3.838  -0.189  -0.035  0.00  0.00    +0.043 C 
ATOM      5  C   UNL     1       2.391   0.199  -0.020  0.00  0.00    -0.004 A 
ATOM      6  C   UNL     1       1.323  -0.628  -0.014  0.00  0.00    -0.024 A 
ATOM      7  C   UNL     1       0.002  -0.004   0.002  0.00  0.00    +0.056 A 
ATOM      8  C   UNL     1      -1.328  -0.651   0.011  0.00  0.00    +0.174 A 
ATOM      9  N   UNL     1      -1.735  -1.896   0.008  0.00  0.00    -0.128 NA
ATOM     10  N   UNL     1      -3.022  -1.931   0.020  0.00  0.00    -0.122 NA
ATOM     11  C   UNL     1      -3.512  -0.713   0.031  0.00  0.00    +0.199 A 
ATOM     12  N   UNL     1      -2.449   0.150   0.025  0.00  0.00    -0.241 N 
ATOM     13  C   UNL     1      -2.329   1.513   0.032  0.00  0.00    +0.202 A 
ATOM     14  N   UNL     1      -1.152   2.093   0.020  0.00  0.00    -0.208 NA
ATOM     15  C   UNL     1      -0.017   1.397   0.010  0.00  0.00    +0.116 A 
ATOM     16  S   UNL     1       1.704   1.832  -0.004  0.00  0.00    -0.073 S 
ATOM     17  N   UNL     1      -3.464   2.291   0.046  0.00  0.00    -0.328 N 
ATOM     18  C   UNL     1       1.509  -2.143  -0.025  0.00  0.00    +0.040 C 
ATOM     19  H   UNL     1      -4.338   1.871   0.052  0.00  0.00    +0.145 HD
ATOM     20  H   UNL     1      -3.389   3.258   0.051  0.00  0.00    +0.145 HD
ENDROOT
BRANCH  11  21
ATOM     21  S   UNL     1      -5.217  -0.271   0.049  0.00  0.00    -0.081 S 
BRANCH  21  22
ATOM     22  C   UNL     1      -6.084  -1.865   0.048  0.00  0.00    +0.115 C 
BRANCH  22  23
ATOM     23  C   UNL     1      -7.572  -1.628   0.063  0.00  0.00    -0.002 A 
ATOM     24  C   UNL     1      -8.266  -1.513  -1.127  0.00  0.00    +0.007 A 
ATOM     25  C   UNL     1      -9.631  -1.296  -1.113  0.00  0.00    +0.000 A 
ATOM     26  C   UNL     1     -10.304  -1.195   0.090  0.00  0.00    +0.003 A 
ATOM     27  C   UNL     1      -9.612  -1.310   1.281  0.00  0.00    +0.038 A 
ATOM     28  C   UNL     1      -8.245  -1.532   1.269  0.00  0.00    +0.127 A 
ATOM     29  F   UNL     1      -7.569  -1.650   2.432  0.00  0.00    -0.205 F 
ENDBRANCH  22  23
ENDBRANCH  21  22
ENDBRANCH  11  21
TORSDOF 3
