REMARK  Name = ZINC01029260
REMARK  6 active torsions:
REMARK  status: ('A' for Active; 'I' for Inactive)
REMARK    1  A    between atoms: C_3  and  C_15
REMARK    2  A    between atoms: C_5  and  O_7
REMARK    3  A    between atoms: O_7  and  C_8
REMARK    4  A    between atoms: C_20  and  O_29
REMARK    5  A    between atoms: C_24  and  N_28
REMARK    6  A    between atoms: C_25  and  C_26
REMARK                            x       y       z     vdW  Elec       q    Type
REMARK                         _______ _______ _______ _____ _____    ______ ____
ROOT
ATOM      1  C   UNL     1       1.216  -2.334  -0.103  0.00  0.00    +0.098 C 
ATOM      2  C   UNL     1       1.180  -0.830  -0.173  0.00  0.00    +0.008 A 
ATOM      3  C   UNL     1       2.368  -0.123  -0.236  0.00  0.00    +0.012 A 
ATOM      4  C   UNL     1       2.355   1.256  -0.300  0.00  0.00    +0.046 A 
ATOM      5  C   UNL     1       1.147   1.938  -0.302  0.00  0.00    +0.120 A 
ATOM      6  C   UNL     1      -0.045   1.234  -0.240  0.00  0.00    +0.092 A 
ATOM      7  C   UNL     1      -0.029  -0.153  -0.175  0.00  0.00    +0.138 A 
ATOM      8  O   UNL     1      -1.204  -0.828  -0.115  0.00  0.00    -0.441 OA
ATOM      9  C   UNL     1      -1.245  -2.132  -0.437  0.00  0.00    +0.199 C 
ATOM     10  C   UNL     1      -0.131  -2.902  -0.450  0.00  0.00    +0.098 C 
ENDROOT
BRANCH   1  13
ATOM     11  C   UNL     1       1.135  -2.794   3.645  0.00  0.00    +0.004 A 
ATOM     12  C   UNL     1       0.792  -2.405   2.363  0.00  0.00    +0.005 A 
ATOM     13  C   UNL     1       1.593  -2.760   1.293  0.00  0.00    -0.031 A 
ATOM     14  C   UNL     1       2.735  -3.509   1.502  0.00  0.00    +0.050 A 
ATOM     15  C   UNL     1       3.083  -3.897   2.787  0.00  0.00    +0.129 A 
ATOM     16  C   UNL     1       2.278  -3.539   3.860  0.00  0.00    +0.046 A 
BRANCH  15  17
ATOM     17  O   UNL     1       4.208  -4.629   2.996  0.00  0.00    -0.456 OA
BRANCH  17  18
ATOM     18  C   UNL     1       5.409  -4.033   2.769  0.00  0.00    +0.129 A 
ATOM     19  C   UNL     1       5.466  -2.683   2.456  0.00  0.00    +0.048 A 
ATOM     20  C   UNL     1       6.687  -2.078   2.230  0.00  0.00    +0.023 A 
ATOM     21  C   UNL     1       7.852  -2.820   2.307  0.00  0.00    +0.041 A 
ATOM     22  C   UNL     1       7.797  -4.168   2.614  0.00  0.00    +0.023 A 
ATOM     23  C   UNL     1       6.578  -4.776   2.845  0.00  0.00    +0.048 A 
ATOM     24 CL   UNL     1       9.385  -2.059   2.017  0.00  0.00    -0.084 Cl
ENDBRANCH  17  18
ENDBRANCH  15  17
ENDBRANCH   1  13
BRANCH   9  25
ATOM     25  N   UNL     1      -2.451  -2.700  -0.761  0.00  0.00    -0.328 N 
ATOM     26  H   UNL     1      -3.258  -2.162  -0.756  0.00  0.00    +0.145 HD
ATOM     27  H   UNL     1      -2.498  -3.640  -0.996  0.00  0.00    +0.145 HD
ENDBRANCH   9  25
BRANCH  10  28
ATOM     28  C   UNL     1      -0.240  -4.286  -0.801  0.00  0.00    +0.101 C 
ATOM     29  N   UNL     1      -0.325  -5.384  -1.080  0.00  0.00    -0.191 NA
ENDBRANCH  10  28
BRANCH   5  30
ATOM     30  O   UNL     1       1.132   3.296  -0.366  0.00  0.00    -0.507 OA
ATOM     31  H   UNL     1       1.149   3.731   0.497  0.00  0.00    +0.292 HD
ENDBRANCH   5  30
TORSDOF 6
