REMARK  Name = ZINC38651491
REMARK  7 active torsions:
REMARK  status: ('A' for Active; 'I' for Inactive)
REMARK    1  A    between atoms: C_4  and  N_31
REMARK    2  A    between atoms: C_5  and  C_7
REMARK    3  A    between atoms: C_7  and  O_9
REMARK    4  A    between atoms: O_9  and  C_10
REMARK    5  A    between atoms: C_17  and  N_30
REMARK    6  A    between atoms: C_18  and  C_28
REMARK    7  A    between atoms: C_19  and  C_21
REMARK                            x       y       z     vdW  Elec       q    Type
REMARK                         _______ _______ _______ _____ _____    ______ ____
ROOT
ATOM      1  C   UNL     1       0.090  -4.459  -0.464  0.00  0.00    +0.135 A 
ATOM      2  C   UNL     1       1.370  -4.993  -0.398  0.00  0.00    +0.047 A 
ATOM      3  C   UNL     1       1.555  -6.356  -0.516  0.00  0.00    +0.012 A 
ATOM      4  C   UNL     1       0.469  -7.194  -0.699  0.00  0.00    +0.008 A 
ATOM      5  C   UNL     1      -0.811  -6.666  -0.765  0.00  0.00    +0.138 A 
ATOM      6  C   UNL     1      -0.999  -5.295  -0.641  0.00  0.00    +0.093 A 
ATOM      7  O   UNL     1      -1.887  -7.471  -0.944  0.00  0.00    -0.441 OA
ATOM      8  C   UNL     1      -1.723  -8.710  -1.436  0.00  0.00    +0.199 C 
ATOM      9  C   UNL     1      -0.524  -9.338  -1.411  0.00  0.00    +0.098 C 
ATOM     10  C   UNL     1       0.692  -8.678  -0.825  0.00  0.00    +0.098 C 
ENDROOT
BRANCH  10  11
ATOM     11  C   UNL     1       0.967  -9.259   0.539  0.00  0.00    -0.034 A 
ATOM     12  C   UNL     1       0.020  -9.149   1.540  0.00  0.00    +0.004 A 
ATOM     13  C   UNL     1       0.272  -9.682   2.791  0.00  0.00    +0.001 A 
ATOM     14  C   UNL     1       1.470 -10.324   3.041  0.00  0.00    +0.015 A 
ATOM     15  C   UNL     1       2.418 -10.433   2.039  0.00  0.00    +0.018 A 
ATOM     16  C   UNL     1       2.163  -9.905   0.786  0.00  0.00    +0.020 A 
ATOM     17 BR   UNL     1       4.058 -11.311   2.380  0.00  0.00    -0.050 Br
ENDBRANCH  10  11
BRANCH   8  18
ATOM     18  N   UNL     1      -2.803  -9.358  -1.982  0.00  0.00    -0.328 N 
ATOM     19  H   UNL     1      -3.669  -8.921  -2.007  0.00  0.00    +0.145 HD
ATOM     20  H   UNL     1      -2.701 -10.253  -2.342  0.00  0.00    +0.145 HD
ENDBRANCH   8  18
BRANCH   9  21
ATOM     21  C   UNL     1      -0.413 -10.659  -1.953  0.00  0.00    +0.101 C 
ATOM     22  N   UNL     1      -0.325 -11.707  -2.383  0.00  0.00    -0.191 NA
ENDBRANCH   9  21
BRANCH   1  23
ATOM     23  O   UNL     1      -0.093  -3.117  -0.348  0.00  0.00    -0.422 OA
BRANCH  23  24
ATOM     24  C   UNL     1       0.307  -2.333  -1.368  0.00  0.00    +0.347 C 
ATOM     25  O   UNL     1       0.748  -2.836  -2.383  0.00  0.00    -0.244 OA
BRANCH  24  30
ATOM     26  C   UNL     1       0.728   1.170  -0.086  0.00  0.00    +0.001 A 
ATOM     27  C   UNL     1       0.027   1.891  -1.037  0.00  0.00    +0.002 A 
ATOM     28  C   UNL     1      -0.584   1.241  -2.095  0.00  0.00    +0.033 A 
ATOM     29  C   UNL     1      -0.497  -0.131  -2.209  0.00  0.00    +0.140 A 
ATOM     30  C   UNL     1       0.210  -0.864  -1.253  0.00  0.00    +0.089 A 
ATOM     31  C   UNL     1       0.824  -0.202  -0.188  0.00  0.00    +0.017 A 
BRANCH  29  32
ATOM     32  N   UNL     1      -1.151  -0.825  -3.341  0.00  0.00    +0.057 N 
ATOM     33  O   UNL     1      -1.801  -0.194  -4.142  0.00  0.00    -0.126 OA
ATOM     34  O   UNL     1      -1.036  -2.022  -3.464  0.00  0.00    -0.126 OA
ENDBRANCH  29  32
ENDBRANCH  24  30
ENDBRANCH  23  24
ENDBRANCH   1  23
TORSDOF 7
