REMARK  Name = ZINC19496690
REMARK  4 active torsions:
REMARK  status: ('A' for Active; 'I' for Inactive)
REMARK    1  A    between atoms: C_1  and  C_2
REMARK    2  A    between atoms: C_10  and  N_24
REMARK    3  A    between atoms: C_11  and  C_22
REMARK    4  A    between atoms: C_12  and  C_13
REMARK                            x       y       z     vdW  Elec       q    Type
REMARK                         _______ _______ _______ _____ _____    ______ ____
ROOT
ATOM      1  C   UNL     1       1.381  -6.248  -2.500  0.00  0.00    +0.014 C 
ATOM      2  C   UNL     1       2.308  -5.057  -2.248  0.00  0.00    +0.035 C 
ATOM      3  C   UNL     1       2.398  -4.213  -3.517  0.00  0.00    +0.010 C 
ATOM      4  C   UNL     1       3.155  -2.921  -3.187  0.00  0.00    +0.005 C 
ATOM      5  C   UNL     1       2.268  -2.061  -2.289  0.00  0.00    +0.037 C 
ATOM      6  C   UNL     1       1.755  -2.865  -1.124  0.00  0.00    -0.017 A 
ATOM      7  C   UNL     1       1.765  -4.239  -1.103  0.00  0.00    +0.050 A 
ATOM      8  N   UNL     1       1.290  -4.902  -0.054  0.00  0.00    -0.235 NA
ATOM      9  C   UNL     1       0.797  -4.300   1.012  0.00  0.00    +0.135 A 
ATOM     10  C   UNL     1       0.760  -2.897   1.079  0.00  0.00    +0.099 A 
ATOM     11  C   UNL     1       1.244  -2.164  -0.022  0.00  0.00    +0.008 A 
ENDROOT
BRANCH  11  12
ATOM     12  C   UNL     1       1.220  -0.683  -0.013  0.00  0.00    -0.013 A 
ATOM     13  C   UNL     1       2.416   0.035  -0.021  0.00  0.00    +0.012 A 
ATOM     14  C   UNL     1       2.393   1.414  -0.013  0.00  0.00    +0.050 A 
ATOM     15  C   UNL     1       1.182   2.091   0.002  0.00  0.00    +0.166 A 
ATOM     16  C   UNL     1      -0.017   1.378   0.010  0.00  0.00    +0.167 A 
ATOM     17  C   UNL     1       0.002  -0.004   0.002  0.00  0.00    +0.058 A 
ATOM     18  O   UNL     1      -1.052   2.268   0.030  0.00  0.00    -0.453 OA
ATOM     19  C   UNL     1      -0.477   3.521   0.439  0.00  0.00    +0.466 C 
ATOM     20  O   UNL     1       0.895   3.425   0.012  0.00  0.00    -0.453 OA
ENDBRANCH  11  12
BRANCH   9  21
ATOM     21  N   UNL     1       0.320  -5.053   2.070  0.00  0.00    -0.342 N 
ATOM     22  H   UNL     1      -0.092  -4.553   2.959  0.00  0.00    +0.144 HD
ATOM     23  H   UNL     1       0.351  -6.152   2.022  0.00  0.00    +0.144 HD
ENDBRANCH   9  21
BRANCH  10  24
ATOM     24  C   UNL     1       0.238  -2.230   2.234  0.00  0.00    +0.103 C 
ATOM     25  N   UNL     1      -0.175  -1.701   3.150  0.00  0.00    -0.191 NA
ENDBRANCH  10  24
TORSDOF 3
