REMARK  Name = ZINC63314744
REMARK  6 active torsions:
REMARK  status: ('A' for Active; 'I' for Inactive)
REMARK    1  A    between atoms: C_4  and  C_7
REMARK    2  A    between atoms: N_9  and  C_10
REMARK    3  A    between atoms: C_10  and  C_28
REMARK    4  A    between atoms: N_13  and  C_17
REMARK    5  A    between atoms: C_17  and  C_18
REMARK    6  A    between atoms: C_18  and  C_19
REMARK                            x       y       z     vdW  Elec       q    Type
REMARK                         _______ _______ _______ _____ _____    ______ ____
ROOT
ATOM      1  C   UNL     1       4.995  -2.737  -0.172  0.00  0.00    +0.304 C 
ATOM      2  C   UNL     1       5.831  -2.554   1.080  0.00  0.00    +0.279 C 
ATOM      3  O   UNL     1       6.252  -1.515   1.541  0.00  0.00    -0.270 OA
ATOM      4  N   UNL     1       6.003  -3.800   1.571  0.00  0.00    -0.219 N 
ATOM      5  C   UNL     1       5.377  -4.724   0.775  0.00  0.00    +0.341 C 
ATOM      6  O   UNL     1       5.384  -6.052   1.025  0.00  0.00    -0.247 OA
ATOM      7  N   UNL     1       4.779  -4.191  -0.242  0.00  0.00    -0.188 NA
ENDROOT
BRANCH   1  10
ATOM      8  C   UNL     1       3.700  -0.706   0.199  0.00  0.00    +0.246 C 
ATOM      9  O   UNL     1       4.741  -0.113   0.405  0.00  0.00    -0.270 OA
ATOM     10  N   UNL     1       3.717  -2.032  -0.044  0.00  0.00    -0.273 N 
ATOM     11  H   UNL     1       2.884  -2.519  -0.135  0.00  0.00    +0.152 HD
BRANCH   8  15
ATOM     12  C   UNL     1       0.010   1.397   0.243  0.00  0.00    +0.000 A 
ATOM     13  C   UNL     1       1.193   2.076   0.479  0.00  0.00    +0.001 A 
ATOM     14  C   UNL     1       2.395   1.399   0.466  0.00  0.00    +0.013 A 
ATOM     15  C   UNL     1       2.416   0.026   0.214  0.00  0.00    +0.037 A 
ATOM     16  C   UNL     1       1.219  -0.653  -0.022  0.00  0.00    +0.013 A 
ATOM     17  C   UNL     1       0.024   0.036  -0.007  0.00  0.00    +0.001 A 
ENDBRANCH   8  15
ENDBRANCH   1  10
BRANCH   1  18
ATOM     18  C   UNL     1       5.757  -2.247  -1.405  0.00  0.00    +0.440 C 
ATOM     19  F   UNL     1       6.117  -0.907  -1.229  0.00  0.00    -0.166 F 
ATOM     20  F   UNL     1       6.909  -3.021  -1.580  0.00  0.00    -0.166 F 
ATOM     21  F   UNL     1       4.940  -2.366  -2.535  0.00  0.00    -0.166 F 
ENDBRANCH   1  18
BRANCH   4  22
ATOM     22  C   UNL     1       6.756  -4.120   2.786  0.00  0.00    +0.123 C 
BRANCH  22  23
ATOM     23  C   UNL     1       5.815  -4.089   3.992  0.00  0.00    +0.052 C 
BRANCH  23  24
ATOM     24  C   UNL     1       6.590  -4.419   5.242  0.00  0.00    -0.040 C 
ATOM     25  C   UNL     1       7.140  -3.542   6.113  0.00  0.00    -0.001 A 
ATOM     26  C   UNL     1       7.182  -2.075   6.154  0.00  0.00    +0.010 A 
ATOM     27  C   UNL     1       7.824  -1.466   7.176  0.00  0.00    +0.001 A 
ATOM     28  C   UNL     1       8.450  -2.198   8.194  0.00  0.00    +0.002 A 
ATOM     29  C   UNL     1       8.455  -3.547   8.225  0.00  0.00    +0.026 A 
ATOM     30  C   UNL     1       7.809  -4.292   7.200  0.00  0.00    +0.043 A 
ATOM     31  N   UNL     1       7.677  -5.582   7.009  0.00  0.00    -0.380 N 
ATOM     32  C   UNL     1       6.904  -5.797   5.781  0.00  0.00    +0.144 C 
ATOM     33  H   UNL     1       8.028  -6.278   7.586  0.00  0.00    +0.160 HD
ENDBRANCH  23  24
ENDBRANCH  22  23
ENDBRANCH   4  22
TORSDOF 6
