REMARK  Name = ZINC20207478
REMARK  5 active torsions:
REMARK  status: ('A' for Active; 'I' for Inactive)
REMARK    1  A    between atoms: C_4  and  C_7
REMARK    2  A    between atoms: C_7  and  S_8
REMARK    3  A    between atoms: S_8  and  C_11
REMARK    4  A    between atoms: C_19  and  C_20
REMARK    5  A    between atoms: C_23  and  C_25
REMARK                            x       y       z     vdW  Elec       q    Type
REMARK                         _______ _______ _______ _____ _____    ______ ____
ROOT
ATOM      1  C   UNL     1       5.794  -1.742   0.098  0.00  0.00    +0.257 C 
ATOM      2  N   UNL     1       6.891  -1.139  -0.242  0.00  0.00    -0.174 NA
ATOM      3  S   UNL     1       8.059  -2.340  -0.174  0.00  0.00    +0.049 S 
ATOM      4  C   UNL     1       7.095  -3.633   0.247  0.00  0.00    +0.183 C 
ATOM      5  N   UNL     1       7.399  -4.900   0.410  0.00  0.00    -0.152 NA
ATOM      6  C   UNL     1       6.422  -5.784   0.692  0.00  0.00    +0.273 C 
ATOM      7  O   UNL     1       6.690  -6.941   0.979  0.00  0.00    -0.268 OA
ATOM      8  C   UNL     1       5.017  -5.320   0.645  0.00  0.00    +0.082 C 
ATOM      9  C   UNL     1       3.966  -6.192   0.402  0.00  0.00    +0.062 C 
ATOM     10  C   UNL     1       4.794  -3.866   0.873  0.00  0.00    +0.138 C 
ATOM     11  N   UNL     1       3.727  -3.385   1.454  0.00  0.00    -0.284 NA
ATOM     12  N   UNL     1       5.850  -3.059   0.405  0.00  0.00    -0.201 N 
ATOM     13  H   UNL     1       3.030  -3.985   1.762  0.00  0.00    +0.188 HD
ENDROOT
BRANCH   9  14
ATOM     14  C   UNL     1       4.226  -7.495  -0.054  0.00  0.00    +0.129 A 
ATOM     15  C   UNL     1       3.293  -8.513  -0.184  0.00  0.00    +0.050 A 
ATOM     16  C   UNL     1       3.977  -9.628  -0.667  0.00  0.00    +0.050 A 
ATOM     17  C   UNL     1       5.297  -9.258  -0.817  0.00  0.00    +0.136 A 
ATOM     18  O   UNL     1       5.426  -7.972  -0.448  0.00  0.00    -0.455 OA
BRANCH  17  19
ATOM     19  C   UNL     1       6.384 -10.128  -1.305  0.00  0.00    +0.019 A 
ATOM     20  C   UNL     1       6.116 -11.450  -1.668  0.00  0.00    +0.011 A 
ATOM     21  C   UNL     1       7.137 -12.258  -2.123  0.00  0.00    +0.002 A 
ATOM     22  C   UNL     1       8.425 -11.762  -2.221  0.00  0.00    +0.020 A 
ATOM     23  C   UNL     1       8.699 -10.453  -1.862  0.00  0.00    +0.042 A 
ATOM     24  C   UNL     1       7.686  -9.631  -1.411  0.00  0.00    +0.031 A 
ATOM     25 CL   UNL     1      10.319  -9.841  -1.987  0.00  0.00    -0.084 Cl
ENDBRANCH  17  19
ENDBRANCH   9  14
BRANCH   1  26
ATOM     26  S   UNL     1       4.268  -0.865   0.166  0.00  0.00    +0.033 S 
ATOM     27  O   UNL     1       3.269  -1.863   0.006  0.00  0.00    -0.166 OA
ATOM     28  O   UNL     1       4.407   0.180  -0.787  0.00  0.00    -0.166 OA
BRANCH  26  29
ATOM     29  C   UNL     1       4.200  -0.176   1.842  0.00  0.00    +0.210 C 
BRANCH  29  33
ATOM     30  C   UNL     1       0.577   2.034   2.331  0.00  0.00    +0.000 A 
ATOM     31  C   UNL     1       0.611   0.686   2.636  0.00  0.00    +0.000 A 
ATOM     32  C   UNL     1       1.783  -0.029   2.477  0.00  0.00    +0.005 A 
ATOM     33  C   UNL     1       2.922   0.603   2.014  0.00  0.00    -0.026 A 
ATOM     34  C   UNL     1       2.887   1.951   1.709  0.00  0.00    +0.005 A 
ATOM     35  C   UNL     1       1.715   2.667   1.868  0.00  0.00    +0.000 A 
ENDBRANCH  29  33
ENDBRANCH  26  29
ENDBRANCH   1  26
TORSDOF 5
