REMARK  Name = ZINC13064735
REMARK  12 active torsions:
REMARK  status: ('A' for Active; 'I' for Inactive)
REMARK    1  A    between atoms: C_1  and  C_2
REMARK    2  A    between atoms: C_2  and  C_3
REMARK    3  A    between atoms: C_3  and  C_5
REMARK    4  A    between atoms: C_3  and  N_75
REMARK    5  A    between atoms: N_9  and  C_10
REMARK    6  A    between atoms: C_10  and  C_11
REMARK    7  A    between atoms: C_11  and  C_12
REMARK    8  A    between atoms: C_18  and  C_19
REMARK    9  A    between atoms: C_18  and  N_75
REMARK   10  A    between atoms: C_23  and  C_32
REMARK   11  A    between atoms: C_24  and  C_31
REMARK   12  A    between atoms: C_33  and  N_75
REMARK                            x       y       z     vdW  Elec       q    Type
REMARK                         _______ _______ _______ _____ _____    ______ ____
ROOT
ATOM      1  N   UNL     1      -5.386   4.382  -1.286  0.00  0.00    +0.391 N 
ATOM      2  H   UNL     1      -5.184   3.574  -1.886  0.00  0.00    -0.080 HD
ENDROOT
BRANCH   1   3
ATOM      3  C   UNL     1      -4.608   5.543  -1.766  0.00  0.00    -0.067 C 
ATOM      4  C   UNL     1      -5.017   6.811  -1.014  0.00  0.00    -0.015 C 
ATOM      5  C   UNL     1      -4.200   7.997  -1.532  0.00  0.00    -0.002 C 
ATOM      6  C   UNL     1      -4.465   8.184  -3.027  0.00  0.00    -0.000 C 
ATOM      7  C   UNL     1      -4.056   6.916  -3.779  0.00  0.00    -0.002 C 
ATOM      8  C   UNL     1      -4.872   5.730  -3.262  0.00  0.00    -0.015 C 
ENDBRANCH   1   3
BRANCH   1   9
ATOM      9  C   UNL     1      -6.832   4.680  -1.354  0.00  0.00    +0.003 C 
BRANCH   9  10
ATOM     10  C   UNL     1      -7.246   5.550  -0.195  0.00  0.00    +0.138 A 
ATOM     11  N   UNL     1      -6.976   5.348   1.071  0.00  0.00    -0.115 NA
ATOM     12  N   UNL     1      -7.499   6.311   1.749  0.00  0.00    -0.023 NA
ATOM     13  N   UNL     1      -8.102   7.118   0.948  0.00  0.00    -0.044 NA
ATOM     14  N   UNL     1      -7.969   6.683  -0.260  0.00  0.00    -0.231 N 
BRANCH  14  15
ATOM     15  C   UNL     1      -8.504   7.307  -1.473  0.00  0.00    +0.152 C 
BRANCH  15  16
ATOM     16  C   UNL     1      -9.903   6.757  -1.754  0.00  0.00    +0.058 C 
BRANCH  16  17
ATOM     17  C   UNL     1     -10.454   7.398  -3.002  0.00  0.00    -0.046 A 
ATOM     18  C   UNL     1     -11.188   8.566  -2.913  0.00  0.00    +0.004 A 
ATOM     19  C   UNL     1     -11.688   9.157  -4.058  0.00  0.00    +0.000 A 
ATOM     20  C   UNL     1     -11.463   8.574  -5.291  0.00  0.00    +0.000 A 
ATOM     21  C   UNL     1     -10.734   7.403  -5.380  0.00  0.00    +0.000 A 
ATOM     22  C   UNL     1     -10.229   6.815  -4.235  0.00  0.00    +0.004 A 
ENDBRANCH  16  17
ENDBRANCH  15  16
ENDBRANCH  14  15
ENDBRANCH   9  10
BRANCH   9  24
ATOM     23  C   UNL     1      -7.289   2.535  -2.551  0.00  0.00    +0.002 C 
ATOM     24  C   UNL     1      -7.607   3.362  -1.304  0.00  0.00    -0.011 C 
ENDBRANCH   9  24
ENDBRANCH   1   9
BRANCH   1  25
ATOM     25  C   UNL     1      -5.002   4.056   0.103  0.00  0.00    -0.036 C 
BRANCH  25  26
ATOM     26  C   UNL     1      -3.644   3.402   0.089  0.00  0.00    +0.001 A 
ATOM     27  C   UNL     1      -2.558   4.090   0.519  0.00  0.00    +0.017 A 
ATOM     28  C   UNL     1      -1.253   3.426   0.493  0.00  0.00    -0.001 A 
ATOM     29  C   UNL     1      -0.097   4.085   0.922  0.00  0.00    +0.013 A 
ATOM     30  C   UNL     1       1.105   3.438   0.885  0.00  0.00    -0.047 A 
ATOM     31  C   UNL     1       1.189   2.130   0.425  0.00  0.00    -0.046 A 
ATOM     32  C   UNL     1       0.063   1.462  -0.003  0.00  0.00    +0.030 A 
ATOM     33  C   UNL     1      -1.171   2.103   0.019  0.00  0.00    +0.049 A 
ATOM     34  N   UNL     1      -2.315   1.456  -0.397  0.00  0.00    -0.322 N 
ATOM     35  H   UNL     1      -2.257   0.542  -0.719  0.00  0.00    +0.169 HD
ATOM     36  C   UNL     1      -3.508   2.074  -0.370  0.00  0.00    +0.251 A 
ATOM     37  O   UNL     1      -4.498   1.473  -0.752  0.00  0.00    -0.268 OA
ATOM     38  C   UNL     1       2.526   1.436   0.394  0.00  0.00    +0.044 C 
ATOM     39  C   UNL     1       2.351   4.148   1.348  0.00  0.00    +0.044 C 
ENDBRANCH  25  26
ENDBRANCH   1  25
TORSDOF 9
