REMARK  Name = ZINC15673715
REMARK  13 active torsions:
REMARK  status: ('A' for Active; 'I' for Inactive)
REMARK    1  A    between atoms: C_1  and  C_2
REMARK    2  A    between atoms: C_2  and  C_3
REMARK    3  A    between atoms: C_2  and  C_4
REMARK    4  A    between atoms: C_2  and  C_5
REMARK    5  A    between atoms: C_8  and  C_11
REMARK    6  A    between atoms: C_13  and  C_16
REMARK    7  A    between atoms: C_16  and  C_17
REMARK    8  A    between atoms: C_22  and  C_24
REMARK    9  A    between atoms: C_24  and  C_25
REMARK   10  A    between atoms: N_27  and  C_28
REMARK   11  A    between atoms: C_28  and  C_29
REMARK   12  A    between atoms: C_28  and  C_30
REMARK   13  A    between atoms: C_28  and  C_31
REMARK                            x       y       z     vdW  Elec       q    Type
REMARK                         _______ _______ _______ _____ _____    ______ ____
ROOT
ATOM      1  C   UNL     1      -2.184   1.095   1.239  0.00  0.00    -0.019 C 
ATOM      2  C   UNL     1      -2.862   1.602  -0.035  0.00  0.00    -0.079 C 
ATOM      3  C   UNL     1      -0.754   1.594  -1.231  0.00  0.00    -0.082 C 
ATOM      4  C   UNL     1      -0.013   1.086   0.008  0.00  0.00    -0.015 C 
ATOM      5  C   UNL     1      -0.731   1.580   1.267  0.00  0.00    -0.002 C 
ATOM      6  N   UNL     1      -2.143   1.094  -1.219  0.00  0.00    +0.379 N 
ATOM      7  H   UNL     1      -2.623   1.411  -2.069  0.00  0.00    -0.086 HD
ATOM      8  H   UNL     1      -2.132   0.068  -1.194  0.00  0.00    -0.086 HD
ENDROOT
BRANCH   1   9
ATOM      9  C   UNL     1      -2.926   1.635   2.463  0.00  0.00    +0.061 C 
BRANCH   9  12
ATOM     10  C   UNL     1      -6.166   0.057   3.103  0.00  0.00    +0.167 A 
ATOM     11  C   UNL     1      -4.913   0.356   3.565  0.00  0.00    +0.076 A 
ATOM     12  C   UNL     1      -4.319   1.061   2.498  0.00  0.00    +0.084 A 
ATOM     13  N   UNL     1      -5.212   1.126   1.552  0.00  0.00    -0.083 NA
ATOM     14  O   UNL     1      -6.241   0.572   1.863  0.00  0.00    -0.354 OA
BRANCH  10  18
ATOM     15  C   UNL     1      -9.208  -2.067   5.172  0.00  0.00    -0.042 A 
ATOM     16  C   UNL     1      -9.444  -1.599   3.891  0.00  0.00    +0.005 A 
ATOM     17  C   UNL     1      -8.460  -0.909   3.214  0.00  0.00    +0.012 A 
ATOM     18  C   UNL     1      -7.225  -0.682   3.823  0.00  0.00    +0.020 A 
ATOM     19  C   UNL     1      -6.992  -1.161   5.114  0.00  0.00    +0.012 A 
ATOM     20  C   UNL     1      -7.986  -1.846   5.782  0.00  0.00    +0.005 A 
BRANCH  15  22
ATOM     21  C   UNL     1     -10.660  -4.076   5.114  0.00  0.00    +0.015 C 
ATOM     22  C   UNL     1     -10.287  -2.821   5.905  0.00  0.00    -0.013 C 
ATOM     23  C   UNL     1      -9.777  -3.224   7.290  0.00  0.00    +0.015 C 
ATOM     24  C   UNL     1     -11.521  -1.928   6.056  0.00  0.00    +0.015 C 
ENDBRANCH  15  22
ENDBRANCH  10  18
ENDBRANCH   9  12
ENDBRANCH   1   9
BRANCH   5  25
ATOM     25  C   UNL     1      -0.704   3.110   1.303  0.00  0.00    +0.099 C 
BRANCH  25  26
ATOM     26  C   UNL     1       0.719   3.584   1.445  0.00  0.00    +0.214 C 
ATOM     27  O   UNL     1       1.623   2.778   1.510  0.00  0.00    -0.276 OA
ATOM     28  N   UNL     1       0.988   4.904   1.499  0.00  0.00    -0.311 N 
ATOM     29  H   UNL     1       0.265   5.548   1.446  0.00  0.00    +0.149 HD
BRANCH  28  30
ATOM     30  C   UNL     1       2.371   5.365   1.636  0.00  0.00    +0.026 C 
ATOM     31  C   UNL     1       3.195   4.868   0.447  0.00  0.00    +0.031 C 
ATOM     32  C   UNL     1       2.398   6.894   1.673  0.00  0.00    +0.031 C 
ATOM     33  C   UNL     1       2.966   4.813   2.934  0.00  0.00    +0.031 C 
ENDBRANCH  28  30
ENDBRANCH  25  26
ENDBRANCH   5  25
TORSDOF 7
