REMARK  Name = ZINC14746811
REMARK  8 active torsions:
REMARK  status: ('A' for Active; 'I' for Inactive)
REMARK    1  A    between atoms: C_1  and  C_2
REMARK    2  A    between atoms: C_2  and  C_3
REMARK    3  A    between atoms: C_3  and  N_4
REMARK    4  A    between atoms: C_7  and  C_9
REMARK    5  A    between atoms: C_17  and  N_63
REMARK    6  A    between atoms: C_21  and  C_22
REMARK    7  A    between atoms: C_21  and  N_63
REMARK    8  A    between atoms: C_22  and  C_23
REMARK                            x       y       z     vdW  Elec       q    Type
REMARK                         _______ _______ _______ _____ _____    ______ ____
ROOT
ATOM      1  N   UNL     1       8.419   3.191  -6.227  0.00  0.00    -0.267 N 
ATOM      2  C   UNL     1       7.664   3.471  -5.152  0.00  0.00    +0.043 A 
ATOM      3  C   UNL     1       8.002   2.585  -4.183  0.00  0.00    +0.004 A 
ATOM      4  C   UNL     1       8.999   1.766  -4.739  0.00  0.00    +0.151 A 
ATOM      5  N   UNL     1       9.196   2.194  -5.974  0.00  0.00    -0.166 NA
ATOM      6  C   UNL     1       7.388   2.545  -2.811  0.00  0.00    +0.023 C 
ATOM      7  C   UNL     1       6.089   3.362  -2.840  0.00  0.00    -0.067 C 
ATOM      8  C   UNL     1       6.357   4.726  -3.481  0.00  0.00    -0.009 C 
ATOM      9  C   UNL     1       6.624   4.548  -4.981  0.00  0.00    +0.054 C 
ENDROOT
BRANCH   4  10
ATOM     10  C   UNL     1       9.694   0.646  -4.072  0.00  0.00    +0.267 C 
ATOM     11  O   UNL     1       9.416   0.355  -2.925  0.00  0.00    -0.268 OA
ATOM     12  N   UNL     1      10.635  -0.054  -4.736  0.00  0.00    -0.296 N 
ATOM     13  C   UNL     1      11.062   0.185  -6.122  0.00  0.00    +0.108 C 
ATOM     14  C   UNL     1      12.137  -0.869  -6.459  0.00  0.00    +0.020 C 
ATOM     15  C   UNL     1      11.843  -2.000  -5.438  0.00  0.00    +0.020 C 
ATOM     16  C   UNL     1      11.403  -1.190  -4.194  0.00  0.00    +0.108 C 
ENDBRANCH   4  10
BRANCH   7  17
ATOM     17  N   UNL     1       5.606   3.552  -1.460  0.00  0.00    +0.381 N 
ATOM     18  H   UNL     1       6.074   4.367  -1.046  0.00  0.00    -0.086 HD
ATOM     19  H   UNL     1       5.822   2.715  -0.906  0.00  0.00    -0.086 HD
BRANCH  17  20
ATOM     20  C   UNL     1       4.147   3.775  -1.454  0.00  0.00    -0.077 C 
BRANCH  20  21
ATOM     21  C   UNL     1       3.676   3.969  -0.011  0.00  0.00    +0.018 C 
BRANCH  21  22
ATOM     22  C   UNL     1       2.186   4.197   0.004  0.00  0.00    -0.024 A 
ATOM     23  C   UNL     1       1.560   5.385   0.016  0.00  0.00    +0.087 A 
ATOM     24  N   UNL     1       0.205   5.198   0.028  0.00  0.00    -0.360 N 
ATOM     25  H   UNL     1      -0.455   5.909   0.038  0.00  0.00    +0.165 HD
ATOM     26  C   UNL     1      -0.082   3.852   0.024  0.00  0.00    +0.047 A 
ATOM     27  C   UNL     1       1.147   3.166   0.008  0.00  0.00    +0.003 A 
ATOM     28  C   UNL     1       1.165   1.770   0.000  0.00  0.00    +0.010 A 
ATOM     29  C   UNL     1      -0.013   1.076   0.008  0.00  0.00    +0.001 A 
ATOM     30  C   UNL     1      -1.227   1.748   0.017  0.00  0.00    +0.002 A 
ATOM     31  C   UNL     1      -1.268   3.125   0.031  0.00  0.00    +0.026 A 
ENDBRANCH  21  22
ENDBRANCH  20  21
ENDBRANCH  17  20
ENDBRANCH   7  17
BRANCH   1  32
ATOM     32  C   UNL     1       8.368   3.913  -7.501  0.00  0.00    +0.143 C 
BRANCH  32  34
ATOM     33  C   UNL     1       7.284   4.009  -9.749  0.00  0.00    +0.005 C 
ATOM     34  C   UNL     1       7.337   3.255  -8.419  0.00  0.00    +0.020 C 
ENDBRANCH  32  34
ENDBRANCH   1  32
TORSDOF 7
