REMARK  Name = ZINC38984187
REMARK  9 active torsions:
REMARK  status: ('A' for Active; 'I' for Inactive)
REMARK    1  A    between atoms: C_1  and  C_2
REMARK    2  A    between atoms: C_2  and  O_3
REMARK    3  A    between atoms: O_3  and  C_4
REMARK    4  A    between atoms: C_9  and  N_10
REMARK    5  A    between atoms: N_10  and  C_11
REMARK    6  A    between atoms: N_14  and  S_15
REMARK    7  A    between atoms: S_15  and  C_18
REMARK    8  A    between atoms: C_21  and  O_24
REMARK    9  A    between atoms: O_24  and  C_25
REMARK                            x       y       z     vdW  Elec       q    Type
REMARK                         _______ _______ _______ _____ _____    ______ ____
ROOT
ATOM      1  C   UNL     1      -5.244  -2.145  -0.069  0.00  0.00    +0.237 C 
ATOM      2  C   UNL     1      -5.954  -1.464  -1.218  0.00  0.00    +0.192 C 
ATOM      3  N   UNL     1      -5.451  -1.497  -2.417  0.00  0.00    -0.110 NA
ATOM      4  N   UNL     1      -7.112  -0.827  -0.982  0.00  0.00    -0.226 NA
ATOM      5  C   UNL     1      -7.641  -0.780   0.223  0.00  0.00    +0.089 A 
ATOM      6  C   UNL     1      -8.866  -0.098   0.435  0.00  0.00    +0.030 A 
ATOM      7  C   UNL     1      -9.414  -0.047   1.669  0.00  0.00    +0.002 A 
ATOM      8  C   UNL     1      -8.820  -0.651   2.790  0.00  0.00    +0.002 A 
ATOM      9  C   UNL     1      -7.653  -1.326   2.698  0.00  0.00    +0.027 A 
ATOM     10  C   UNL     1      -6.992  -1.428   1.389  0.00  0.00    +0.063 A 
ATOM     11  N   UNL     1      -5.866  -2.071   1.262  0.00  0.00    -0.359 N 
ATOM     12  H   UNL     1      -5.447  -2.493   2.029  0.00  0.00    +0.162 HD
ENDROOT
BRANCH   3  13
ATOM     13  S   UNL     1      -6.239  -0.747  -3.666  0.00  0.00    +0.100 S 
ATOM     14  O   UNL     1      -7.457  -1.454  -3.860  0.00  0.00    -0.146 OA
ATOM     15  O   UNL     1      -6.203   0.646  -3.391  0.00  0.00    -0.146 OA
BRANCH  13  16
ATOM     16  C   UNL     1      -5.273  -1.000  -5.117  0.00  0.00    +0.113 A 
ATOM     17  C   UNL     1      -4.288  -0.091  -5.457  0.00  0.00    +0.032 A 
ATOM     18  C   UNL     1      -3.529  -0.286  -6.595  0.00  0.00    +0.047 A 
ATOM     19  C   UNL     1      -3.756  -1.395  -7.397  0.00  0.00    +0.120 A 
ATOM     20  C   UNL     1      -4.745  -2.306  -7.053  0.00  0.00    +0.047 A 
ATOM     21  C   UNL     1      -5.497  -2.109  -5.912  0.00  0.00    +0.032 A 
BRANCH  19  22
ATOM     22  O   UNL     1      -3.011  -1.589  -8.517  0.00  0.00    -0.495 OA
ATOM     23  C   UNL     1      -3.300  -2.753  -9.294  0.00  0.00    +0.277 C 
ENDBRANCH  19  22
ENDBRANCH  13  16
ENDBRANCH   3  13
BRANCH   1  24
ATOM     24  N   UNL     1      -3.901  -1.567   0.031  0.00  0.00    -0.315 N 
ATOM     25  H   UNL     1      -3.790  -0.604   0.073  0.00  0.00    +0.149 HD
BRANCH  24  31
ATOM     26  C   UNL     1      -1.499  -1.858   0.026  0.00  0.00    +0.141 A 
ATOM     27  C   UNL     1      -0.394  -2.691   0.069  0.00  0.00    +0.047 A 
ATOM     28  C   UNL     1      -0.562  -4.061   0.148  0.00  0.00    +0.004 A 
ATOM     29  C   UNL     1      -1.833  -4.604   0.184  0.00  0.00    +0.002 A 
ATOM     30  C   UNL     1      -2.942  -3.780   0.142  0.00  0.00    +0.026 A 
ATOM     31  C   UNL     1      -2.780  -2.404   0.068  0.00  0.00    +0.071 A 
BRANCH  26  32
ATOM     32  O   UNL     1      -1.335  -0.510  -0.052  0.00  0.00    -0.490 OA
BRANCH  32  34
ATOM     33  C   UNL     1      -0.009   1.506  -0.179  0.00  0.00    +0.048 C 
ATOM     34  C   UNL     1       0.007  -0.021  -0.092  0.00  0.00    +0.226 C 
ENDBRANCH  32  34
ENDBRANCH  26  32
ENDBRANCH  24  31
ENDBRANCH   1  24
TORSDOF 7
