REMARK  Name = ZINC55494638
REMARK  5 active torsions:
REMARK  status: ('A' for Active; 'I' for Inactive)
REMARK    1  A    between atoms: C_1  and  C_2
REMARK    2  A    between atoms: C_2  and  C_3
REMARK    3  A    between atoms: C_16  and  C_18
REMARK    4  A    between atoms: C_22  and  S_24
REMARK    5  A    between atoms: S_24  and  N_27
REMARK                            x       y       z     vdW  Elec       q    Type
REMARK                         _______ _______ _______ _____ _____    ______ ____
ROOT
ATOM      1  C   UNL     1       0.718  -0.497  -1.257  0.00  0.00    -0.006 C 
ATOM      2  C   UNL     1       0.844  -2.023  -1.212  0.00  0.00    +0.008 C 
ATOM      3  C   UNL     1       1.769  -2.501  -2.331  0.00  0.00    +0.037 C 
ATOM      4  C   UNL     1       1.280  -1.924  -3.657  0.00  0.00    -0.023 A 
ATOM      5  C   UNL     1       0.448  -0.855  -3.677  0.00  0.00    -0.004 A 
ATOM      6  S   UNL     1       0.145  -0.534  -5.396  0.00  0.00    -0.073 S 
ATOM      7  C   UNL     1       1.129  -1.828  -6.083  0.00  0.00    +0.116 A 
ATOM      8  C   UNL     1       1.666  -2.473  -4.944  0.00  0.00    +0.075 A 
ATOM      9  C   UNL     1       2.530  -3.596  -5.173  0.00  0.00    +0.260 A 
ATOM     10  O   UNL     1       3.041  -4.217  -4.256  0.00  0.00    -0.267 OA
ATOM     11  N   UNL     1       2.742  -3.923  -6.469  0.00  0.00    -0.306 N 
ATOM     12  H   UNL     1       3.320  -4.676  -6.669  0.00  0.00    +0.170 HD
ATOM     13  C   UNL     1       2.180  -3.240  -7.508  0.00  0.00    +0.142 A 
ATOM     14  N   UNL     1       1.379  -2.200  -7.331  0.00  0.00    -0.222 NA
ATOM     15  C   UNL     1      -0.094  -0.104  -2.499  0.00  0.00    +0.046 C 
ENDROOT
BRANCH  13  16
ATOM     16  C   UNL     1       2.477  -3.679  -8.887  0.00  0.00    +0.019 A 
ATOM     17  C   UNL     1       3.312  -4.775  -9.110  0.00  0.00    +0.011 A 
ATOM     18  C   UNL     1       3.585  -5.179 -10.400  0.00  0.00    +0.003 A 
ATOM     19  C   UNL     1       3.033  -4.500 -11.473  0.00  0.00    +0.028 A 
ATOM     20  C   UNL     1       2.204  -3.413 -11.259  0.00  0.00    +0.106 A 
ATOM     21  C   UNL     1       1.918  -3.002  -9.973  0.00  0.00    +0.040 A 
BRANCH  20  22
ATOM     22  S   UNL     1       1.507  -2.557 -12.631  0.00  0.00    +0.056 S 
ATOM     23  O   UNL     1       1.206  -1.243 -12.180  0.00  0.00    -0.153 OA
ATOM     24  O   UNL     1       2.360  -2.804 -13.741  0.00  0.00    -0.153 OA
BRANCH  22  25
ATOM     25  N   UNL     1       0.059  -3.282 -12.977  0.00  0.00    -0.204 NA
ATOM     26  H   UNL     1      -0.244  -4.036 -12.447  0.00  0.00    +0.144 HD
ATOM     27  H   UNL     1      -0.486  -2.953 -13.709  0.00  0.00    +0.144 HD
ENDBRANCH  22  25
ENDBRANCH  20  22
ENDBRANCH  13  16
BRANCH   1  29
ATOM     28  C   UNL     1      -0.019   1.526   0.010  0.00  0.00    +0.004 C 
ATOM     29  C   UNL     1       0.002  -0.004   0.002  0.00  0.00    +0.000 C 
ENDBRANCH   1  29
TORSDOF 4
