REMARK  Name = ZINC02311013
REMARK  9 active torsions:
REMARK  status: ('A' for Active; 'I' for Inactive)
REMARK    1  A    between atoms: C_1  and  C_2
REMARK    2  A    between atoms: C_2  and  O_3
REMARK    3  A    between atoms: O_3  and  C_4
REMARK    4  A    between atoms: C_4  and  C_6
REMARK    5  A    between atoms: C_10  and  N_11
REMARK    6  A    between atoms: C_12  and  C_14
REMARK    7  A    between atoms: N_25  and  C_28
REMARK    8  A    between atoms: C_26  and  N_27
REMARK    9  A    between atoms: C_31  and  C_34
REMARK                            x       y       z     vdW  Elec       q    Type
REMARK                         _______ _______ _______ _____ _____    ______ ____
ROOT
ATOM      1  C   UNL     1       1.555  -2.056  -0.024  0.00  0.00    +0.104 A 
ATOM      2  C   UNL     1       1.157  -0.638  -0.013  0.00  0.00    +0.123 A 
ATOM      3  C   UNL     1       2.413   0.118  -0.020  0.00  0.00    +0.166 A 
ATOM      4  N   UNL     1       2.376   1.433  -0.013  0.00  0.00    -0.225 NA
ATOM      5  C   UNL     1       1.197   2.067   0.002  0.00  0.00    +0.092 A 
ATOM      6  C   UNL     1       1.149   3.474   0.010  0.00  0.00    +0.030 A 
ATOM      7  C   UNL     1      -0.054   4.110   0.025  0.00  0.00    +0.002 A 
ATOM      8  C   UNL     1      -1.246   3.389   0.032  0.00  0.00    +0.002 A 
ATOM      9  C   UNL     1      -1.240   2.029   0.019  0.00  0.00    +0.030 A 
ATOM     10  C   UNL     1      -0.016   1.334   0.009  0.00  0.00    +0.090 A 
ATOM     11  N   UNL     1       0.002  -0.004   0.002  0.00  0.00    -0.241 NA
ATOM     12  N   UNL     1       3.440  -0.806  -0.035  0.00  0.00    -0.280 N 
ATOM     13  C   UNL     1       2.946  -2.076  -0.037  0.00  0.00    +0.117 A 
ENDROOT
BRANCH  12  14
ATOM     14  C   UNL     1       4.803  -0.482  -0.047  0.00  0.00    +0.050 A 
ATOM     15  C   UNL     1       5.372   0.173   1.038  0.00  0.00    +0.026 A 
ATOM     16  C   UNL     1       6.717   0.486   1.025  0.00  0.00    +0.005 A 
ATOM     17  C   UNL     1       7.495   0.158  -0.070  0.00  0.00    -0.050 A 
ATOM     18  C   UNL     1       6.930  -0.489  -1.154  0.00  0.00    +0.005 A 
ATOM     19  C   UNL     1       5.587  -0.810  -1.145  0.00  0.00    +0.026 A 
ATOM     20  C   UNL     1       8.961   0.508  -0.083  0.00  0.00    +0.044 C 
ENDBRANCH  12  14
BRANCH   1  22
ATOM     21  N   UNL     1       0.290  -3.719   1.147  0.00  0.00    -0.275 N 
ATOM     22  C   UNL     1       0.690  -3.179  -0.021  0.00  0.00    +0.254 C 
ATOM     23  O   UNL     1       0.308  -3.656  -1.075  0.00  0.00    -0.270 OA
ATOM     24  H   UNL     1       0.594  -3.339   1.986  0.00  0.00    +0.156 HD
BRANCH  21  29
ATOM     25  C   UNL     1      -1.067  -5.510   2.239  0.00  0.00    +0.091 A 
ATOM     26  C   UNL     1      -1.944  -6.637   1.966  0.00  0.00    -0.021 A 
ATOM     27  C   UNL     1      -2.159  -6.894   0.658  0.00  0.00    -0.004 A 
ATOM     28  S   UNL     1      -1.224  -5.663  -0.206  0.00  0.00    -0.077 S 
ATOM     29  C   UNL     1      -0.555  -4.817   1.149  0.00  0.00    +0.087 A 
ATOM     30  C   UNL     1      -3.005  -7.986   0.079  0.00  0.00    +0.043 C 
ATOM     31  C   UNL     1      -3.299  -9.008   1.187  0.00  0.00    +0.005 C 
ATOM     32  C   UNL     1      -3.762  -8.259   2.440  0.00  0.00    +0.005 C 
ATOM     33  C   UNL     1      -2.588  -7.492   3.050  0.00  0.00    +0.037 C 
BRANCH  25  34
ATOM     34  C   UNL     1      -0.738  -5.118   3.611  0.00  0.00    +0.342 C 
ATOM     35  O   UNL     1      -1.437  -4.314   4.197  0.00  0.00    -0.245 OA
BRANCH  34  36
ATOM     36  O   UNL     1       0.339  -5.650   4.224  0.00  0.00    -0.461 OA
BRANCH  36  38
ATOM     37  C   UNL     1       1.856  -5.921   6.110  0.00  0.00    +0.048 C 
ATOM     38  C   UNL     1       0.604  -5.216   5.585  0.00  0.00    +0.229 C 
ENDBRANCH  36  38
ENDBRANCH  34  36
ENDBRANCH  25  34
ENDBRANCH  21  29
ENDBRANCH   1  22
BRANCH  13  39
ATOM     39  N   UNL     1       3.711  -3.213  -0.050  0.00  0.00    -0.343 N 
ATOM     40  H   UNL     1       3.285  -4.085  -0.051  0.00  0.00    +0.144 HD
ATOM     41  H   UNL     1       4.678  -3.147  -0.059  0.00  0.00    +0.144 HD
ENDBRANCH  13  39
TORSDOF 7
