REMARK  Name = ZINC09426180
REMARK  12 active torsions:
REMARK  status: ('A' for Active; 'I' for Inactive)
REMARK    1  A    between atoms: C_1  and  C_2
REMARK    2  A    between atoms: C_5  and  S_8
REMARK    3  A    between atoms: S_8  and  N_11
REMARK    4  A    between atoms: N_11  and  C_12
REMARK    5  A    between atoms: C_12  and  C_13
REMARK    6  A    between atoms: C_13  and  C_14
REMARK    7  A    between atoms: C_14  and  N_15
REMARK    8  A    between atoms: C_16  and  C_28
REMARK    9  A    between atoms: N_17  and  S_18
REMARK   10  A    between atoms: S_18  and  C_21
REMARK   11  A    between atoms: C_24  and  C_27
REMARK   12  A    between atoms: C_28  and  N_65
REMARK                            x       y       z     vdW  Elec       q    Type
REMARK                         _______ _______ _______ _____ _____    ______ ____
ROOT
ATOM      1  N   UNL     1      -0.475   2.032   2.321  0.00  0.00    -0.333 N 
ATOM      2  C   UNL     1      -0.871   1.965   1.010  0.00  0.00    +0.100 C 
ATOM      3  N   UNL     1      -2.019   2.442   0.656  0.00  0.00    -0.120 NA
ATOM      4  H   UNL     1       0.386   1.675   2.586  0.00  0.00    +0.147 HD
ENDROOT
BRANCH   3   5
ATOM      5  S   UNL     1      -2.554   2.245  -0.898  0.00  0.00    +0.100 S 
ATOM      6  O   UNL     1      -1.666   2.980  -1.729  0.00  0.00    -0.146 OA
ATOM      7  O   UNL     1      -2.788   0.855  -1.075  0.00  0.00    -0.146 OA
BRANCH   5   8
ATOM      8  C   UNL     1      -4.124   3.038  -1.014  0.00  0.00    +0.113 A 
ATOM      9  C   UNL     1      -5.279   2.326  -0.750  0.00  0.00    +0.029 A 
ATOM     10  C   UNL     1      -6.510   2.949  -0.836  0.00  0.00    +0.005 A 
ATOM     11  C   UNL     1      -6.586   4.281  -1.196  0.00  0.00    -0.050 A 
ATOM     12  C   UNL     1      -5.431   4.992  -1.465  0.00  0.00    +0.005 A 
ATOM     13  C   UNL     1      -4.200   4.370  -1.374  0.00  0.00    +0.029 A 
ATOM     14  C   UNL     1      -7.928   4.959  -1.295  0.00  0.00    +0.044 C 
ENDBRANCH   5   8
ENDBRANCH   3   5
BRANCH   1  15
ATOM     15  C   UNL     1      -1.354   2.644   3.320  0.00  0.00    +0.104 C 
BRANCH  15  16
ATOM     16  C   UNL     1      -0.680   2.591   4.693  0.00  0.00    +0.035 C 
BRANCH  16  17
ATOM     17  C   UNL     1      -1.598   3.230   5.737  0.00  0.00    +0.107 C 
BRANCH  17  18
ATOM     18  N   UNL     1      -0.952   3.179   7.051  0.00  0.00    -0.190 NA
ATOM     19  H   UNL     1      -0.188   2.599   7.194  0.00  0.00    +0.148 HD
BRANCH  18  20
ATOM     20  S   UNL     1      -1.528   4.111   8.293  0.00  0.00    +0.058 S 
ATOM     21  O   UNL     1      -0.720   3.822   9.426  0.00  0.00    -0.153 OA
ATOM     22  O   UNL     1      -1.675   5.427   7.778  0.00  0.00    -0.153 OA
BRANCH  20  27
ATOM     23  C   UNL     1      -7.079   2.132   9.586  0.00  0.00    +0.044 C 
ATOM     24  C   UNL     1      -5.693   2.626   9.263  0.00  0.00    -0.050 A 
ATOM     25  C   UNL     1      -4.597   2.081   9.906  0.00  0.00    +0.005 A 
ATOM     26  C   UNL     1      -3.325   2.534   9.610  0.00  0.00    +0.029 A 
ATOM     27  C   UNL     1      -3.149   3.533   8.671  0.00  0.00    +0.105 A 
ATOM     28  C   UNL     1      -4.245   4.081   8.031  0.00  0.00    +0.029 A 
ATOM     29  C   UNL     1      -5.516   3.625   8.324  0.00  0.00    +0.005 A 
ENDBRANCH  20  27
ENDBRANCH  18  20
ENDBRANCH  17  18
ENDBRANCH  16  17
ENDBRANCH  15  16
ENDBRANCH   1  15
BRANCH   2  30
ATOM     30  C   UNL     1       0.033   1.336  -0.018  0.00  0.00    -0.005 C 
BRANCH  30  35
ATOM     31  C   UNL     1       1.617   3.160   0.287  0.00  0.00    -0.078 C 
ATOM     32  C   UNL     1       2.716   3.807  -0.592  0.00  0.00    -0.020 C 
ATOM     33  C   UNL     1       3.033   2.698  -1.622  0.00  0.00    -0.020 C 
ATOM     34  C   UNL     1       1.786   1.794  -1.636  0.00  0.00    -0.078 C 
ATOM     35  N   UNL     1       0.837   2.396  -0.699  0.00  0.00    +0.384 N 
ATOM     36  H   UNL     1       0.203   3.026  -1.204  0.00  0.00    -0.081 HD
ENDBRANCH  30  35
ENDBRANCH   2  30
TORSDOF 10
