REMARK  Name = ZINC16652557
REMARK  5 active torsions:
REMARK  status: ('A' for Active; 'I' for Inactive)
REMARK    1  A    between atoms: C_1  and  C_2
REMARK    2  A    between atoms: C_5  and  C_12
REMARK    3  A    between atoms: C_7  and  S_8
REMARK    4  A    between atoms: S_8  and  N_11
REMARK    5  A    between atoms: C_22  and  C_25
REMARK                            x       y       z     vdW  Elec       q    Type
REMARK                         _______ _______ _______ _____ _____    ______ ____
ROOT
ATOM      1  C   UNL     1      -2.402  -0.970   0.857  0.00  0.00    +0.046 C 
ATOM      2  C   UNL     1      -2.635   0.135   1.855  0.00  0.00    -0.024 A 
ATOM      3  C   UNL     1      -3.248  -0.146   3.064  0.00  0.00    +0.006 A 
ATOM      4  C   UNL     1      -3.464   0.862   3.981  0.00  0.00    +0.010 A 
ATOM      5  C   UNL     1      -3.064   2.165   3.689  0.00  0.00    +0.004 A 
ATOM      6  C   UNL     1      -2.442   2.441   2.472  0.00  0.00    +0.038 A 
ATOM      7  C   UNL     1      -2.236   1.426   1.560  0.00  0.00    +0.109 A 
ENDROOT
BRANCH   5   8
ATOM      8  C   UNL     1      -3.293   3.252   4.671  0.00  0.00    +0.093 A 
ATOM      9  C   UNL     1      -3.816   2.957   5.935  0.00  0.00    +0.033 A 
ATOM     10  C   UNL     1      -4.012   4.005   6.816  0.00  0.00    +0.047 A 
ATOM     11  C   UNL     1      -3.676   5.291   6.391  0.00  0.00    +0.144 A 
ATOM     12  N   UNL     1      -3.185   5.477   5.174  0.00  0.00    -0.134 NA
ATOM     13  N   UNL     1      -2.998   4.506   4.356  0.00  0.00    -0.147 NA
ATOM     14  N   UNL     1      -3.854   6.375   7.242  0.00  0.00    -0.314 N 
ATOM     15  C   UNL     1      -3.138   6.173   8.508  0.00  0.00    +0.106 C 
ATOM     16  C   UNL     1      -3.236   7.442   9.359  0.00  0.00    +0.019 C 
ATOM     17  C   UNL     1      -4.710   7.756   9.630  0.00  0.00    +0.006 C 
ATOM     18  C   UNL     1      -5.444   7.914   8.295  0.00  0.00    +0.003 C 
ATOM     19  C   UNL     1      -5.281   6.632   7.475  0.00  0.00    +0.109 C 
ATOM     20  C   UNL     1      -6.929   8.169   8.556  0.00  0.00    +0.009 C 
ENDBRANCH   5   8
BRANCH   7  21
ATOM     21  S   UNL     1      -1.456   1.774   0.019  0.00  0.00    +0.056 S 
ATOM     22  O   UNL     1      -1.146   3.161   0.025  0.00  0.00    -0.153 OA
ATOM     23  O   UNL     1      -2.263   1.179  -0.988  0.00  0.00    -0.153 OA
BRANCH  21  24
ATOM     24  N   UNL     1      -0.011   0.966   0.007  0.00  0.00    -0.204 NA
ATOM     25  H   UNL     1       0.002  -0.004   0.002  0.00  0.00    +0.144 HD
ATOM     26  H   UNL     1       0.822   1.462   0.002  0.00  0.00    +0.144 HD
ENDBRANCH  21  24
ENDBRANCH   7  21
TORSDOF 3
