REMARK  Name = ZINC64006589
REMARK  11 active torsions:
REMARK  status: ('A' for Active; 'I' for Inactive)
REMARK    1  A    between atoms: C_1  and  C_2
REMARK    2  A    between atoms: C_2  and  O_3
REMARK    3  A    between atoms: O_3  and  C_4
REMARK    4  A    between atoms: C_9  and  C_10
REMARK    5  A    between atoms: C_10  and  N_11
REMARK    6  A    between atoms: C_17  and  C_19
REMARK    7  A    between atoms: C_19  and  C_20
REMARK    8  A    between atoms: N_22  and  C_23
REMARK    9  A    between atoms: N_22  and  C_24
REMARK   10  A    between atoms: C_24  and  C_25
REMARK   11  A    between atoms: C_27  and  C_35
REMARK                            x       y       z     vdW  Elec       q    Type
REMARK                         _______ _______ _______ _____ _____    ______ ____
ROOT
ATOM      1  N   UNL     1       3.071  -0.795  -3.063  0.00  0.00    +0.391 N 
ATOM      2  C   UNL     1       2.763  -0.056  -1.828  0.00  0.00    -0.058 C 
ATOM      3  C   UNL     1       4.065   0.191  -1.064  0.00  0.00    +0.085 C 
ATOM      4  N   UNL     1       5.061   0.781  -1.956  0.00  0.00    -0.318 N 
ATOM      5  C   UNL     1       4.952   0.735  -3.288  0.00  0.00    +0.200 C 
ATOM      6  O   UNL     1       5.833   1.227  -3.961  0.00  0.00    -0.278 OA
ATOM      7  C   UNL     1       3.784   0.097  -3.985  0.00  0.00    +0.028 C 
ATOM      8  H   UNL     1       5.830   1.224  -1.566  0.00  0.00    +0.149 HD
ATOM      9  H   UNL     1       3.651  -1.592  -2.846  0.00  0.00    -0.080 HD
ENDROOT
BRANCH   1  10
ATOM     10  C   UNL     1       1.822  -1.252  -3.687  0.00  0.00    -0.038 C 
BRANCH  10  16
ATOM     11  C   UNL     1       0.300  -1.849  -1.785  0.00  0.00    +0.122 A 
ATOM     12  C   UNL     1      -0.315  -2.787  -0.969  0.00  0.00    +0.046 A 
ATOM     13  C   UNL     1      -0.071  -4.133  -1.159  0.00  0.00    +0.004 A 
ATOM     14  C   UNL     1       0.786  -4.546  -2.162  0.00  0.00    +0.000 A 
ATOM     15  C   UNL     1       1.401  -3.614  -2.977  0.00  0.00    +0.005 A 
ATOM     16  C   UNL     1       1.156  -2.267  -2.794  0.00  0.00    -0.022 A 
BRANCH  11  17
ATOM     17  O   UNL     1       0.062  -0.524  -1.601  0.00  0.00    -0.492 OA
BRANCH  17  19
ATOM     18  C   UNL     1      -0.974   1.356  -0.489  0.00  0.00    +0.048 C 
ATOM     19  C   UNL     1      -0.830  -0.167  -0.542  0.00  0.00    +0.225 C 
ENDBRANCH  17  19
ENDBRANCH  11  17
ENDBRANCH  10  16
ENDBRANCH   1  10
BRANCH   7  20
ATOM     20  C   UNL     1       4.288  -0.711  -5.184  0.00  0.00    +0.090 C 
BRANCH  20  21
ATOM     21  C   UNL     1       5.258  -1.762  -4.709  0.00  0.00    +0.214 C 
ATOM     22  O   UNL     1       5.598  -1.792  -3.545  0.00  0.00    -0.276 OA
ATOM     23  N   UNL     1       5.748  -2.668  -5.578  0.00  0.00    -0.302 N 
ATOM     24  C   UNL     1       5.337  -2.631  -6.984  0.00  0.00    +0.132 C 
BRANCH  23  25
ATOM     25  C   UNL     1       6.691  -3.689  -5.117  0.00  0.00    +0.136 C 
BRANCH  25  26
ATOM     26  C   UNL     1       5.918  -4.927  -4.658  0.00  0.00    +0.123 C 
ATOM     27  C   UNL     1       6.878  -6.045  -4.317  0.00  0.00    -0.040 C 
ATOM     28  C   UNL     1       6.580  -7.064  -5.156  0.00  0.00    -0.001 A 
ATOM     29  C   UNL     1       7.143  -8.408  -5.327  0.00  0.00    +0.010 A 
ATOM     30  C   UNL     1       6.622  -9.222  -6.274  0.00  0.00    +0.001 A 
ATOM     31  C   UNL     1       5.561  -8.814  -7.094  0.00  0.00    +0.002 A 
ATOM     32  C   UNL     1       4.991  -7.594  -6.996  0.00  0.00    +0.026 A 
ATOM     33  C   UNL     1       5.459  -6.657  -6.035  0.00  0.00    +0.043 A 
ATOM     34  N   UNL     1       5.079  -5.434  -5.749  0.00  0.00    -0.376 N 
ATOM     35  C   UNL     1       7.950  -6.028  -3.259  0.00  0.00    +0.042 C 
ATOM     36  H   UNL     1       4.363  -4.946  -6.187  0.00  0.00    +0.160 HD
ENDBRANCH  25  26
ENDBRANCH  23  25
ENDBRANCH  20  21
ENDBRANCH   7  20
TORSDOF 8
