REMARK  Name = ZINC03129197
REMARK  9 active torsions:
REMARK  status: ('A' for Active; 'I' for Inactive)
REMARK    1  A    between atoms: C_1  and  C_2
REMARK    2  A    between atoms: C_2  and  O_3
REMARK    3  A    between atoms: O_3  and  C_4
REMARK    4  A    between atoms: C_4  and  C_6
REMARK    5  A    between atoms: C_7  and  N_28
REMARK    6  A    between atoms: C_8  and  C_19
REMARK    7  A    between atoms: C_10  and  N_11
REMARK    8  A    between atoms: N_11  and  C_12
REMARK    9  A    between atoms: C_19  and  C_21
REMARK                            x       y       z     vdW  Elec       q    Type
REMARK                         _______ _______ _______ _____ _____    ______ ____
ROOT
ATOM      1  C   UNL     1      -3.797   2.288  -0.465  0.00  0.00    +0.109 A 
ATOM      2  C   UNL     1      -2.710   1.470  -0.171  0.00  0.00    +0.059 A 
ATOM      3  C   UNL     1      -1.456   2.075  -0.134  0.00  0.00    +0.083 A 
ATOM      4  S   UNL     1      -1.832   3.778  -0.506  0.00  0.00    -0.068 S 
ATOM      5  C   UNL     1      -3.548   3.646  -0.699  0.00  0.00    +0.086 A 
ENDROOT
BRANCH   2   6
ATOM      6  N   UNL     1      -2.868   0.116   0.075  0.00  0.00    -0.356 N 
ATOM      7  H   UNL     1      -2.095  -0.434   0.278  0.00  0.00    +0.142 HD
ATOM      8  H   UNL     1      -3.752  -0.283   0.044  0.00  0.00    +0.142 HD
ENDBRANCH   2   6
BRANCH   1   9
ATOM      9  C   UNL     1      -5.156   1.746  -0.527  0.00  0.00    +0.343 C 
ATOM     10  O   UNL     1      -5.847   1.722   0.473  0.00  0.00    -0.245 OA
BRANCH   9  11
ATOM     11  O   UNL     1      -5.641   1.275  -1.694  0.00  0.00    -0.461 OA
BRANCH  11  13
ATOM     12  C   UNL     1      -7.367   0.267  -3.084  0.00  0.00    +0.048 C 
ATOM     13  C   UNL     1      -6.995   0.753  -1.682  0.00  0.00    +0.229 C 
ENDBRANCH  11  13
ENDBRANCH   9  11
ENDBRANCH   1   9
BRANCH   5  14
ATOM     14  N   UNL     1      -4.450   4.637  -1.004  0.00  0.00    -0.306 N 
ATOM     15  H   UNL     1      -5.401   4.448  -0.992  0.00  0.00    +0.153 HD
BRANCH  14  16
ATOM     16  C   UNL     1      -3.996   5.919  -1.331  0.00  0.00    +0.067 A 
ATOM     17  C   UNL     1      -2.726   6.092  -1.865  0.00  0.00    +0.026 A 
ATOM     18  C   UNL     1      -2.280   7.360  -2.187  0.00  0.00    +0.002 A 
ATOM     19  C   UNL     1      -3.097   8.456  -1.979  0.00  0.00    +0.003 A 
ATOM     20  C   UNL     1      -4.363   8.289  -1.448  0.00  0.00    +0.040 A 
ATOM     21  C   UNL     1      -4.818   7.023  -1.128  0.00  0.00    +0.144 A 
ATOM     22  F   UNL     1      -6.056   6.859  -0.614  0.00  0.00    -0.204 F 
ENDBRANCH  14  16
ENDBRANCH   5  14
BRANCH   3  23
ATOM     23  C   UNL     1      -0.204   1.490   0.135  0.00  0.00    +0.202 C 
ATOM     24  O   UNL     1      -0.139   0.326   0.495  0.00  0.00    -0.286 OA
BRANCH  23  25
ATOM     25  C   UNL     1       1.034   2.284  -0.024  0.00  0.00    +0.023 A 
ATOM     26  C   UNL     1       1.059   3.376  -0.893  0.00  0.00    +0.013 A 
ATOM     27  C   UNL     1       2.214   4.116  -1.033  0.00  0.00    +0.021 A 
ATOM     28  C   UNL     1       3.352   3.771  -0.322  0.00  0.00    +0.041 A 
ATOM     29  C   UNL     1       3.335   2.685   0.537  0.00  0.00    +0.021 A 
ATOM     30  C   UNL     1       2.184   1.941   0.690  0.00  0.00    +0.013 A 
ATOM     31 CL   UNL     1       4.804   4.704  -0.509  0.00  0.00    -0.084 Cl
ENDBRANCH  23  25
ENDBRANCH   3  23
TORSDOF 8
