REMARK  Name = ZINC39639302
REMARK  8 active torsions:
REMARK  status: ('A' for Active; 'I' for Inactive)
REMARK    1  A    between atoms: C_1  and  C_2
REMARK    2  A    between atoms: C_5  and  C_8
REMARK    3  A    between atoms: C_8  and  C_10
REMARK    4  A    between atoms: C_8  and  N_11
REMARK    5  A    between atoms: C_12  and  C_14
REMARK    6  A    between atoms: C_25  and  C_27
REMARK    7  A    between atoms: C_28  and  C_39
REMARK    8  A    between atoms: C_31  and  C_32
REMARK                            x       y       z     vdW  Elec       q    Type
REMARK                         _______ _______ _______ _____ _____    ______ ____
ROOT
ATOM      1  C   UNL     1       2.460  -6.468   1.999  0.00  0.00    +0.100 C 
ATOM      2  C   UNL     1       1.730  -6.497   3.361  0.00  0.00    +0.121 C 
ATOM      3  N   UNL     1       1.236  -7.888   3.492  0.00  0.00    -0.296 N 
ATOM      4  C   UNL     1       2.335  -8.722   2.948  0.00  0.00    +0.115 C 
ATOM      5  C   UNL     1       2.858  -7.930   1.734  0.00  0.00    -0.004 C 
ATOM      6  C   UNL     1       4.375  -8.055   1.635  0.00  0.00    -0.010 C 
ATOM      7  C   UNL     1       4.744  -9.505   1.313  0.00  0.00    -0.082 C 
ATOM      8  N   UNL     1       4.118  -9.901   0.046  0.00  0.00    +0.379 N 
ATOM      9  C   UNL     1       2.656  -9.868   0.178  0.00  0.00    -0.082 C 
ATOM     10  C   UNL     1       2.199  -8.432   0.453  0.00  0.00    -0.010 C 
ATOM     11  C   UNL     1       0.055  -8.302   3.992  0.00  0.00    +0.252 C 
ATOM     12  O   UNL     1      -0.206  -9.489   4.033  0.00  0.00    -0.270 OA
ATOM     13  H   UNL     1       4.403  -9.264  -0.682  0.00  0.00    -0.086 HD
ATOM     14  H   UNL     1       4.411 -10.836  -0.195  0.00  0.00    -0.086 HD
ENDROOT
BRANCH  11  15
ATOM     15  C   UNL     1      -0.919  -7.316   4.490  0.00  0.00    +0.106 A 
ATOM     16  C   UNL     1      -1.906  -6.712   3.769  0.00  0.00    +0.147 A 
ATOM     17  O   UNL     1      -2.573  -5.887   4.580  0.00  0.00    -0.359 OA
ATOM     18  N   UNL     1      -2.012  -5.945   5.877  0.00  0.00    -0.077 NA
ATOM     19  C   UNL     1      -1.019  -6.798   5.863  0.00  0.00    +0.127 A 
ATOM     20  C   UNL     1      -2.195  -6.936   2.307  0.00  0.00    +0.090 C 
BRANCH  19  21
ATOM     21  C   UNL     1      -0.157  -7.168   7.012  0.00  0.00    +0.023 A 
ATOM     22  C   UNL     1       0.875  -8.090   6.844  0.00  0.00    +0.011 A 
ATOM     23  C   UNL     1       1.673  -8.431   7.917  0.00  0.00    +0.001 A 
ATOM     24  C   UNL     1       1.452  -7.860   9.157  0.00  0.00    +0.001 A 
ATOM     25  C   UNL     1       0.430  -6.945   9.331  0.00  0.00    +0.020 A 
ATOM     26  C   UNL     1      -0.372  -6.591   8.263  0.00  0.00    +0.050 A 
ATOM     27 CL   UNL     1      -1.650  -5.436   8.481  0.00  0.00    -0.083 Cl
ENDBRANCH  19  21
ENDBRANCH  11  15
BRANCH   1  29
ATOM     28  N   UNL     1       2.041  -5.419  -0.201  0.00  0.00    -0.308 N 
ATOM     29  C   UNL     1       1.534  -5.972   0.919  0.00  0.00    +0.219 C 
ATOM     30  O   UNL     1       0.333  -6.070   1.057  0.00  0.00    -0.275 OA
ATOM     31  H   UNL     1       3.001  -5.341  -0.312  0.00  0.00    +0.149 HD
BRANCH  28  32
ATOM     32  C   UNL     1       1.141  -4.937  -1.252  0.00  0.00    +0.100 C 
ATOM     33  C   UNL     1       0.695  -3.510  -0.926  0.00  0.00    +0.033 C 
BRANCH  32  38
ATOM     34  C   UNL     1       3.905  -4.975  -6.326  0.00  0.00    +0.044 C 
ATOM     35  C   UNL     1       3.184  -4.965  -5.003  0.00  0.00    -0.050 A 
ATOM     36  C   UNL     1       1.861  -5.359  -4.934  0.00  0.00    +0.004 A 
ATOM     37  C   UNL     1       1.200  -5.350  -3.720  0.00  0.00    +0.006 A 
ATOM     38  C   UNL     1       1.862  -4.948  -2.575  0.00  0.00    -0.027 A 
ATOM     39  C   UNL     1       3.186  -4.555  -2.644  0.00  0.00    +0.006 A 
ATOM     40  C   UNL     1       3.848  -4.568  -3.857  0.00  0.00    +0.004 A 
ENDBRANCH  32  38
ENDBRANCH  28  32
ENDBRANCH   1  29
TORSDOF 5
