REMARK  Name = ZINC04425899
REMARK  8 active torsions:
REMARK  status: ('A' for Active; 'I' for Inactive)
REMARK    1  A    between atoms: C_1  and  C_2
REMARK    2  A    between atoms: N_4  and  C_11
REMARK    3  A    between atoms: C_17  and  C_20
REMARK    4  A    between atoms: C_20  and  O_21
REMARK    5  A    between atoms: O_21  and  C_22
REMARK    6  A    between atoms: C_22  and  C_24
REMARK    7  A    between atoms: C_31  and  C_33
REMARK    8  A    between atoms: C_31  and  C_34
REMARK                            x       y       z     vdW  Elec       q    Type
REMARK                         _______ _______ _______ _____ _____    ______ ____
ROOT
ATOM      1  C   UNL     1      -0.018   1.461   0.010  0.00  0.00    +0.255 C 
ATOM      2  C   UNL     1      -0.558   1.981   1.321  0.00  0.00    +0.203 C 
ATOM      3  C   UNL     1       0.702   1.666   2.224  0.00  0.00    +0.187 C 
ATOM      4  C   UNL     1       1.784   2.230   1.345  0.00  0.00    +0.190 C 
ATOM      5  O   UNL     1       1.339   1.996  -0.018  0.00  0.00    -0.344 OA
ATOM      6  O   UNL     1       0.224   2.203   3.430  0.00  0.00    -0.341 OA
ATOM      7  C   UNL     1      -1.134   1.666   3.478  0.00  0.00    +0.166 C 
ATOM      8  O   UNL     1      -1.558   1.405   2.109  0.00  0.00    -0.339 OA
ATOM      9  C   UNL     1      -1.149   0.364   4.282  0.00  0.00    +0.074 C 
ATOM     10  C   UNL     1      -2.072   2.686   4.127  0.00  0.00    +0.074 C 
ENDROOT
BRANCH   1  14
ATOM     11  C   UNL     1       2.449  -2.766   0.608  0.00  0.00    +0.051 C 
ATOM     12  C   UNL     1       1.180  -2.018   0.288  0.00  0.00    +0.030 A 
ATOM     13  C   UNL     1       1.162  -0.668   0.295  0.00  0.00    +0.102 A 
ATOM     14  N   UNL     1       0.002  -0.004   0.002  0.00  0.00    -0.271 N 
ATOM     15  C   UNL     1      -1.122  -0.684  -0.288  0.00  0.00    +0.331 A 
ATOM     16  O   UNL     1      -2.143  -0.074  -0.541  0.00  0.00    -0.246 OA
ATOM     17  N   UNL     1      -1.131  -2.030  -0.307  0.00  0.00    -0.275 N 
ATOM     18  H   UNL     1      -1.973  -2.519  -0.532  0.00  0.00    +0.173 HD
ATOM     19  C   UNL     1      -0.008  -2.721  -0.024  0.00  0.00    +0.257 A 
ATOM     20  O   UNL     1      -0.016  -3.939  -0.037  0.00  0.00    -0.267 OA
ENDBRANCH   1  14
BRANCH   4  21
ATOM     21  C   UNL     1       1.945   3.730   1.599  0.00  0.00    +0.266 C 
BRANCH  21  22
ATOM     22  O   UNL     1       3.034   4.244   0.786  0.00  0.00    -0.458 OA
BRANCH  22  23
ATOM     23  C   UNL     1       3.309   5.558   0.892  0.00  0.00    +0.339 C 
ATOM     24  O   UNL     1       2.657   6.256   1.643  0.00  0.00    -0.245 OA
BRANCH  23  25
ATOM     25  C   UNL     1       4.403   6.151   0.096  0.00  0.00    +0.059 A 
ATOM     26  C   UNL     1       5.158   5.350  -0.763  0.00  0.00    +0.015 A 
ATOM     27  C   UNL     1       6.175   5.911  -1.507  0.00  0.00    +0.001 A 
ATOM     28  C   UNL     1       6.455   7.261  -1.396  0.00  0.00    +0.000 A 
ATOM     29  C   UNL     1       5.713   8.060  -0.543  0.00  0.00    +0.001 A 
ATOM     30  C   UNL     1       4.690   7.513   0.204  0.00  0.00    +0.015 A 
ENDBRANCH  23  25
ENDBRANCH  22  23
ENDBRANCH  21  22
ENDBRANCH   4  21
TORSDOF 5
