REMARK  Name = ZINC05183297
REMARK  7 active torsions:
REMARK  status: ('A' for Active; 'I' for Inactive)
REMARK    1  A    between atoms: C_1  and  C_2
REMARK    2  A    between atoms: C_2  and  C_3
REMARK    3  A    between atoms: C_3  and  N_4
REMARK    4  A    between atoms: C_8  and  S_23
REMARK    5  A    between atoms: N_13  and  C_14
REMARK    6  A    between atoms: C_14  and  C_16
REMARK    7  A    between atoms: S_23  and  N_26
REMARK                            x       y       z     vdW  Elec       q    Type
REMARK                         _______ _______ _______ _____ _____    ______ ____
ROOT
ATOM      1  N   UNL     1      -0.675   1.545   3.712  0.00  0.00    -0.321 N 
ATOM      2  C   UNL     1      -1.676   0.780   4.281  0.00  0.00    +0.058 A 
ATOM      3  C   UNL     1      -2.171  -0.462   3.855  0.00  0.00    +0.029 A 
ATOM      4  C   UNL     1      -3.180  -1.091   4.546  0.00  0.00    +0.030 A 
ATOM      5  C   UNL     1      -3.738  -0.521   5.679  0.00  0.00    +0.106 A 
ATOM      6  C   UNL     1      -3.268   0.703   6.121  0.00  0.00    +0.045 A 
ATOM      7  C   UNL     1      -2.260   1.332   5.430  0.00  0.00    +0.041 A 
ATOM      8  S   UNL     1      -1.383   2.862   5.638  0.00  0.00    -0.052 S 
ATOM      9  C   UNL     1      -0.321   2.733   4.273  0.00  0.00    +0.167 A 
ATOM     10  N   UNL     1       0.611   3.589   3.870  0.00  0.00    -0.152 NA
ENDROOT
BRANCH   5  11
ATOM     11  S   UNL     1      -5.030  -1.347   6.547  0.00  0.00    +0.056 S 
ATOM     12  O   UNL     1      -5.747  -0.345   7.255  0.00  0.00    -0.153 OA
ATOM     13  O   UNL     1      -5.656  -2.215   5.613  0.00  0.00    -0.153 OA
BRANCH  11  14
ATOM     14  N   UNL     1      -4.315  -2.312   7.686  0.00  0.00    -0.204 NA
ATOM     15  H   UNL     1      -3.349  -2.335   7.766  0.00  0.00    +0.144 HD
ATOM     16  H   UNL     1      -4.863  -2.856   8.274  0.00  0.00    +0.144 HD
ENDBRANCH  11  14
ENDBRANCH   5  11
BRANCH  10  17
ATOM     17  C   UNL     1       0.821   4.719   4.553  0.00  0.00    +0.269 C 
ATOM     18  O   UNL     1       0.157   4.963   5.546  0.00  0.00    -0.268 OA
BRANCH  17  19
ATOM     19  C   UNL     1       1.861   5.673   4.105  0.00  0.00    +0.040 A 
ATOM     20  C   UNL     1       2.082   6.853   4.816  0.00  0.00    +0.013 A 
ATOM     21  C   UNL     1       3.052   7.739   4.394  0.00  0.00    +0.002 A 
ATOM     22  C   UNL     1       3.805   7.460   3.267  0.00  0.00    +0.020 A 
ATOM     23  C   UNL     1       3.591   6.291   2.557  0.00  0.00    +0.042 A 
ATOM     24  C   UNL     1       2.627   5.394   2.973  0.00  0.00    +0.033 A 
ATOM     25 CL   UNL     1       4.541   5.948   1.145  0.00  0.00    -0.084 Cl
ENDBRANCH  17  19
ENDBRANCH  10  17
BRANCH   1  26
ATOM     26  C   UNL     1       0.011   1.072   2.506  0.00  0.00    +0.124 C 
BRANCH  26  28
ATOM     27  C   UNL     1      -0.013   1.086   0.008  0.00  0.00    +0.005 C 
ATOM     28  C   UNL     1      -0.729   1.579   1.267  0.00  0.00    +0.018 C 
ENDBRANCH  26  28
ENDBRANCH   1  26
TORSDOF 6
