REMARK  Name = ZINC18522730
REMARK  13 active torsions:
REMARK  status: ('A' for Active; 'I' for Inactive)
REMARK    1  A    between atoms: C_1  and  C_2
REMARK    2  A    between atoms: C_2  and  C_3
REMARK    3  A    between atoms: C_3  and  N_4
REMARK    4  A    between atoms: C_8  and  S_29
REMARK    5  A    between atoms: C_12  and  S_13
REMARK    6  A    between atoms: S_13  and  C_14
REMARK    7  A    between atoms: C_14  and  C_16
REMARK    8  A    between atoms: C_14  and  C_17
REMARK    9  A    between atoms: N_19  and  C_20
REMARK   10  A    between atoms: C_25  and  C_26
REMARK   11  A    between atoms: C_26  and  C_27
REMARK   12  A    between atoms: C_26  and  C_28
REMARK   13  A    between atoms: S_29  and  N_32
REMARK                            x       y       z     vdW  Elec       q    Type
REMARK                         _______ _______ _______ _____ _____    ______ ____
ROOT
ATOM      1  N   UNL     1       2.467   3.604   0.031  0.00  0.00    -0.319 N 
ATOM      2  C   UNL     1       1.147   3.183   0.049  0.00  0.00    +0.070 A 
ATOM      3  C   UNL     1      -0.072   3.842   0.072  0.00  0.00    +0.030 A 
ATOM      4  C   UNL     1      -1.245   3.117   0.086  0.00  0.00    +0.030 A 
ATOM      5  C   UNL     1      -1.214   1.730   0.071  0.00  0.00    +0.107 A 
ATOM      6  C   UNL     1      -0.012   1.058   0.054  0.00  0.00    +0.058 A 
ATOM      7  C   UNL     1       1.185   1.779   0.039  0.00  0.00    +0.092 A 
ATOM      8  N   UNL     1       2.494   1.413   0.017  0.00  0.00    -0.222 NA
ATOM      9  C   UNL     1       3.249   2.484   0.012  0.00  0.00    +0.171 A 
ENDROOT
BRANCH   5  10
ATOM     10  S   UNL     1      -2.724   0.821   0.082  0.00  0.00    +0.056 S 
ATOM     11  O   UNL     1      -3.720   1.682  -0.453  0.00  0.00    -0.153 OA
ATOM     12  O   UNL     1      -2.435  -0.452  -0.480  0.00  0.00    -0.153 OA
BRANCH  10  13
ATOM     13  N   UNL     1      -3.126   0.559   1.667  0.00  0.00    -0.204 NA
ATOM     14  H   UNL     1      -2.553   0.894   2.374  0.00  0.00    +0.144 HD
ATOM     15  H   UNL     1      -3.934   0.070   1.888  0.00  0.00    +0.144 HD
ENDBRANCH  10  13
ENDBRANCH   5  10
BRANCH   1  16
ATOM     16  C   UNL     1       2.936   4.992   0.032  0.00  0.00    +0.124 C 
BRANCH  16  18
ATOM     17  C   UNL     1       3.612   6.915   1.476  0.00  0.00    +0.005 C 
ATOM     18  C   UNL     1       3.122   5.466   1.475  0.00  0.00    +0.018 C 
ENDBRANCH  16  18
ENDBRANCH   1  16
BRANCH   9  19
ATOM     19  S   UNL     1       5.011   2.480  -0.016  0.00  0.00    -0.075 S 
BRANCH  19  20
ATOM     20  C   UNL     1       5.321   0.696  -0.031  0.00  0.00    +0.137 C 
ATOM     21  C   UNL     1       4.828   0.082   1.280  0.00  0.00    +0.029 C 
BRANCH  20  22
ATOM     22  C   UNL     1       6.799   0.445  -0.180  0.00  0.00    +0.230 C 
ATOM     23  O   UNL     1       7.597   1.286   0.177  0.00  0.00    -0.274 OA
ATOM     24  N   UNL     1       7.235  -0.715  -0.710  0.00  0.00    -0.284 N 
ATOM     25  H   UNL     1       6.602  -1.415  -0.934  0.00  0.00    +0.155 HD
BRANCH  24  26
ATOM     26  C   UNL     1       8.602  -0.911  -0.936  0.00  0.00    +0.037 A 
ATOM     27  C   UNL     1       9.537  -0.370  -0.062  0.00  0.00    +0.023 A 
ATOM     28  C   UNL     1      10.885  -0.569  -0.285  0.00  0.00    +0.002 A 
ATOM     29  C   UNL     1      11.305  -1.298  -1.383  0.00  0.00    +0.000 A 
ATOM     30  C   UNL     1      10.378  -1.833  -2.258  0.00  0.00    +0.006 A 
ATOM     31  C   UNL     1       9.028  -1.642  -2.037  0.00  0.00    -0.024 A 
BRANCH  31  32
ATOM     32  C   UNL     1       8.017  -2.225  -2.991  0.00  0.00    +0.015 C 
ATOM     33  C   UNL     1       8.325  -1.750  -4.413  0.00  0.00    +0.012 C 
ATOM     34  C   UNL     1       8.088  -3.752  -2.938  0.00  0.00    +0.012 C 
ENDBRANCH  31  32
ENDBRANCH  24  26
ENDBRANCH  20  22
ENDBRANCH  19  20
ENDBRANCH   9  19
TORSDOF 9
