REMARK  Name = ZINC44714459
REMARK  11 active torsions:
REMARK  status: ('A' for Active; 'I' for Inactive)
REMARK    1  A    between atoms: C_1  and  C_2
REMARK    2  A    between atoms: C_3  and  C_14
REMARK    3  A    between atoms: C_6  and  C_12
REMARK    4  A    between atoms: C_14  and  C_15
REMARK    5  A    between atoms: C_15  and  N_16
REMARK    6  A    between atoms: C_17  and  C_19
REMARK    7  A    between atoms: C_30  and  C_32
REMARK    8  A    between atoms: C_35  and  O_40
REMARK    9  A    between atoms: C_37  and  O_38
REMARK   10  A    between atoms: O_38  and  C_39
REMARK   11  A    between atoms: O_40  and  C_41
REMARK                            x       y       z     vdW  Elec       q    Type
REMARK                         _______ _______ _______ _____ _____    ______ ____
ROOT
ATOM      1  C   UNL     1       2.556   1.090  -6.479  0.00  0.00    +0.100 C 
ATOM      2  C   UNL     1       1.773   2.417  -6.593  0.00  0.00    +0.121 C 
ATOM      3  N   UNL     1       2.809   3.472  -6.500  0.00  0.00    -0.296 N 
ATOM      4  C   UNL     1       3.952   2.936  -7.277  0.00  0.00    +0.115 C 
ATOM      5  C   UNL     1       3.984   1.434  -6.932  0.00  0.00    -0.004 C 
ATOM      6  C   UNL     1       4.359   0.616  -8.165  0.00  0.00    -0.010 C 
ATOM      7  C   UNL     1       5.804   0.932  -8.561  0.00  0.00    -0.082 C 
ATOM      8  N   UNL     1       6.701   0.611  -7.445  0.00  0.00    +0.379 N 
ATOM      9  C   UNL     1       6.394   1.468  -6.293  0.00  0.00    -0.082 C 
ATOM     10  C   UNL     1       4.974   1.174  -5.801  0.00  0.00    -0.010 C 
ATOM     11  C   UNL     1       2.730   4.653  -5.856  0.00  0.00    +0.250 C 
ATOM     12  O   UNL     1       1.754   4.911  -5.177  0.00  0.00    -0.270 OA
ATOM     13  H   UNL     1       6.580  -0.356  -7.185  0.00  0.00    -0.086 HD
ATOM     14  H   UNL     1       7.657   0.762  -7.730  0.00  0.00    -0.086 HD
ENDROOT
BRANCH  11  15
ATOM     15  C   UNL     1       3.825   5.631  -5.973  0.00  0.00    +0.079 A 
ATOM     16  C   UNL     1       4.530   5.756  -7.174  0.00  0.00    +0.020 A 
ATOM     17  C   UNL     1       5.552   6.670  -7.280  0.00  0.00    +0.046 A 
ATOM     18  C   UNL     1       5.889   7.473  -6.194  0.00  0.00    +0.124 A 
ATOM     19  C   UNL     1       5.197   7.357  -4.997  0.00  0.00    +0.092 A 
ATOM     20  C   UNL     1       4.163   6.445  -4.881  0.00  0.00    +0.136 A 
BRANCH  20  21
ATOM     21  O   UNL     1       3.481   6.334  -3.713  0.00  0.00    -0.494 OA
ATOM     22  C   UNL     1       3.880   7.195  -2.645  0.00  0.00    +0.277 C 
ENDBRANCH  20  21
BRANCH  18  23
ATOM     23  O   UNL     1       6.899   8.373  -6.306  0.00  0.00    -0.495 OA
ATOM     24  C   UNL     1       7.570   8.440  -7.566  0.00  0.00    +0.277 C 
ENDBRANCH  18  23
ENDBRANCH  11  15
BRANCH   1  26
ATOM     25  N   UNL     1       2.608  -0.716  -4.789  0.00  0.00    -0.315 N 
ATOM     26  C   UNL     1       2.560   0.605  -5.052  0.00  0.00    +0.218 C 
ATOM     27  O   UNL     1       2.521   1.404  -4.140  0.00  0.00    -0.275 OA
ATOM     28  H   UNL     1       2.639  -1.355  -5.519  0.00  0.00    +0.149 HD
BRANCH  25  29
ATOM     29  C   UNL     1       2.612  -1.187  -3.402  0.00  0.00    +0.109 C 
BRANCH  29  30
ATOM     30  C   UNL     1       2.670  -2.716  -3.383  0.00  0.00    +0.056 C 
BRANCH  30  33
ATOM     31  C   UNL     1       0.170  -3.400  -1.675  0.00  0.00    +0.063 C 
ATOM     32  C   UNL     1       1.600  -3.499  -1.210  0.00  0.00    +0.017 A 
ATOM     33  C   UNL     1       2.675  -3.201  -1.956  0.00  0.00    -0.018 A 
ATOM     34  C   UNL     1       3.854  -3.438  -1.119  0.00  0.00    +0.004 A 
ATOM     35  C   UNL     1       5.226  -3.311  -1.324  0.00  0.00    +0.029 A 
ATOM     36  C   UNL     1       6.103  -3.627  -0.290  0.00  0.00    +0.052 A 
ATOM     37  C   UNL     1       5.604  -4.068   0.944  0.00  0.00    +0.021 A 
ATOM     38  C   UNL     1       4.261  -4.192   1.147  0.00  0.00    +0.027 A 
ATOM     39  C   UNL     1       3.365  -3.881   0.125  0.00  0.00    +0.047 A 
ATOM     40  N   UNL     1       1.994  -3.902   0.037  0.00  0.00    -0.358 N 
ATOM     41  H   UNL     1       1.393  -4.165   0.752  0.00  0.00    +0.166 HD
BRANCH  36  42
ATOM     42  C   UNL     1       7.516  -3.502  -0.487  0.00  0.00    +0.099 C 
ATOM     43  N   UNL     1       8.637  -3.403  -0.643  0.00  0.00    -0.191 NA
ENDBRANCH  36  42
ENDBRANCH  30  33
ENDBRANCH  29  30
ENDBRANCH  25  29
ENDBRANCH   1  26
TORSDOF 8
