REMARK  Name = ZINC38670641
REMARK  11 active torsions:
REMARK  status: ('A' for Active; 'I' for Inactive)
REMARK    1  A    between atoms: C_1  and  C_2
REMARK    2  A    between atoms: C_2  and  C_3
REMARK    3  A    between atoms: C_2  and  C_4
REMARK    4  A    between atoms: C_2  and  C_5
REMARK    5  A    between atoms: C_8  and  S_11
REMARK    6  A    between atoms: S_11  and  N_14
REMARK    7  A    between atoms: N_14  and  C_15
REMARK    8  A    between atoms: C_15  and  C_16
REMARK    9  A    between atoms: C_16  and  C_18
REMARK   10  A    between atoms: C_16  and  N_29
REMARK   11  A    between atoms: N_27  and  C_28
REMARK                            x       y       z     vdW  Elec       q    Type
REMARK                         _______ _______ _______ _____ _____    ______ ____
ROOT
ATOM      1  C   UNL     1       3.082   1.190  -7.476  0.00  0.00    -0.022 C 
ENDROOT
BRANCH   1   2
ATOM      2  C   UNL     1       3.641   2.583  -7.351  0.00  0.00    -0.059 A 
ATOM      3  C   UNL     1       2.838   3.610  -6.888  0.00  0.00    +0.004 A 
ATOM      4  C   UNL     1       3.350   4.886  -6.774  0.00  0.00    +0.023 A 
ATOM      5  C   UNL     1       4.672   5.140  -7.124  0.00  0.00    +0.033 A 
ATOM      6  C   UNL     1       5.477   4.110  -7.585  0.00  0.00    -0.026 A 
ATOM      7  C   UNL     1       4.956   2.832  -7.693  0.00  0.00    +0.007 A 
ATOM      8  C   UNL     1       6.916   4.345  -7.963  0.00  0.00    +0.038 C 
ATOM      9  C   UNL     1       7.157   5.826  -8.256  0.00  0.00    +0.024 C 
ATOM     10  C   UNL     1       6.621   6.657  -7.083  0.00  0.00    +0.105 C 
ATOM     11  N   UNL     1       5.170   6.442  -7.007  0.00  0.00    -0.333 N 
ATOM     12  C   UNL     1       4.259   7.573  -6.811  0.00  0.00    +0.129 C 
ENDBRANCH   1   2
BRANCH   1  13
ATOM     13  N   UNL     1       1.711   1.257  -7.998  0.00  0.00    +0.385 N 
ATOM     14  C   UNL     1       1.706   1.886  -9.344  0.00  0.00    -0.078 C 
ATOM     15  C   UNL     1       0.378   1.384  -9.965  0.00  0.00    -0.020 C 
ATOM     16  C   UNL     1       0.280  -0.068  -9.444  0.00  0.00    -0.020 C 
ATOM     17  C   UNL     1       1.170  -0.106  -8.188  0.00  0.00    -0.078 C 
ATOM     18  H   UNL     1       1.123   1.780  -7.367  0.00  0.00    -0.081 HD
ENDBRANCH   1  13
BRANCH   1  19
ATOM     19  C   UNL     1       3.071   0.519  -6.101  0.00  0.00    +0.095 C 
BRANCH  19  20
ATOM     20  N   UNL     1       4.448   0.348  -5.630  0.00  0.00    -0.191 NA
ATOM     21  H   UNL     1       5.188   0.444  -6.250  0.00  0.00    +0.148 HD
BRANCH  20  22
ATOM     22  S   UNL     1       4.741  -0.008  -4.039  0.00  0.00    +0.058 S 
ATOM     23  O   UNL     1       3.983   0.915  -3.270  0.00  0.00    -0.153 OA
ATOM     24  O   UNL     1       6.150  -0.136  -3.905  0.00  0.00    -0.153 OA
BRANCH  22  28
ATOM     25  C   UNL     1       2.990  -4.105  -3.239  0.00  0.00    -0.042 A 
ATOM     26  C   UNL     1       4.298  -3.984  -3.667  0.00  0.00    +0.006 A 
ATOM     27  C   UNL     1       4.833  -2.733  -3.912  0.00  0.00    +0.029 A 
ATOM     28  C   UNL     1       4.059  -1.603  -3.729  0.00  0.00    +0.105 A 
ATOM     29  C   UNL     1       2.750  -1.723  -3.301  0.00  0.00    +0.029 A 
ATOM     30  C   UNL     1       2.214  -2.974  -3.061  0.00  0.00    +0.006 A 
BRANCH  25  32
ATOM     31  C   UNL     1       1.204  -5.697  -3.890  0.00  0.00    +0.015 C 
ATOM     32  C   UNL     1       2.406  -5.468  -2.972  0.00  0.00    -0.013 C 
ATOM     33  C   UNL     1       1.958  -5.554  -1.512  0.00  0.00    +0.015 C 
ATOM     34  C   UNL     1       3.466  -6.538  -3.244  0.00  0.00    +0.015 C 
ENDBRANCH  25  32
ENDBRANCH  22  28
ENDBRANCH  20  22
ENDBRANCH  19  20
ENDBRANCH   1  19
TORSDOF 7
