REMARK  Name = ZINC49546628
REMARK  7 active torsions:
REMARK  status: ('A' for Active; 'I' for Inactive)
REMARK    1  A    between atoms: C_1  and  C_2
REMARK    2  A    between atoms: C_2  and  C_3
REMARK    3  A    between atoms: C_2  and  C_4
REMARK    4  A    between atoms: C_2  and  N_5
REMARK    5  A    between atoms: C_10  and  C_16
REMARK    6  A    between atoms: C_13  and  O_15
REMARK    7  A    between atoms: C_19  and  O_23
REMARK                            x       y       z     vdW  Elec       q    Type
REMARK                         _______ _______ _______ _____ _____    ______ ____
ROOT
ATOM      1  N   UNL     1       0.688  -0.476  -1.203  0.00  0.00    -0.241 N 
ATOM      2  C   UNL     1       0.891  -1.765  -1.551  0.00  0.00    +0.159 A 
ATOM      3  C   UNL     1       1.571  -1.761  -2.761  0.00  0.00    +0.024 A 
ATOM      4  C   UNL     1       1.775  -0.444  -3.129  0.00  0.00    +0.140 A 
ATOM      5  N   UNL     1       1.247   0.330  -2.209  0.00  0.00    -0.177 NA
ATOM      6  C   UNL     1       1.957  -3.043  -3.454  0.00  0.00    +0.063 C 
ATOM      7  C   UNL     1       0.929  -4.111  -3.065  0.00  0.00    +0.108 C 
ATOM      8  C   UNL     1       0.581  -4.039  -1.607  0.00  0.00    +0.190 C 
ATOM      9  N   UNL     1       0.553  -2.931  -0.927  0.00  0.00    -0.198 NA
ENDROOT
BRANCH   6  10
ATOM     10  C   UNL     1       3.332  -3.470  -3.008  0.00  0.00    -0.038 A 
ATOM     11  C   UNL     1       3.573  -3.737  -1.673  0.00  0.00    +0.008 A 
ATOM     12  C   UNL     1       4.833  -4.128  -1.262  0.00  0.00    +0.047 A 
ATOM     13  C   UNL     1       5.856  -4.254  -2.189  0.00  0.00    +0.135 A 
ATOM     14  C   UNL     1       5.612  -3.987  -3.529  0.00  0.00    +0.083 A 
ATOM     15  C   UNL     1       4.349  -3.601  -3.936  0.00  0.00    +0.028 A 
ATOM     16 CL   UNL     1       6.890  -4.144  -4.694  0.00  0.00    -0.080 Cl
BRANCH  13  17
ATOM     17  O   UNL     1       7.096  -4.639  -1.786  0.00  0.00    -0.505 OA
ATOM     18  H   UNL     1       7.234  -5.596  -1.798  0.00  0.00    +0.292 HD
ENDBRANCH  13  17
ENDBRANCH   6  10
BRANCH   1  20
ATOM     19  C   UNL     1      -0.019   1.526   0.010  0.00  0.00    +0.036 C 
ATOM     20  C   UNL     1       0.002  -0.004   0.002  0.00  0.00    +0.057 C 
ATOM     21  C   UNL     1       0.742  -0.511   1.242  0.00  0.00    +0.036 C 
ATOM     22  C   UNL     1      -1.433  -0.534   0.013  0.00  0.00    +0.036 C 
ENDBRANCH   1  20
BRANCH   8  23
ATOM     23  O   UNL     1       0.279  -5.187  -0.967  0.00  0.00    -0.495 OA
ATOM     24  H   UNL     1       0.064  -5.071  -0.032  0.00  0.00    +0.293 HD
ENDBRANCH   8  23
TORSDOF 4
