REMARK  Name = ZINC04191610
REMARK  13 active torsions:
REMARK  status: ('A' for Active; 'I' for Inactive)
REMARK    1  A    between atoms: C_1  and  C_2
REMARK    2  A    between atoms: C_2  and  C_3
REMARK    3  A    between atoms: C_8  and  N_9
REMARK    4  A    between atoms: N_9  and  C_10
REMARK    5  A    between atoms: C_10  and  C_12
REMARK    6  A    between atoms: C_10  and  C_13
REMARK    7  A    between atoms: N_15  and  C_16
REMARK    8  A    between atoms: C_16  and  C_17
REMARK    9  A    between atoms: C_16  and  C_18
REMARK   10  A    between atoms: C_16  and  C_19
REMARK   11  A    between atoms: C_20  and  C_22
REMARK   12  A    between atoms: C_23  and  N_30
REMARK   13  A    between atoms: C_24  and  C_27
REMARK                            x       y       z     vdW  Elec       q    Type
REMARK                         _______ _______ _______ _____ _____    ______ ____
ROOT
ATOM      1  N   UNL     1       0.626  -0.575  -0.840  0.00  0.00    -0.255 N 
ATOM      2  C   UNL     1       1.723  -1.263  -0.465  0.00  0.00    +0.261 C 
ATOM      3  O   UNL     1       1.978  -1.405   0.717  0.00  0.00    -0.269 OA
ENDROOT
BRANCH   1   9
ATOM      4  C   UNL     1       0.839   0.677  -2.893  0.00  0.00    -0.026 A 
ATOM      5  C   UNL     1       0.551   0.833  -4.235  0.00  0.00    +0.005 A 
ATOM      6  C   UNL     1      -0.248  -0.090  -4.883  0.00  0.00    +0.000 A 
ATOM      7  C   UNL     1      -0.758  -1.175  -4.192  0.00  0.00    +0.002 A 
ATOM      8  C   UNL     1      -0.470  -1.338  -2.852  0.00  0.00    +0.024 A 
ATOM      9  C   UNL     1       0.333  -0.413  -2.197  0.00  0.00    +0.041 A 
BRANCH   4  11
ATOM     10  C   UNL     1       3.176   1.291  -2.335  0.00  0.00    +0.009 C 
ATOM     11  C   UNL     1       1.706   1.687  -2.186  0.00  0.00    +0.033 C 
ENDBRANCH   4  11
ENDBRANCH   1   9
BRANCH   2  12
ATOM     12  C   UNL     1       2.607  -1.840  -1.479  0.00  0.00    +0.116 A 
ATOM     13  C   UNL     1       3.780  -2.579  -1.313  0.00  0.00    +0.076 A 
ATOM     14  C   UNL     1       4.347  -2.960  -2.529  0.00  0.00    +0.155 A 
ATOM     15  N   UNL     1       3.760  -2.608  -3.652  0.00  0.00    -0.203 NA
ATOM     16  S   UNL     1       2.471  -1.793  -3.254  0.00  0.00    +0.019 S 
BRANCH  14  17
ATOM     17  C   UNL     1       5.593  -3.749  -2.556  0.00  0.00    +0.262 C 
ATOM     18  O   UNL     1       6.131  -4.071  -1.514  0.00  0.00    -0.269 OA
ATOM     19  N   UNL     1       6.135  -4.113  -3.735  0.00  0.00    -0.324 N 
ATOM     20  H   UNL     1       5.706  -3.856  -4.566  0.00  0.00    +0.145 HD
ATOM     21  H   UNL     1       6.954  -4.632  -3.752  0.00  0.00    +0.145 HD
ENDBRANCH  14  17
BRANCH  13  22
ATOM     22  N   UNL     1       4.321  -2.900  -0.075  0.00  0.00    -0.355 N 
ATOM     23  H   UNL     1       3.881  -2.606   0.737  0.00  0.00    +0.142 HD
ATOM     24  H   UNL     1       5.140  -3.417  -0.024  0.00  0.00    +0.142 HD
ENDBRANCH  13  22
ENDBRANCH   2  12
BRANCH   1  25
ATOM     25  C   UNL     1      -0.259   0.002   0.175  0.00  0.00    +0.164 C 
ATOM     26  C   UNL     1      -0.452   1.494  -0.106  0.00  0.00    +0.038 C 
BRANCH  25  27
ATOM     27  C   UNL     1      -1.595  -0.694   0.132  0.00  0.00    +0.234 C 
ATOM     28  O   UNL     1      -1.786  -1.591  -0.663  0.00  0.00    -0.274 OA
ATOM     29  N   UNL     1      -2.577  -0.321   0.976  0.00  0.00    -0.309 N 
ATOM     30  H   UNL     1      -2.449   0.441   1.562  0.00  0.00    +0.149 HD
BRANCH  29  31
ATOM     31  C   UNL     1      -3.837  -1.067   1.008  0.00  0.00    +0.026 C 
ATOM     32  C   UNL     1      -3.557  -2.527   1.369  0.00  0.00    +0.031 C 
ATOM     33  C   UNL     1      -4.767  -0.452   2.056  0.00  0.00    +0.031 C 
ATOM     34  C   UNL     1      -4.505  -1.000  -0.367  0.00  0.00    +0.031 C 
ENDBRANCH  29  31
ENDBRANCH  25  27
ENDBRANCH   1  25
TORSDOF 8
