REMARK  Name = ZINC65456712
REMARK  5 active torsions:
REMARK  status: ('A' for Active; 'I' for Inactive)
REMARK    1  A    between atoms: C_1  and  O_2
REMARK    2  A    between atoms: O_2  and  C_3
REMARK    3  A    between atoms: C_3  and  C_4
REMARK    4  A    between atoms: C_6  and  C_9
REMARK    5  A    between atoms: C_16  and  C_22
REMARK                            x       y       z     vdW  Elec       q    Type
REMARK                         _______ _______ _______ _____ _____    ______ ____
ROOT
ATOM      1  C   UNL     1       1.970  -5.245  -0.019  0.00  0.00    +0.198 A 
ATOM      2  N   UNL     1       3.104  -5.166   0.630  0.00  0.00    -0.218 NA
ATOM      3  C   UNL     1       3.520  -6.412   0.959  0.00  0.00    +0.147 A 
ATOM      4  H   UNL     1       0.819  -6.906  -0.555  0.00  0.00    +0.167 HD
ATOM      5  C   UNL     1       2.575  -7.293   0.492  0.00  0.00    +0.049 A 
ATOM      6  N   UNL     1       1.614  -6.560  -0.121  0.00  0.00    -0.337 N 
ATOM      7  C   UNL     1       2.554  -8.782   0.630  0.00  0.00    +0.065 C 
ATOM      8  C   UNL     1       3.931  -9.393   0.632  0.00  0.00    +0.042 C 
ATOM      9  C   UNL     1       4.693  -9.162   1.908  0.00  0.00    +0.113 C 
ATOM     10  N   UNL     1       5.266  -7.849   2.034  0.00  0.00    -0.309 N 
ATOM     11  C   UNL     1       4.769  -6.690   1.667  0.00  0.00    +0.264 C 
ATOM     12  O   UNL     1       5.438  -5.717   1.956  0.00  0.00    -0.268 OA
ATOM     13  H   UNL     1       6.142  -7.815   2.448  0.00  0.00    +0.149 HD
ENDROOT
BRANCH   8  14
ATOM     14  C   UNL     1       3.799 -10.878   0.415  0.00  0.00    -0.042 A 
ATOM     15  C   UNL     1       3.073 -11.645   1.307  0.00  0.00    +0.007 A 
ATOM     16  C   UNL     1       2.951 -13.007   1.108  0.00  0.00    +0.038 A 
ATOM     17  C   UNL     1       3.557 -13.604   0.015  0.00  0.00    +0.123 A 
ATOM     18  C   UNL     1       4.284 -12.835  -0.877  0.00  0.00    +0.038 A 
ATOM     19  C   UNL     1       4.400 -11.472  -0.680  0.00  0.00    +0.007 A 
ATOM     20  F   UNL     1       3.439 -14.936  -0.179  0.00  0.00    -0.205 F 
ENDBRANCH   8  14
BRANCH   1  23
ATOM     21  C   UNL     1       0.614  -2.074  -1.042  0.00  0.00    +0.198 A 
ATOM     22  N   UNL     1       1.538  -2.835  -0.454  0.00  0.00    -0.187 NA
ATOM     23  C   UNL     1       1.202  -4.103  -0.548  0.00  0.00    +0.294 A 
ATOM     24  O   UNL     1       0.034  -4.175  -1.211  0.00  0.00    -0.330 OA
ATOM     25  N   UNL     1      -0.330  -2.837  -1.516  0.00  0.00    -0.058 NA
BRANCH  21  26
ATOM     26  C   UNL     1       0.652  -0.570  -1.138  0.00  0.00    +0.239 C 
BRANCH  26  28
ATOM     27  C   UNL     1      -0.017   1.425   0.010  0.00  0.00    +0.194 C 
ATOM     28  O   UNL     1       0.002  -0.004   0.002  0.00  0.00    -0.375 OA
ENDBRANCH  26  28
ENDBRANCH  21  26
ENDBRANCH   1  23
TORSDOF 4
