REMARK  Name = ZINC05443297
REMARK  5 active torsions:
REMARK  status: ('A' for Active; 'I' for Inactive)
REMARK    1  A    between atoms: C_1  and  C_2
REMARK    2  A    between atoms: C_5  and  C_23
REMARK    3  A    between atoms: C_6  and  C_8
REMARK    4  A    between atoms: N_9  and  N_10
REMARK    5  A    between atoms: N_21  and  O_22
REMARK                            x       y       z     vdW  Elec       q    Type
REMARK                         _______ _______ _______ _____ _____    ______ ____
ROOT
ATOM      1  N   UNL     1       0.899  -4.537   3.826  0.00  0.00    -0.204 N 
ATOM      2  C   UNL     1       1.002  -5.904   3.909  0.00  0.00    +0.253 A 
ATOM      3  N   UNL     1       0.862  -6.608   2.813  0.00  0.00    -0.212 NA
ATOM      4  C   UNL     1       0.952  -7.958   2.823  0.00  0.00    +0.080 A 
ATOM      5  C   UNL     1       0.803  -8.712   1.655  0.00  0.00    +0.028 A 
ATOM      6  C   UNL     1       0.903 -10.073   1.712  0.00  0.00    +0.002 A 
ATOM      7  C   UNL     1       1.150 -10.723   2.915  0.00  0.00    +0.001 A 
ATOM      8  C   UNL     1       1.299 -10.012   4.074  0.00  0.00    +0.015 A 
ATOM      9  C   UNL     1       1.203  -8.622   4.045  0.00  0.00    +0.068 A 
ATOM     10  C   UNL     1       1.357  -7.808   5.259  0.00  0.00    +0.295 A 
ATOM     11  O   UNL     1       1.574  -8.322   6.340  0.00  0.00    -0.264 OA
ATOM     12  N   UNL     1       1.252  -6.465   5.128  0.00  0.00    -0.111 N 
ATOM     13  H   UNL     1       1.003  -3.994   4.623  0.00  0.00    +0.177 HD
ENDROOT
BRANCH   1  15
ATOM     14  C   UNL     1       0.545  -2.635   2.513  0.00  0.00    +0.138 C 
ATOM     15  N   UNL     1       0.643  -3.927   2.591  0.00  0.00    -0.187 NA
BRANCH  14  21
ATOM     16  C   UNL     1       0.029   1.495  -0.236  0.00  0.00    +0.044 C 
ATOM     17  C   UNL     1       0.025  -0.007  -0.116  0.00  0.00    -0.050 A 
ATOM     18  C   UNL     1      -0.231  -0.788  -1.229  0.00  0.00    +0.003 A 
ATOM     19  C   UNL     1      -0.235  -2.168  -1.129  0.00  0.00    +0.004 A 
ATOM     20  C   UNL     1       0.016  -2.775   0.085  0.00  0.00    -0.042 A 
ATOM     21  C   UNL     1       0.276  -1.994   1.212  0.00  0.00    -0.002 A 
ATOM     22  C   UNL     1       0.284  -0.601   1.102  0.00  0.00    +0.013 A 
ATOM     23  C   UNL     1       0.009  -4.279   0.192  0.00  0.00    +0.044 C 
ENDBRANCH  14  21
ENDBRANCH   1  15
BRANCH  12  24
ATOM     24  O   UNL     1       1.397  -5.635   6.266  0.00  0.00    -0.421 OA
ATOM     25  H   UNL     1       1.572  -6.118   7.085  0.00  0.00    +0.326 HD
ENDBRANCH  12  24
TORSDOF 3
