REMARK  Name = ZINC25443957
REMARK  11 active torsions:
REMARK  status: ('A' for Active; 'I' for Inactive)
REMARK    1  A    between atoms: C_1  and  C_2
REMARK    2  A    between atoms: C_2  and  C_3
REMARK    3  A    between atoms: C_2  and  N_4
REMARK    4  A    between atoms: N_4  and  S_5
REMARK    5  A    between atoms: S_5  and  C_8
REMARK    6  A    between atoms: C_12  and  C_14
REMARK    7  A    between atoms: N_16  and  C_17
REMARK    8  A    between atoms: C_17  and  C_18
REMARK    9  A    between atoms: C_18  and  N_25
REMARK   10  A    between atoms: N_25  and  C_26
REMARK   11  A    between atoms: N_25  and  C_27
REMARK                            x       y       z     vdW  Elec       q    Type
REMARK                         _______ _______ _______ _____ _____    ______ ____
ROOT
ATOM      1  C   UNL     1      -2.027   1.706  -4.226  0.00  0.00    +0.245 C 
ATOM      2  O   UNL     1      -2.387   2.709  -4.811  0.00  0.00    -0.270 OA
ATOM      3  N   UNL     1      -2.651   0.533  -4.452  0.00  0.00    -0.313 N 
ATOM      4  H   UNL     1      -2.326  -0.374  -3.923  0.00  0.00    +0.149 HD
ENDROOT
BRANCH   1   9
ATOM      5  C   UNL     1       0.557   0.693  -1.697  0.00  0.00    +0.106 A 
ATOM      6  C   UNL     1       1.193   1.899  -1.462  0.00  0.00    +0.030 A 
ATOM      7  C   UNL     1       0.791   3.042  -2.130  0.00  0.00    +0.022 A 
ATOM      8  C   UNL     1      -0.257   2.987  -3.029  0.00  0.00    +0.053 A 
ATOM      9  C   UNL     1      -0.906   1.773  -3.266  0.00  0.00    +0.057 A 
ATOM     10  C   UNL     1      -0.490   0.624  -2.592  0.00  0.00    +0.043 A 
ATOM     11 CL   UNL     1      -0.764   4.423  -3.861  0.00  0.00    -0.083 Cl
BRANCH   5  12
ATOM     12  S   UNL     1       1.083  -0.758  -0.846  0.00  0.00    +0.059 S 
ATOM     13  O   UNL     1      -0.028  -1.643  -0.829  0.00  0.00    -0.153 OA
ATOM     14  O   UNL     1       1.727  -0.320   0.343  0.00  0.00    -0.153 OA
BRANCH  12  15
ATOM     15  N   UNL     1       2.248  -1.478  -1.778  0.00  0.00    -0.187 NA
ATOM     16  H   UNL     1       1.997  -2.388  -2.343  0.00  0.00    +0.148 HD
BRANCH  15  18
ATOM     17  C   UNL     1       4.559  -1.275  -1.005  0.00  0.00    +0.025 C 
ATOM     18  C   UNL     1       3.520  -0.792  -2.019  0.00  0.00    +0.070 C 
ATOM     19  C   UNL     1       4.006  -1.104  -3.436  0.00  0.00    +0.025 C 
ENDBRANCH  15  18
ENDBRANCH  12  15
ENDBRANCH   5  12
ENDBRANCH   1   9
BRANCH   3  20
ATOM     20  C   UNL     1      -3.763   0.467  -5.404  0.00  0.00    +0.092 C 
BRANCH  20  21
ATOM     21  C   UNL     1      -4.201  -0.989  -5.576  0.00  0.00    -0.050 C 
ATOM     22  C   UNL     1      -4.569  -1.240  -7.013  0.00  0.00    -0.010 C 
ATOM     23  C   UNL     1      -5.023   0.045  -7.736  0.00  0.00    -0.001 C 
ATOM     24  C   UNL     1      -5.934   0.934  -6.868  0.00  0.00    -0.000 C 
ATOM     25  C   UNL     1      -6.948   0.136  -6.094  0.00  0.00    -0.000 C 
ATOM     26  C   UNL     1      -6.376  -0.154  -4.691  0.00  0.00    -0.001 C 
ATOM     27  C   UNL     1      -5.436  -1.266  -4.694  0.00  0.00    -0.010 C 
BRANCH  21  28
ATOM     28  N   UNL     1      -3.104  -1.884  -5.184  0.00  0.00    +0.381 N 
ATOM     29  C   UNL     1      -3.526  -3.290  -5.240  0.00  0.00    -0.096 C 
ATOM     30  C   UNL     1      -1.916  -1.657  -6.018  0.00  0.00    -0.096 C 
ATOM     31  H   UNL     1      -2.835  -1.653  -4.142  0.00  0.00    -0.082 HD
ENDBRANCH  21  28
ENDBRANCH  20  21
ENDBRANCH   3  20
TORSDOF 7
