REMARK  Name = ZINC12389583
REMARK  2 active torsions:
REMARK  status: ('A' for Active; 'I' for Inactive)
REMARK    1  A    between atoms: C_9  and  C_12
REMARK    2  A    between atoms: C_16  and  C_20
REMARK                            x       y       z     vdW  Elec       q    Type
REMARK                         _______ _______ _______ _____ _____    ______ ____
ROOT
ATOM      1  C   UNL     1      -0.083   1.115  -2.478  0.00  0.00    +0.263 C 
ATOM      2  O   UNL     1      -0.655   0.347  -3.223  0.00  0.00    -0.271 OA
ATOM      3  N   UNL     1       1.164   1.534  -2.771  0.00  0.00    -0.263 N 
ATOM      4  C   UNL     1       1.796   1.086  -3.928  0.00  0.00    +0.197 A 
ATOM      5  C   UNL     1       3.143   1.462  -4.373  0.00  0.00    +0.156 A 
ATOM      6  N   UNL     1       3.393   0.842  -5.496  0.00  0.00    -0.047 NA
ATOM      7  O   UNL     1       2.253   0.068  -5.826  0.00  0.00    -0.240 OA
ATOM      8  N   UNL     1       1.290   0.265  -4.805  0.00  0.00    -0.033 NA
ATOM      9  H   UNL     1       1.621   2.148  -2.175  0.00  0.00    +0.156 HD
ENDROOT
BRANCH   1  18
ATOM     10  C   UNL     1      -4.104   1.367   2.426  0.00  0.00    +0.004 A 
ATOM     11  C   UNL     1      -4.805   1.143   1.256  0.00  0.00    +0.004 A 
ATOM     12  C   UNL     1      -4.133   1.052   0.052  0.00  0.00    +0.049 A 
ATOM     13  C   UNL     1      -2.753   1.186   0.015  0.00  0.00    +0.163 A 
ATOM     14  C   UNL     1      -2.049   1.414   1.191  0.00  0.00    +0.162 A 
ATOM     15  C   UNL     1      -2.730   1.503   2.396  0.00  0.00    +0.049 A 
ATOM     16  O   UNL     1      -0.694   1.553   1.177  0.00  0.00    -0.484 OA
ATOM     17  C   UNL     1      -0.013   1.086   0.008  0.00  0.00    +0.283 C 
ATOM     18  C   UNL     1      -0.767   1.600  -1.226  0.00  0.00    +0.296 C 
ATOM     19  O   UNL     1      -2.104   1.091  -1.178  0.00  0.00    -0.473 OA
ENDBRANCH   1  18
BRANCH   5  20
ATOM     20  C   UNL     1       4.065   2.385  -3.666  0.00  0.00    +0.007 A 
ATOM     21  C   UNL     1       3.563   3.489  -2.979  0.00  0.00    +0.010 A 
ATOM     22  C   UNL     1       4.430   4.337  -2.326  0.00  0.00    +0.004 A 
ATOM     23  C   UNL     1       5.801   4.109  -2.353  0.00  0.00    -0.044 A 
ATOM     24  C   UNL     1       6.303   3.018  -3.030  0.00  0.00    -0.044 A 
ATOM     25  C   UNL     1       5.437   2.158  -3.689  0.00  0.00    +0.014 A 
ATOM     26  C   UNL     1       7.775   2.704  -3.083  0.00  0.00    +0.035 C 
ATOM     27  C   UNL     1       8.601   3.932  -2.705  0.00  0.00    +0.005 C 
ATOM     28  C   UNL     1       8.067   4.485  -1.379  0.00  0.00    +0.005 C 
ATOM     29  C   UNL     1       6.687   5.090  -1.630  0.00  0.00    +0.035 C 
ENDBRANCH   5  20
TORSDOF 2
