REMARK  Name = ZINC32089718
REMARK  4 active torsions:
REMARK  status: ('A' for Active; 'I' for Inactive)
REMARK    1  A    between atoms: C_6  and  C_7
REMARK    2  A    between atoms: C_12  and  C_18
REMARK    3  A    between atoms: C_15  and  O_17
REMARK    4  A    between atoms: N_20  and  C_21
REMARK                            x       y       z     vdW  Elec       q    Type
REMARK                         _______ _______ _______ _____ _____    ______ ____
ROOT
ATOM      1  C   UNL     1      -1.272  -0.786   0.005  0.00  0.00    +0.095 A 
ATOM      2  C   UNL     1      -1.395  -2.189   0.015  0.00  0.00    +0.078 A 
ATOM      3  C   UNL     1      -2.717  -2.485   0.029  0.00  0.00    +0.156 A 
ATOM      4  N   UNL     1      -3.408  -1.299   0.023  0.00  0.00    -0.234 N 
ATOM      5  N   UNL     1      -2.484  -0.261   0.016  0.00  0.00    -0.169 NA
ATOM      6  C   UNL     1      -4.873  -1.254   0.026  0.00  0.00    +0.204 C 
ATOM      7  C   UNL     1      -5.389  -2.510  -0.684  0.00  0.00    +0.131 C 
ATOM      8  C   UNL     1      -4.619  -3.730  -0.268  0.00  0.00    +0.191 C 
ATOM      9  N   UNL     1      -3.357  -3.692   0.048  0.00  0.00    -0.198 NA
ENDROOT
BRANCH   1  15
ATOM     10  C   UNL     1      -0.015   1.367  -0.014  0.00  0.00    +0.013 A 
ATOM     11  C   UNL     1       1.173   2.070  -0.028  0.00  0.00    +0.039 A 
ATOM     12  C   UNL     1       2.381   1.392  -0.038  0.00  0.00    +0.123 A 
ATOM     13  C   UNL     1       2.403   0.007  -0.035  0.00  0.00    +0.039 A 
ATOM     14  C   UNL     1       1.220  -0.704  -0.021  0.00  0.00    +0.013 A 
ATOM     15  C   UNL     1       0.003  -0.026  -0.011  0.00  0.00    +0.002 A 
ATOM     16  F   UNL     1       3.542   2.084  -0.052  0.00  0.00    -0.205 F 
ENDBRANCH   1  15
BRANCH   6  17
ATOM     17  C   UNL     1      -5.379  -1.226   1.445  0.00  0.00    +0.242 C 
ATOM     18  O   UNL     1      -4.594  -1.242   2.369  0.00  0.00    -0.273 OA
ATOM     19  N   UNL     1      -6.704  -1.183   1.687  0.00  0.00    -0.283 N 
ATOM     20  H   UNL     1      -7.329  -1.089   0.951  0.00  0.00    +0.155 HD
BRANCH  19  21
ATOM     21  C   UNL     1      -7.179  -1.274   3.001  0.00  0.00    +0.052 A 
ATOM     22  C   UNL     1      -6.414  -1.902   3.975  0.00  0.00    +0.026 A 
ATOM     23  C   UNL     1      -6.885  -1.991   5.271  0.00  0.00    +0.022 A 
ATOM     24  C   UNL     1      -8.117  -1.454   5.599  0.00  0.00    +0.042 A 
ATOM     25  C   UNL     1      -8.882  -0.828   4.631  0.00  0.00    +0.041 A 
ATOM     26  C   UNL     1      -8.414  -0.731   3.334  0.00  0.00    +0.064 A 
ATOM     27 CL   UNL     1      -9.370   0.062   2.122  0.00  0.00    -0.082 Cl
ATOM     28 CL   UNL     1      -8.706  -1.569   7.229  0.00  0.00    -0.083 Cl
ENDBRANCH  19  21
ENDBRANCH   6  17
BRANCH   8  29
ATOM     29  O   UNL     1      -5.263  -4.915  -0.220  0.00  0.00    -0.495 OA
ATOM     30  H   UNL     1      -4.704  -5.654   0.056  0.00  0.00    +0.293 HD
ENDBRANCH   8  29
TORSDOF 4
