REMARK  Name = ZINC19794799
REMARK  7 active torsions:
REMARK  status: ('A' for Active; 'I' for Inactive)
REMARK    1  A    between atoms: C_1  and  C_2
REMARK    2  A    between atoms: C_2  and  O_3
REMARK    3  A    between atoms: O_3  and  C_4
REMARK    4  A    between atoms: C_6  and  C_14
REMARK    5  A    between atoms: C_8  and  N_11
REMARK    6  A    between atoms: C_9  and  O_10
REMARK    7  A    between atoms: C_19  and  C_24
REMARK                            x       y       z     vdW  Elec       q    Type
REMARK                         _______ _______ _______ _____ _____    ______ ____
ROOT
ATOM      1  C   UNL     1       0.629   3.269   1.846  0.00  0.00    +0.136 C 
ATOM      2  C   UNL     1       1.681   2.712   0.916  0.00  0.00    +0.036 C 
ATOM      3  C   UNL     1       1.506   1.713   0.037  0.00  0.00    +0.017 C 
ATOM      4  C   UNL     1       2.646   1.286  -0.874  0.00  0.00    +0.059 C 
ATOM      5  C   UNL     1       3.980   1.450  -0.146  0.00  0.00    +0.032 C 
ATOM      6  C   UNL     1       4.130   2.930   0.223  0.00  0.00    +0.088 C 
ATOM      7  C   UNL     1       2.941   3.345   1.036  0.00  0.00    +0.163 C 
ATOM      8  O   UNL     1       3.063   4.259   1.827  0.00  0.00    -0.292 OA
ATOM      9  N   UNL     1       0.354   1.015  -0.139  0.00  0.00    -0.316 N 
ATOM     10  C   UNL     1      -0.906   1.588  -0.277  0.00  0.00    +0.052 A 
ATOM     11  C   UNL     1      -1.656   1.462  -1.432  0.00  0.00    +0.025 A 
ATOM     12  C   UNL     1      -2.928   2.006  -1.479  0.00  0.00    +0.002 A 
ATOM     13  C   UNL     1      -3.442   2.668  -0.379  0.00  0.00    +0.002 A 
ATOM     14  C   UNL     1      -2.680   2.815   0.783  0.00  0.00    +0.025 A 
ATOM     15  C   UNL     1      -1.396   2.292   0.819  0.00  0.00    +0.049 A 
ATOM     16  N   UNL     1      -0.575   2.469   1.929  0.00  0.00    -0.331 N 
ATOM     17  H   UNL     1       0.378  -0.084  -0.180  0.00  0.00    +0.152 HD
ATOM     18  H   UNL     1      -0.852   1.990   2.879  0.00  0.00    +0.147 HD
ENDROOT
BRANCH   1  21
ATOM     19  C   UNL     1       0.160   7.017   1.745  0.00  0.00    +0.164 A 
ATOM     20  C   UNL     1       0.503   5.746   2.178  0.00  0.00    +0.055 A 
ATOM     21  C   UNL     1       0.255   4.651   1.373  0.00  0.00    -0.017 A 
ATOM     22  C   UNL     1      -0.332   4.819   0.133  0.00  0.00    +0.042 A 
ATOM     23  C   UNL     1      -0.682   6.083  -0.304  0.00  0.00    +0.171 A 
ATOM     24  C   UNL     1      -0.436   7.186   0.498  0.00  0.00    +0.189 A 
BRANCH  23  25
ATOM     25  N   UNL     1      -1.316   6.260  -1.630  0.00  0.00    +0.060 N 
ATOM     26  O   UNL     1      -1.533   5.290  -2.335  0.00  0.00    -0.126 OA
ATOM     27  O   UNL     1      -1.621   7.374  -2.016  0.00  0.00    -0.126 OA
ENDBRANCH  23  25
BRANCH  24  28
ATOM     28  O   UNL     1      -0.775   8.431   0.069  0.00  0.00    -0.502 OA
ATOM     29  H   UNL     1      -1.246   8.563  -0.917  0.00  0.00    +0.292 HD
ENDBRANCH  24  28
BRANCH  19  30
ATOM     30  O   UNL     1       0.404   8.096   2.535  0.00  0.00    -0.488 OA
BRANCH  30  32
ATOM     31  C   UNL     1       1.213   9.171   4.543  0.00  0.00    +0.048 C 
ATOM     32  C   UNL     1       1.018   7.847   3.801  0.00  0.00    +0.226 C 
ENDBRANCH  30  32
ENDBRANCH  19  30
ENDBRANCH   1  21
BRANCH   5  33
ATOM     33  C   UNL     1       5.110   1.032  -1.051  0.00  0.00    -0.044 A 
ATOM     34  C   UNL     1       5.285   1.655  -2.272  0.00  0.00    +0.004 A 
ATOM     35  C   UNL     1       6.325   1.274  -3.100  0.00  0.00    +0.000 A 
ATOM     36  C   UNL     1       7.184   0.264  -2.710  0.00  0.00    +0.000 A 
ATOM     37  C   UNL     1       7.006  -0.363  -1.491  0.00  0.00    +0.000 A 
ATOM     38  C   UNL     1       5.969   0.021  -0.661  0.00  0.00    +0.004 A 
ENDBRANCH   5  33
TORSDOF 6
