REMARK  Name = ZINC13138052
REMARK  9 active torsions:
REMARK  status: ('A' for Active; 'I' for Inactive)
REMARK    1  A    between atoms: C_1  and  C_2
REMARK    2  A    between atoms: C_5  and  S_8
REMARK    3  A    between atoms: S_8  and  N_11
REMARK    4  A    between atoms: N_11  and  C_12
REMARK    5  A    between atoms: C_12  and  C_13
REMARK    6  A    between atoms: C_13  and  C_15
REMARK    7  A    between atoms: C_13  and  N_64
REMARK    8  A    between atoms: C_23  and  C_26
REMARK    9  A    between atoms: C_26  and  C_27
REMARK                            x       y       z     vdW  Elec       q    Type
REMARK                         _______ _______ _______ _____ _____    ______ ____
ROOT
ATOM      1  C   UNL     1       2.244   4.895   3.711  0.00  0.00    -0.022 C 
ENDROOT
BRANCH   1   7
ATOM      2  C   UNL     1       0.215   4.043   4.721  0.00  0.00    -0.078 C 
ATOM      3  C   UNL     1      -1.022   4.439   5.530  0.00  0.00    -0.015 C 
ATOM      4  C   UNL     1      -0.586   4.920   6.917  0.00  0.00    -0.010 C 
ATOM      5  C   UNL     1       0.386   6.093   6.759  0.00  0.00    -0.015 C 
ATOM      6  C   UNL     1       1.582   5.649   5.914  0.00  0.00    -0.078 C 
ATOM      7  N   UNL     1       1.098   5.221   4.585  0.00  0.00    +0.385 N 
ATOM      8  H   UNL     1       0.564   5.990   4.162  0.00  0.00    -0.081 HD
BRANCH   4   9
ATOM      9  C   UNL     1      -1.813   5.375   7.709  0.00  0.00    +0.038 C 
BRANCH   9  10
ATOM     10  C   UNL     1      -2.710   4.192   7.969  0.00  0.00    -0.047 A 
ATOM     11  C   UNL     1      -3.706   3.869   7.067  0.00  0.00    +0.003 A 
ATOM     12  C   UNL     1      -4.526   2.781   7.304  0.00  0.00    +0.000 A 
ATOM     13  C   UNL     1      -4.355   2.022   8.447  0.00  0.00    +0.000 A 
ATOM     14  C   UNL     1      -3.362   2.349   9.351  0.00  0.00    +0.000 A 
ATOM     15  C   UNL     1      -2.540   3.434   9.113  0.00  0.00    +0.003 A 
ENDBRANCH   9  10
ENDBRANCH   4   9
ENDBRANCH   1   7
BRANCH   1  16
ATOM     16  C   UNL     1       3.026   3.736   4.273  0.00  0.00    -0.060 A 
ATOM     17  C   UNL     1       2.478   2.467   4.270  0.00  0.00    +0.002 A 
ATOM     18  C   UNL     1       3.197   1.403   4.782  0.00  0.00    +0.000 A 
ATOM     19  C   UNL     1       4.460   1.610   5.305  0.00  0.00    +0.000 A 
ATOM     20  C   UNL     1       5.005   2.880   5.312  0.00  0.00    +0.000 A 
ATOM     21  C   UNL     1       4.288   3.943   4.797  0.00  0.00    +0.002 A 
ENDBRANCH   1  16
BRANCH   1  22
ATOM     22  C   UNL     1       1.719   4.530   2.321  0.00  0.00    +0.095 C 
BRANCH  22  23
ATOM     23  N   UNL     1       0.860   5.609   1.825  0.00  0.00    -0.191 NA
ATOM     24  H   UNL     1       0.531   6.286   2.436  0.00  0.00    +0.148 HD
BRANCH  23  25
ATOM     25  S   UNL     1       0.453   5.671   0.221  0.00  0.00    +0.058 S 
ATOM     26  O   UNL     1       1.661   5.518  -0.511  0.00  0.00    -0.153 OA
ATOM     27  O   UNL     1      -0.397   6.799   0.061  0.00  0.00    -0.153 OA
BRANCH  25  32
ATOM     28  C   UNL     1      -2.907   0.800  -0.959  0.00  0.00    +0.044 C 
ATOM     29  C   UNL     1      -2.068   2.017  -0.664  0.00  0.00    -0.050 A 
ATOM     30  C   UNL     1      -2.672   3.190  -0.253  0.00  0.00    +0.005 A 
ATOM     31  C   UNL     1      -1.902   4.306   0.017  0.00  0.00    +0.029 A 
ATOM     32  C   UNL     1      -0.528   4.248  -0.123  0.00  0.00    +0.105 A 
ATOM     33  C   UNL     1       0.076   3.075  -0.534  0.00  0.00    +0.029 A 
ATOM     34  C   UNL     1      -0.694   1.959  -0.804  0.00  0.00    +0.005 A 
ENDBRANCH  25  32
ENDBRANCH  23  25
ENDBRANCH  22  23
ENDBRANCH   1  22
TORSDOF 8
