REMARK  Name = ZINC08685328
REMARK  12 active torsions:
REMARK  status: ('A' for Active; 'I' for Inactive)
REMARK    1  A    between atoms: C_1  and  C_2
REMARK    2  A    between atoms: C_2  and  N_51
REMARK    3  A    between atoms: C_3  and  C_4
REMARK    4  A    between atoms: C_3  and  N_51
REMARK    5  A    between atoms: C_5  and  C_6
REMARK    6  A    between atoms: C_5  and  N_51
REMARK    7  A    between atoms: C_6  and  N_53
REMARK    8  A    between atoms: C_7  and  C_9
REMARK    9  A    between atoms: C_7  and  C_15
REMARK   10  A    between atoms: C_7  and  N_53
REMARK   11  A    between atoms: N_17  and  C_18
REMARK   12  A    between atoms: C_21  and  N_25
REMARK                            x       y       z     vdW  Elec       q    Type
REMARK                         _______ _______ _______ _____ _____    ______ ____
ROOT
ATOM      1  C   UNL     1       3.729  -0.964   0.197  0.00  0.00    +0.047 C 
ENDROOT
BRANCH   1   2
ATOM      2  C   UNL     1       4.467  -0.502   1.427  0.00  0.00    -0.053 A 
ATOM      3  C   UNL     1       4.130  -1.013   2.667  0.00  0.00    +0.002 A 
ATOM      4  C   UNL     1       4.810  -0.592   3.795  0.00  0.00    +0.000 A 
ATOM      5  C   UNL     1       5.819   0.346   3.684  0.00  0.00    +0.000 A 
ATOM      6  C   UNL     1       6.152   0.860   2.445  0.00  0.00    +0.000 A 
ATOM      7  C   UNL     1       5.476   0.436   1.317  0.00  0.00    +0.002 A 
ENDBRANCH   1   2
BRANCH   1   8
ATOM      8  C   UNL     1       2.410  -0.242   0.101  0.00  0.00    +0.207 C 
ATOM      9  O   UNL     1       1.373  -0.870   0.104  0.00  0.00    -0.277 OA
ATOM     10  N   UNL     1       2.383   1.103   0.011  0.00  0.00    -0.286 N 
ATOM     11  H   UNL     1       3.212   1.601  -0.057  0.00  0.00    +0.155 HD
BRANCH  10  12
ATOM     12  C   UNL     1       1.158   1.780   0.016  0.00  0.00    +0.048 A 
ATOM     13  C   UNL     1       0.044   1.208  -0.585  0.00  0.00    +0.026 A 
ATOM     14  C   UNL     1      -1.162   1.881  -0.582  0.00  0.00    +0.034 A 
ATOM     15  C   UNL     1      -1.264   3.118   0.027  0.00  0.00    +0.127 A 
ATOM     16  C   UNL     1      -0.158   3.691   0.627  0.00  0.00    +0.049 A 
ATOM     17  C   UNL     1       1.054   3.025   0.623  0.00  0.00    +0.041 A 
ATOM     18 BR   UNL     1       2.567   3.809   1.444  0.00  0.00    -0.048 Br
BRANCH  15  19
ATOM     19  N   UNL     1      -2.560   3.834   0.032  0.00  0.00    +0.056 N 
ATOM     20  O   UNL     1      -2.651   4.926   0.565  0.00  0.00    -0.126 OA
ATOM     21  O   UNL     1      -3.535   3.331  -0.496  0.00  0.00    -0.126 OA
ENDBRANCH  15  19
ENDBRANCH  10  12
ENDBRANCH   1   8
BRANCH   1  22
ATOM     22  N   UNL     1       3.482  -2.415   0.287  0.00  0.00    +0.388 N 
ATOM     23  H   UNL     1       3.304  -2.668   1.266  0.00  0.00    -0.084 HD
ATOM     24  H   UNL     1       2.661  -2.655  -0.282  0.00  0.00    -0.084 HD
BRANCH  22  25
ATOM     25  C   UNL     1       4.652  -3.166  -0.206  0.00  0.00    -0.100 C 
BRANCH  25  26
ATOM     26  C   UNL     1       4.365  -4.666  -0.100  0.00  0.00    -0.098 C 
BRANCH  26  27
ATOM     27  N   UNL     1       5.533  -5.411  -0.615  0.00  0.00    +0.378 N 
ATOM     28  H   UNL     1       5.775  -5.051  -1.546  0.00  0.00    -0.082 HD
BRANCH  27  30
ATOM     29  C   UNL     1       6.394  -5.816   1.667  0.00  0.00    -0.017 C 
ATOM     30  C   UNL     1       6.689  -5.225   0.286  0.00  0.00    -0.082 C 
ENDBRANCH  27  30
BRANCH  27  31
ATOM     31  C   UNL     1       5.206  -6.848  -0.727  0.00  0.00    -0.082 C 
ATOM     32  C   UNL     1       6.281  -7.533  -1.573  0.00  0.00    -0.017 C 
ENDBRANCH  27  31
ENDBRANCH  26  27
ENDBRANCH  25  26
ENDBRANCH  22  25
ENDBRANCH   1  22
TORSDOF 10
