REMARK  Name = ZINC03453390
REMARK  10 active torsions:
REMARK  status: ('A' for Active; 'I' for Inactive)
REMARK    1  A    between atoms: C_1  and  C_2
REMARK    2  A    between atoms: C_2  and  C_24
REMARK    3  A    between atoms: N_5  and  C_9
REMARK    4  A    between atoms: C_9  and  C_10
REMARK    5  A    between atoms: N_12  and  C_13
REMARK    6  A    between atoms: C_14  and  C_21
REMARK    7  A    between atoms: C_27  and  C_30
REMARK    8  A    between atoms: C_30  and  C_31
REMARK    9  A    between atoms: C_30  and  C_32
REMARK   10  A    between atoms: C_30  and  C_33
REMARK                            x       y       z     vdW  Elec       q    Type
REMARK                         _______ _______ _______ _____ _____    ______ ____
ROOT
ATOM      1  C   UNL     1       1.308  -2.917   1.089  0.00  0.00    +0.047 C 
ATOM      2  C   UNL     1       0.037  -2.202   0.624  0.00  0.00    +0.135 C 
ATOM      3  C   UNL     1       0.023  -0.767   1.113  0.00  0.00    +0.251 C 
ATOM      4  O   UNL     1       0.030  -0.385   2.263  0.00  0.00    -0.272 OA
ATOM      5  N   UNL     1       0.002  -0.004   0.002  0.00  0.00    -0.215 N 
ATOM      6  C   UNL     1      -0.004  -0.750  -1.109  0.00  0.00    +0.310 C 
ATOM      7  O   UNL     1      -0.026  -0.287  -2.233  0.00  0.00    -0.252 OA
ATOM      8  N   UNL     1       0.021  -2.068  -0.843  0.00  0.00    -0.281 N 
ATOM      9  H   UNL     1       0.023  -2.790  -1.491  0.00  0.00    +0.152 HD
ENDROOT
BRANCH   2  10
ATOM     10  C   UNL     1      -1.188  -2.937   1.103  0.00  0.00    -0.015 A 
ATOM     11  C   UNL     1      -1.781  -2.585   2.301  0.00  0.00    +0.006 A 
ATOM     12  C   UNL     1      -2.907  -3.257   2.739  0.00  0.00    +0.004 A 
ATOM     13  C   UNL     1      -3.436  -4.286   1.982  0.00  0.00    -0.042 A 
ATOM     14  C   UNL     1      -2.840  -4.641   0.786  0.00  0.00    +0.004 A 
ATOM     15  C   UNL     1      -1.716  -3.967   0.347  0.00  0.00    +0.006 A 
BRANCH  13  16
ATOM     16  C   UNL     1      -4.660  -5.022   2.461  0.00  0.00    -0.013 C 
ATOM     17  C   UNL     1      -4.328  -6.505   2.639  0.00  0.00    +0.015 C 
ATOM     18  C   UNL     1      -5.116  -4.437   3.800  0.00  0.00    +0.015 C 
ATOM     19  C   UNL     1      -5.782  -4.871   1.431  0.00  0.00    +0.015 C 
ENDBRANCH  13  16
ENDBRANCH   2  10
BRANCH   5  20
ATOM     20  C   UNL     1      -0.018   1.461   0.010  0.00  0.00    +0.214 C 
BRANCH  20  21
ATOM     21  C   UNL     1       1.396   1.982  -0.001  0.00  0.00    +0.236 C 
ATOM     22  O   UNL     1       2.328   1.207  -0.014  0.00  0.00    -0.274 OA
ATOM     23  N   UNL     1       1.624   3.311   0.004  0.00  0.00    -0.278 N 
ATOM     24  H   UNL     1       0.879   3.931   0.015  0.00  0.00    +0.155 HD
BRANCH  23  25
ATOM     25  C   UNL     1       2.925   3.791  -0.005  0.00  0.00    +0.084 A 
ATOM     26  C   UNL     1       3.357   5.106  -0.008  0.00  0.00    +0.068 A 
ATOM     27  C   UNL     1       4.800   5.345  -0.014  0.00  0.00    -0.023 A 
ATOM     28  C   UNL     1       5.562   4.237  -0.029  0.00  0.00    -0.004 A 
ATOM     29  S   UNL     1       4.404   2.891  -0.025  0.00  0.00    -0.077 S 
ATOM     30  C   UNL     1       7.031   4.563  -0.045  0.00  0.00    +0.043 C 
ATOM     31  C   UNL     1       7.096   6.045  -0.475  0.00  0.00    +0.010 C 
ATOM     32  C   UNL     1       5.720   6.566  -0.014  0.00  0.00    +0.037 C 
BRANCH  26  33
ATOM     33  C   UNL     1       2.402   6.219  -0.001  0.00  0.00    +0.244 C 
ATOM     34  O   UNL     1       2.014   6.681   1.056  0.00  0.00    -0.270 OA
ATOM     35  N   UNL     1       1.955   6.730  -1.164  0.00  0.00    -0.325 N 
ATOM     36  H   UNL     1       2.264   6.362  -2.007  0.00  0.00    +0.145 HD
ATOM     37  H   UNL     1       1.323   7.467  -1.159  0.00  0.00    +0.145 HD
ENDBRANCH  26  33
ENDBRANCH  23  25
ENDBRANCH  20  21
ENDBRANCH   5  20
TORSDOF 6
