REMARK  Name = ZINC13567013
REMARK  7 active torsions:
REMARK  status: ('A' for Active; 'I' for Inactive)
REMARK    1  A    between atoms: C_3  and  O_15
REMARK    2  A    between atoms: C_4  and  N_12
REMARK    3  A    between atoms: C_6  and  S_7
REMARK    4  A    between atoms: S_7  and  C_8
REMARK    5  A    between atoms: O_15  and  C_16
REMARK    6  A    between atoms: C_16  and  C_17
REMARK    7  A    between atoms: N_19  and  C_20
REMARK                            x       y       z     vdW  Elec       q    Type
REMARK                         _______ _______ _______ _____ _____    ______ ____
ROOT
ATOM      1  C   UNL     1       1.217   0.550   2.552  0.00  0.00    +0.019 A 
ATOM      2  C   UNL     1       1.969   0.035   3.589  0.00  0.00    +0.049 A 
ATOM      3  C   UNL     1       1.604   0.287   4.903  0.00  0.00    +0.151 A 
ATOM      4  C   UNL     1       0.482   1.057   5.177  0.00  0.00    +0.169 A 
ATOM      5  C   UNL     1      -0.267   1.579   4.141  0.00  0.00    +0.051 A 
ATOM      6  C   UNL     1       0.095   1.322   2.825  0.00  0.00    +0.018 A 
ENDROOT
BRANCH   4   7
ATOM      7  N   UNL     1       0.094   1.325   6.580  0.00  0.00    +0.060 N 
ATOM      8  O   UNL     1      -0.890   2.001   6.820  0.00  0.00    -0.126 OA
ATOM      9  O   UNL     1       0.758   0.869   7.493  0.00  0.00    -0.126 OA
ENDBRANCH   4   7
BRANCH   6  10
ATOM     10  S   UNL     1      -0.866   1.980   1.502  0.00  0.00    -0.016 S 
BRANCH  10  11
ATOM     11  C   UNL     1      -0.017   1.395   0.010  0.00  0.00    +0.448 C 
ATOM     12  F   UNL     1       0.002  -0.004   0.002  0.00  0.00    -0.160 F 
ATOM     13  F   UNL     1       1.296   1.879  -0.000  0.00  0.00    -0.160 F 
ATOM     14  F   UNL     1      -0.694   1.858  -1.124  0.00  0.00    -0.160 F 
ENDBRANCH  10  11
ENDBRANCH   6  10
BRANCH   3  15
ATOM     15  O   UNL     1       2.345  -0.222   5.924  0.00  0.00    -0.480 OA
BRANCH  15  16
ATOM     16  C   UNL     1       3.486  -1.006   5.569  0.00  0.00    +0.324 C 
BRANCH  16  17
ATOM     17  C   UNL     1       4.178  -1.480   6.821  0.00  0.00    +0.251 C 
ATOM     18  O   UNL     1       3.737  -1.177   7.910  0.00  0.00    -0.272 OA
ATOM     19  N   UNL     1       5.286  -2.242   6.731  0.00  0.00    -0.308 N 
ATOM     20  H   UNL     1       5.638  -2.484   5.861  0.00  0.00    +0.149 HD
BRANCH  19  21
ATOM     21  C   UNL     1       5.958  -2.703   7.948  0.00  0.00    +0.095 C 
ATOM     22  C   UNL     1       6.951  -1.632   8.431  0.00  0.00    +0.046 C 
ATOM     23  C   UNL     1       7.886  -2.228   9.510  0.00  0.00    +0.168 C 
ATOM     24  S   UNL     1       7.936  -4.011   9.062  0.00  0.00    -0.029 S 
ATOM     25  O   UNL     1       7.376  -4.770  10.125  0.00  0.00    -0.174 OA
ATOM     26  O   UNL     1       9.234  -4.332   8.582  0.00  0.00    -0.174 OA
ATOM     27  C   UNL     1       6.758  -4.003   7.646  0.00  0.00    +0.188 C 
ENDBRANCH  19  21
ENDBRANCH  16  17
ENDBRANCH  15  16
ENDBRANCH   3  15
TORSDOF 7
