REMARK  Name = ZINC65420383
REMARK  7 active torsions:
REMARK  status: ('A' for Active; 'I' for Inactive)
REMARK    1  A    between atoms: C_1  and  C_2
REMARK    2  A    between atoms: C_2  and  C_3
REMARK    3  A    between atoms: C_3  and  C_4
REMARK    4  A    between atoms: C_6  and  C_16
REMARK    5  A    between atoms: C_21  and  C_22
REMARK    6  A    between atoms: C_24  and  C_29
REMARK    7  A    between atoms: C_27  and  C_28
REMARK                            x       y       z     vdW  Elec       q    Type
REMARK                         _______ _______ _______ _____ _____    ______ ____
ROOT
ATOM      1  C   UNL     1       1.043  -2.085  -2.114  0.00  0.00    +0.066 C 
ATOM      2  C   UNL     1       0.050  -2.844  -2.517  0.00  0.00    +0.001 C 
ATOM      3  C   UNL     1      -1.187  -2.576  -3.327  0.00  0.00    +0.043 C 
ATOM      4  C   UNL     1      -1.034  -3.398  -4.617  0.00  0.00    +0.105 C 
ATOM      5  C   UNL     1      -0.366  -4.711  -4.368  0.00  0.00    +0.215 C 
ATOM      6  O   UNL     1      -0.513  -5.555  -5.226  0.00  0.00    -0.276 OA
ATOM      7  N   UNL     1       0.374  -5.068  -3.316  0.00  0.00    -0.289 N 
ATOM      8  C   UNL     1       0.449  -4.257  -2.108  0.00  0.00    +0.243 C 
ATOM      9  N   UNL     1       1.803  -4.067  -1.593  0.00  0.00    -0.160 NA
ATOM     10  N   UNL     1       2.042  -2.850  -1.603  0.00  0.00    -0.157 NA
ATOM     11  H   UNL     1       0.878  -5.896  -3.357  0.00  0.00    +0.151 HD
ENDROOT
BRANCH   3  12
ATOM     12  C   UNL     1      -2.430  -3.026  -2.557  0.00  0.00    +0.091 C 
ATOM     13  C   UNL     1      -2.507  -4.538  -2.503  0.00  0.00    +0.118 C 
ATOM     14  N   UNL     1      -3.603  -4.863  -3.108  0.00  0.00    -0.161 NA
ATOM     15  N   UNL     1      -4.300  -3.756  -3.579  0.00  0.00    -0.153 NA
ATOM     16  C   UNL     1      -3.691  -2.632  -3.300  0.00  0.00    +0.080 C 
BRANCH  16  17
ATOM     17  C   UNL     1      -4.134  -1.270  -3.638  0.00  0.00    +0.002 A 
ATOM     18  C   UNL     1      -3.425  -0.162  -3.162  0.00  0.00    +0.013 A 
ATOM     19  C   UNL     1      -3.847   1.111  -3.483  0.00  0.00    -0.050 A 
ATOM     20  C   UNL     1      -4.969   1.294  -4.272  0.00  0.00    +0.003 A 
ATOM     21  C   UNL     1      -5.676   0.203  -4.746  0.00  0.00    +0.004 A 
ATOM     22  C   UNL     1      -5.263  -1.077  -4.440  0.00  0.00    -0.042 A 
ATOM     23  C   UNL     1      -6.030  -2.264  -4.963  0.00  0.00    +0.044 C 
ATOM     24  C   UNL     1      -3.084   2.306  -2.972  0.00  0.00    +0.044 C 
ENDBRANCH  16  17
ENDBRANCH   3  12
BRANCH   1  25
ATOM     25  C   UNL     1       1.073  -0.582  -2.212  0.00  0.00    +0.057 C 
BRANCH  25  27
ATOM     26  C   UNL     1       0.634   1.551  -0.987  0.00  0.00    +0.004 C 
ATOM     27  C   UNL     1       0.603   0.025  -0.888  0.00  0.00    +0.003 C 
ENDBRANCH  25  27
ENDBRANCH   1  25
TORSDOF 4
