REMARK  Name = ZINC12736631
REMARK  6 active torsions:
REMARK  status: ('A' for Active; 'I' for Inactive)
REMARK    1  A    between atoms: C_1  and  C_2
REMARK    2  A    between atoms: C_2  and  C_4
REMARK    3  A    between atoms: C_2  and  N_12
REMARK    4  A    between atoms: N_12  and  C_13
REMARK    5  A    between atoms: C_13  and  C_14
REMARK    6  A    between atoms: C_27  and  C_29
REMARK                            x       y       z     vdW  Elec       q    Type
REMARK                         _______ _______ _______ _____ _____    ______ ____
ROOT
ATOM      1  C   UNL     1      -3.336  -1.100  -1.298  0.00  0.00    +0.234 C 
ATOM      2  O   UNL     1      -3.836  -1.393  -0.233  0.00  0.00    -0.274 OA
ATOM      3  N   UNL     1      -4.043  -1.244  -2.437  0.00  0.00    -0.256 N 
ATOM      4  C   UNL     1      -3.475  -0.915  -3.675  0.00  0.00    +0.058 A 
ATOM      5  C   UNL     1      -3.262   0.408  -4.025  0.00  0.00    +0.025 A 
ATOM      6  C   UNL     1      -2.722   0.715  -5.261  0.00  0.00    +0.002 A 
ATOM      7  C   UNL     1      -2.397  -0.294  -6.149  0.00  0.00    +0.002 A 
ATOM      8  C   UNL     1      -2.599  -1.618  -5.804  0.00  0.00    +0.025 A 
ATOM      9  C   UNL     1      -3.128  -1.933  -4.564  0.00  0.00    +0.055 A 
ATOM     10  N   UNL     1      -3.289  -3.267  -4.170  0.00  0.00    -0.284 N 
ATOM     11  C   UNL     1      -4.454  -3.686  -3.630  0.00  0.00    +0.219 C 
ATOM     12  O   UNL     1      -4.553  -4.822  -3.216  0.00  0.00    -0.275 OA
ATOM     13  C   UNL     1      -5.631  -2.751  -3.536  0.00  0.00    +0.128 C 
ATOM     14  C   UNL     1      -5.415  -1.753  -2.403  0.00  0.00    +0.194 C 
ATOM     15  H   UNL     1      -2.559  -3.895  -4.287  0.00  0.00    +0.155 HD
ENDROOT
BRANCH  14  16
ATOM     16  C   UNL     1      -6.394  -0.588  -2.564  0.00  0.00    +0.409 C 
ATOM     17  F   UNL     1      -6.162   0.050  -3.788  0.00  0.00    -0.169 F 
ATOM     18  F   UNL     1      -7.706  -1.072  -2.532  0.00  0.00    -0.169 F 
ATOM     19  F   UNL     1      -6.208   0.325  -1.521  0.00  0.00    -0.169 F 
ENDBRANCH  14  16
BRANCH   1  20
ATOM     20  C   UNL     1      -1.924  -0.575  -1.349  0.00  0.00    +0.178 C 
BRANCH  20  21
ATOM     21  N   UNL     1      -1.376  -0.512   0.012  0.00  0.00    -0.302 NA
ATOM     22  H   UNL     1      -1.426  -1.413   0.464  0.00  0.00    +0.123 HD
BRANCH  21  24
ATOM     23  C   UNL     1      -0.019   1.526   0.010  0.00  0.00    +0.029 C 
ATOM     24  C   UNL     1       0.002  -0.004   0.002  0.00  0.00    +0.081 C 
BRANCH  24  25
ATOM     25  C   UNL     1       0.731  -0.503   1.223  0.00  0.00    -0.029 A 
ATOM     26  C   UNL     1       0.080  -0.558   2.442  0.00  0.00    +0.006 A 
ATOM     27  C   UNL     1       0.748  -1.016   3.562  0.00  0.00    +0.022 A 
ATOM     28  C   UNL     1       2.067  -1.419   3.465  0.00  0.00    +0.059 A 
ATOM     29  C   UNL     1       2.719  -1.364   2.244  0.00  0.00    +0.060 A 
ATOM     30  C   UNL     1       2.048  -0.911   1.123  0.00  0.00    +0.026 A 
ATOM     31 CL   UNL     1       4.375  -1.869   2.120  0.00  0.00    -0.082 Cl
ATOM     32 CL   UNL     1       2.906  -1.993   4.872  0.00  0.00    -0.082 Cl
ENDBRANCH  24  25
ENDBRANCH  21  24
ENDBRANCH  20  21
ENDBRANCH   1  20
TORSDOF 5
