REMARK  Name = ZINC47910585
REMARK  5 active torsions:
REMARK  status: ('A' for Active; 'I' for Inactive)
REMARK    1  A    between atoms: C_6  and  C_7
REMARK    2  A    between atoms: C_7  and  N_8
REMARK    3  A    between atoms: N_8  and  S_9
REMARK    4  A    between atoms: S_9  and  C_12
REMARK    5  A    between atoms: C_15  and  N_19
REMARK                            x       y       z     vdW  Elec       q    Type
REMARK                         _______ _______ _______ _____ _____    ______ ____
ROOT
ATOM      1  S   UNL     1      -2.898  -2.144  -1.682  0.00  0.00    +0.061 S 
ATOM      2  O   UNL     1      -3.112  -2.127  -3.087  0.00  0.00    -0.153 OA
ATOM      3  O   UNL     1      -2.525  -3.324  -0.983  0.00  0.00    -0.153 OA
ENDROOT
BRANCH   1   4
ATOM      4  C   UNL     1      -4.387  -1.567  -0.938  0.00  0.00    +0.142 A 
ATOM      5  C   UNL     1      -4.686  -1.912   0.368  0.00  0.00    +0.070 A 
ATOM      6  C   UNL     1      -5.853  -1.461   0.955  0.00  0.00    +0.044 A 
ATOM      7  C   UNL     1      -6.727  -0.660   0.231  0.00  0.00    +0.027 A 
ATOM      8  C   UNL     1      -6.425  -0.314  -1.080  0.00  0.00    +0.044 A 
ATOM      9  C   UNL     1      -5.254  -0.764  -1.659  0.00  0.00    +0.070 A 
ATOM     10 CL   UNL     1      -4.872  -0.328  -3.295  0.00  0.00    -0.081 Cl
ATOM     11 CL   UNL     1      -3.593  -2.914   1.272  0.00  0.00    -0.081 Cl
BRANCH   7  12
ATOM     12  N   UNL     1      -7.908  -0.203   0.821  0.00  0.00    -0.358 N 
ATOM     13  H   UNL     1      -8.118  -0.445   1.736  0.00  0.00    +0.142 HD
ATOM     14  H   UNL     1      -8.518   0.357   0.315  0.00  0.00    +0.142 HD
ENDBRANCH   7  12
ENDBRANCH   1   4
BRANCH   1  15
ATOM     15  N   UNL     1      -1.726  -1.017  -1.368  0.00  0.00    -0.186 NA
ATOM     16  H   UNL     1      -1.325  -0.518  -2.097  0.00  0.00    +0.148 HD
BRANCH  15  17
ATOM     17  C   UNL     1      -1.293  -0.775   0.010  0.00  0.00    +0.141 C 
BRANCH  17  23
ATOM     18  C   UNL     1      -0.017   1.378   0.010  0.00  0.00    +0.006 A 
ATOM     19  C   UNL     1       1.171   2.086   0.002  0.00  0.00    +0.015 A 
ATOM     20  C   UNL     1       2.378   1.411  -0.013  0.00  0.00    +0.018 A 
ATOM     21  C   UNL     1       2.396   0.027  -0.021  0.00  0.00    +0.015 A 
ATOM     22  C   UNL     1       1.208  -0.679  -0.013  0.00  0.00    +0.006 A 
ATOM     23  C   UNL     1       0.002  -0.004   0.002  0.00  0.00    -0.032 A 
ATOM     24 BR   UNL     1       4.003   2.378  -0.024  0.00  0.00    -0.050 Br
ENDBRANCH  17  23
ENDBRANCH  15  17
ENDBRANCH   1  15
TORSDOF 5
