REMARK  Name = ZINC42016551
REMARK  5 active torsions:
REMARK  status: ('A' for Active; 'I' for Inactive)
REMARK    1  A    between atoms: C_1  and  C_2
REMARK    2  A    between atoms: C_7  and  N_12
REMARK    3  A    between atoms: C_9  and  C_11
REMARK    4  A    between atoms: C_13  and  C_17
REMARK    5  A    between atoms: C_21  and  N_23
REMARK                            x       y       z     vdW  Elec       q    Type
REMARK                         _______ _______ _______ _____ _____    ______ ____
ROOT
ATOM      1  N   UNL     1       1.772  -2.244   2.448  0.00  0.00    -0.222 N 
ATOM      2  C   UNL     1       2.536  -3.365   2.458  0.00  0.00    +0.182 A 
ATOM      3  N   UNL     1       2.558  -3.806   3.698  0.00  0.00    -0.108 NA
ATOM      4  N   UNL     1       1.863  -3.041   4.460  0.00  0.00    -0.023 NA
ATOM      5  N   UNL     1       1.358  -2.069   3.780  0.00  0.00    -0.043 NA
ENDROOT
BRANCH   1  11
ATOM      6  C   UNL     1       1.994   2.365   0.674  0.00  0.00    +0.008 C 
ATOM      7  C   UNL     1       1.557   0.928   0.385  0.00  0.00    -0.009 C 
ATOM      8  C   UNL     1       0.048   0.896   0.131  0.00  0.00    +0.004 C 
ATOM      9  C   UNL     1      -0.390  -0.542  -0.158  0.00  0.00    +0.002 C 
ATOM     10  C   UNL     1      -0.056  -1.428   1.043  0.00  0.00    +0.027 C 
ATOM     11  C   UNL     1       1.453  -1.396   1.297  0.00  0.00    +0.114 C 
ATOM     12  C   UNL     1       1.891   0.042   1.586  0.00  0.00    +0.013 C 
ATOM     13  C   UNL     1       1.154   0.560   2.823  0.00  0.00    +0.010 C 
ENDBRANCH   1  11
BRANCH   2  14
ATOM     14  C   UNL     1       3.216  -3.976   1.294  0.00  0.00    +0.023 A 
ATOM     15  C   UNL     1       2.654  -3.874   0.022  0.00  0.00    +0.013 A 
ATOM     16  C   UNL     1       3.289  -4.445  -1.062  0.00  0.00    +0.022 A 
ATOM     17  C   UNL     1       4.484  -5.120  -0.892  0.00  0.00    +0.062 A 
ATOM     18  C   UNL     1       5.053  -5.227   0.373  0.00  0.00    +0.044 A 
ATOM     19  C   UNL     1       4.424  -4.652   1.466  0.00  0.00    +0.035 A 
ATOM     20 CL   UNL     1       5.277  -5.836  -2.260  0.00  0.00    -0.082 Cl
BRANCH  18  21
ATOM     21  N   UNL     1       6.260  -5.911   0.541  0.00  0.00    -0.357 N 
ATOM     22  H   UNL     1       6.702  -6.311  -0.224  0.00  0.00    +0.142 HD
ATOM     23  H   UNL     1       6.657  -5.985   1.423  0.00  0.00    +0.142 HD
ENDBRANCH  18  21
ENDBRANCH   2  14
TORSDOF 3
