REMARK  Name = ZINC39949629
REMARK  9 active torsions:
REMARK  status: ('A' for Active; 'I' for Inactive)
REMARK    1  A    between atoms: C_1  and  O_2
REMARK    2  A    between atoms: O_2  and  C_3
REMARK    3  A    between atoms: C_6  and  C_9
REMARK    4  A    between atoms: C_10  and  C_11
REMARK    5  A    between atoms: C_10  and  N_26
REMARK    6  A    between atoms: N_13  and  C_14
REMARK    7  A    between atoms: C_14  and  C_15
REMARK    8  A    between atoms: C_15  and  C_16
REMARK    9  A    between atoms: C_27  and  C_29
REMARK                            x       y       z     vdW  Elec       q    Type
REMARK                         _______ _______ _______ _____ _____    ______ ____
ROOT
ATOM      1  C   UNL     1      -4.975  -2.593  -0.008  0.00  0.00    +0.036 C 
ATOM      2  C   UNL     1      -4.936  -3.946  -0.064  0.00  0.00    +0.097 C 
ENDROOT
BRANCH   1   6
ATOM      3  C   UNL     1      -1.397  -0.350  -0.395  0.00  0.00    +0.120 A 
ATOM      4  C   UNL     1      -2.496   0.205   0.250  0.00  0.00    +0.046 A 
ATOM      5  C   UNL     1      -3.660  -0.519   0.379  0.00  0.00    +0.011 A 
ATOM      6  C   UNL     1      -3.736  -1.816  -0.142  0.00  0.00    -0.023 A 
ATOM      7  C   UNL     1      -2.626  -2.370  -0.792  0.00  0.00    +0.011 A 
ATOM      8  C   UNL     1      -1.468  -1.635  -0.919  0.00  0.00    +0.046 A 
BRANCH   3  10
ATOM      9  C   UNL     1      -0.245   1.683   0.042  0.00  0.00    +0.277 C 
ATOM     10  O   UNL     1      -0.251   0.368  -0.519  0.00  0.00    -0.495 OA
ENDBRANCH   3  10
ENDBRANCH   1   6
BRANCH   2  11
ATOM     11  C   UNL     1      -6.186  -4.716  -0.094  0.00  0.00    +0.258 C 
ATOM     12  O   UNL     1      -7.254  -4.140  -0.179  0.00  0.00    -0.269 OA
ATOM     13  N   UNL     1      -6.150  -6.062  -0.026  0.00  0.00    -0.310 N 
ATOM     14  H   UNL     1      -5.306  -6.518   0.116  0.00  0.00    +0.149 HD
BRANCH  13  15
ATOM     15  C   UNL     1      -7.386  -6.836  -0.167  0.00  0.00    +0.112 C 
BRANCH  15  16
ATOM     16  C   UNL     1      -7.069  -8.328  -0.052  0.00  0.00    +0.094 C 
BRANCH  16  17
ATOM     17  C   UNL     1      -8.340  -9.124  -0.197  0.00  0.00    +0.127 C 
ATOM     18  N   UNL     1      -9.508  -8.580  -0.394  0.00  0.00    -0.256 NA
ATOM     19  C   UNL     1     -10.451  -9.684  -0.545  0.00  0.00    +0.178 C 
ATOM     20  C   UNL     1     -11.609  -9.654   0.409  0.00  0.00    +0.006 C 
ATOM     21  C   UNL     1     -12.049 -10.806   0.930  0.00  0.00    -0.002 C 
ATOM     22  C   UNL     1     -11.451 -12.061   0.671  0.00  0.00    +0.002 C 
ATOM     23  C   UNL     1     -10.194 -12.135   0.133  0.00  0.00    +0.026 C 
ATOM     24  C   UNL     1      -9.604 -10.901  -0.208  0.00  0.00    +0.072 C 
ATOM     25  N   UNL     1      -8.382 -10.463  -0.142  0.00  0.00    -0.235 NA
ENDBRANCH  16  17
ENDBRANCH  15  16
ENDBRANCH  13  15
ENDBRANCH   2  11
BRANCH   2  26
ATOM     26  N   UNL     1      -3.704  -4.609  -0.095  0.00  0.00    -0.277 N 
ATOM     27  C   UNL     1      -3.430  -5.475  -1.091  0.00  0.00    +0.249 C 
ATOM     28  O   UNL     1      -4.216  -5.615  -2.008  0.00  0.00    -0.270 OA
ATOM     29  H   UNL     1      -3.048  -4.446   0.600  0.00  0.00    +0.155 HD
BRANCH  27  30
ATOM     30  C   UNL     1      -2.174  -6.253  -1.068  0.00  0.00    +0.051 A 
ATOM     31  C   UNL     1      -1.272  -6.099  -0.013  0.00  0.00    +0.014 A 
ATOM     32  C   UNL     1      -0.103  -6.829   0.002  0.00  0.00    +0.001 A 
ATOM     33  C   UNL     1       0.179  -7.713  -1.024  0.00  0.00    +0.001 A 
ATOM     34  C   UNL     1      -0.709  -7.872  -2.073  0.00  0.00    +0.016 A 
ATOM     35  C   UNL     1      -1.887  -7.151  -2.098  0.00  0.00    +0.030 A 
ATOM     36 BR   UNL     1      -3.104  -7.375  -3.528  0.00  0.00    -0.050 Br
ENDBRANCH  27  30
ENDBRANCH   2  26
TORSDOF 8
