REMARK  Name = ZINC08569389
REMARK  10 active torsions:
REMARK  status: ('A' for Active; 'I' for Inactive)
REMARK    1  A    between atoms: C_1  and  C_2
REMARK    2  A    between atoms: C_2  and  O_3
REMARK    3  A    between atoms: O_3  and  C_4
REMARK    4  A    between atoms: C_9  and  C_10
REMARK    5  A    between atoms: C_13  and  C_24
REMARK    6  A    between atoms: C_19  and  N_23
REMARK    7  A    between atoms: C_20  and  C_21
REMARK    8  A    between atoms: C_27  and  O_30
REMARK    9  A    between atoms: O_30  and  C_31
REMARK   10  A    between atoms: C_31  and  C_32
REMARK                            x       y       z     vdW  Elec       q    Type
REMARK                         _______ _______ _______ _____ _____    ______ ____
ROOT
ATOM      1  C   UNL     1       1.837  -1.932  -3.280  0.00  0.00    +0.105 C 
ATOM      2  C   UNL     1       3.335  -1.925  -3.446  0.00  0.00    +0.054 A 
ATOM      3  C   UNL     1       4.317  -1.405  -2.598  0.00  0.00    +0.100 A 
ATOM      4  N   UNL     1       5.493  -1.630  -3.152  0.00  0.00    -0.171 NA
ATOM      5  N   UNL     1       5.288  -2.300  -4.367  0.00  0.00    -0.246 N 
ATOM      6  H   UNL     1       5.979  -2.590  -4.983  0.00  0.00    +0.192 HD
ATOM      7  C   UNL     1       3.959  -2.471  -4.530  0.00  0.00    +0.223 A 
ATOM      8  O   UNL     1       3.281  -3.061  -5.546  0.00  0.00    -0.423 OA
ATOM      9  C   UNL     1       1.948  -2.861  -5.606  0.00  0.00    +0.200 C 
ATOM     10  C   UNL     1       1.219  -2.341  -4.594  0.00  0.00    +0.098 C 
ENDROOT
BRANCH   1  16
ATOM     11  C   UNL     1       0.644  -2.514  -1.152  0.00  0.00    +0.125 A 
ATOM     12  C   UNL     1       0.284  -3.424  -0.169  0.00  0.00    +0.046 A 
ATOM     13  C   UNL     1       0.732  -4.729  -0.241  0.00  0.00    +0.004 A 
ATOM     14  C   UNL     1       1.539  -5.128  -1.291  0.00  0.00    +0.001 A 
ATOM     15  C   UNL     1       1.899  -4.222  -2.271  0.00  0.00    +0.008 A 
ATOM     16  C   UNL     1       1.449  -2.917  -2.207  0.00  0.00    +0.007 A 
BRANCH  11  17
ATOM     17  O   UNL     1       0.204  -1.230  -1.085  0.00  0.00    -0.492 OA
BRANCH  17  19
ATOM     18  C   UNL     1      -0.950   0.611  -0.026  0.00  0.00    +0.048 C 
ATOM     19  C   UNL     1      -0.567  -0.868   0.063  0.00  0.00    +0.225 C 
ENDBRANCH  17  19
ENDBRANCH  11  17
ENDBRANCH   1  16
BRANCH   3  20
ATOM     20  C   UNL     1       4.078  -0.719  -1.303  0.00  0.00    +0.003 A 
ATOM     21  C   UNL     1       3.046   0.210  -1.185  0.00  0.00    +0.013 A 
ATOM     22  C   UNL     1       2.826   0.846   0.019  0.00  0.00    +0.046 A 
ATOM     23  C   UNL     1       3.632   0.561   1.113  0.00  0.00    +0.121 A 
ATOM     24  C   UNL     1       4.662  -0.363   0.998  0.00  0.00    +0.046 A 
ATOM     25  C   UNL     1       4.882  -1.007  -0.202  0.00  0.00    +0.013 A 
BRANCH  23  26
ATOM     26  O   UNL     1       3.414   1.189   2.298  0.00  0.00    -0.487 OA
BRANCH  26  27
ATOM     27  C   UNL     1       4.281   0.849   3.382  0.00  0.00    +0.264 C 
BRANCH  27  28
ATOM     28  C   UNL     1       3.890   1.639   4.604  0.00  0.00    -0.010 A 
ATOM     29  C   UNL     1       4.456   2.878   4.837  0.00  0.00    +0.007 A 
ATOM     30  C   UNL     1       4.098   3.602   5.958  0.00  0.00    +0.000 A 
ATOM     31  C   UNL     1       3.173   3.087   6.847  0.00  0.00    +0.000 A 
ATOM     32  C   UNL     1       2.606   1.848   6.614  0.00  0.00    +0.000 A 
ATOM     33  C   UNL     1       2.961   1.126   5.490  0.00  0.00    +0.007 A 
ENDBRANCH  27  28
ENDBRANCH  26  27
ENDBRANCH  23  26
ENDBRANCH   3  20
BRANCH   9  34
ATOM     34  N   UNL     1       1.295  -3.207  -6.763  0.00  0.00    -0.328 N 
ATOM     35  H   UNL     1       1.791  -3.582  -7.507  0.00  0.00    +0.145 HD
ATOM     36  H   UNL     1       0.337  -3.075  -6.836  0.00  0.00    +0.145 HD
ENDBRANCH   9  34
BRANCH  10  37
ATOM     37  C   UNL     1      -0.192  -2.170  -4.774  0.00  0.00    +0.101 C 
ATOM     38  N   UNL     1      -1.310  -2.035  -4.918  0.00  0.00    -0.191 NA
ENDBRANCH  10  37
TORSDOF 9
