REMARK  Name = ZINC15429274
REMARK  6 active torsions:
REMARK  status: ('A' for Active; 'I' for Inactive)
REMARK    1  A    between atoms: C_1  and  C_2
REMARK    2  A    between atoms: C_10  and  C_11
REMARK    3  A    between atoms: N_13  and  N_14
REMARK    4  A    between atoms: N_14  and  C_15
REMARK    5  A    between atoms: C_15  and  N_17
REMARK    6  A    between atoms: N_17  and  C_18
REMARK                            x       y       z     vdW  Elec       q    Type
REMARK                         _______ _______ _______ _____ _____    ______ ____
ROOT
ATOM      1  C   UNL     1       0.031  -0.382   2.484  0.00  0.00    +0.296 C 
ATOM      2  O   UNL     1       0.017   0.806   2.745  0.00  0.00    -0.265 OA
ATOM      3  N   UNL     1       0.053  -1.291   3.479  0.00  0.00    -0.229 N 
ATOM      4  H   UNL     1       0.065  -2.238   3.270  0.00  0.00    +0.173 HD
ENDROOT
BRANCH   1  14
ATOM      5  C   UNL     1      -0.018   1.503   0.010  0.00  0.00    +0.048 C 
ATOM      6  C   UNL     1       0.002  -0.004   0.002  0.00  0.00    +0.008 A 
ATOM      7  C   UNL     1       0.009  -0.877  -1.171  0.00  0.00    +0.025 A 
ATOM      8  C   UNL     1      -0.001  -0.654  -2.551  0.00  0.00    +0.027 A 
ATOM      9  C   UNL     1       0.010  -1.718  -3.409  0.00  0.00    +0.019 A 
ATOM     10  C   UNL     1       0.031  -3.018  -2.918  0.00  0.00    +0.019 A 
ATOM     11  C   UNL     1       0.040  -3.258  -1.561  0.00  0.00    +0.048 A 
ATOM     12  C   UNL     1       0.030  -2.191  -0.669  0.00  0.00    +0.136 A 
ATOM     13  O   UNL     1       0.035  -2.113   0.676  0.00  0.00    -0.450 OA
ATOM     14  C   UNL     1       0.024  -0.826   1.083  0.00  0.00    +0.195 A 
ATOM     15 BR   UNL     1      -0.004  -1.420  -5.276  0.00  0.00    -0.050 Br
ENDBRANCH   1  14
BRANCH   3  16
ATOM     16  N   UNL     1       0.060  -0.867   4.814  0.00  0.00    -0.246 N 
ATOM     17  H   UNL     1       0.049   0.080   5.022  0.00  0.00    +0.172 HD
BRANCH  16  18
ATOM     18  C   UNL     1       0.082  -1.776   5.809  0.00  0.00    +0.147 C 
ATOM     19  S   UNL     1       0.091  -1.258   7.441  0.00  0.00    -0.017 S 
BRANCH  18  20
ATOM     20  N   UNL     1       0.098  -3.092   5.520  0.00  0.00    -0.323 N 
ATOM     21  H   UNL     1       0.094  -3.385   4.595  0.00  0.00    +0.148 HD
BRANCH  20  22
ATOM     22  C   UNL     1       0.122  -4.080   6.601  0.00  0.00    +0.072 C 
ATOM     23  C   UNL     1       1.567  -4.310   7.049  0.00  0.00    +0.022 C 
ATOM     24  C   UNL     1       1.593  -5.342   8.179  0.00  0.00    +0.002 C 
ATOM     25  C   UNL     1       0.997  -6.660   7.679  0.00  0.00    +0.000 C 
ATOM     26  C   UNL     1      -0.448  -6.429   7.232  0.00  0.00    +0.002 C 
ATOM     27  C   UNL     1      -0.473  -5.397   6.102  0.00  0.00    +0.022 C 
ENDBRANCH  20  22
ENDBRANCH  18  20
ENDBRANCH  16  18
ENDBRANCH   3  16
TORSDOF 5
