REMARK  Name = ZINC05296133
REMARK  8 active torsions:
REMARK  status: ('A' for Active; 'I' for Inactive)
REMARK    1  A    between atoms: C_1  and  C_2
REMARK    2  A    between atoms: C_2  and  C_3
REMARK    3  A    between atoms: C_2  and  C_4
REMARK    4  A    between atoms: C_2  and  C_5
REMARK    5  A    between atoms: C_5  and  C_6
REMARK    6  A    between atoms: C_12  and  C_16
REMARK    7  A    between atoms: N_18  and  N_19
REMARK    8  A    between atoms: C_20  and  C_21
REMARK                            x       y       z     vdW  Elec       q    Type
REMARK                         _______ _______ _______ _____ _____    ______ ____
ROOT
ATOM      1  C   UNL     1      -2.290  -0.371   1.271  0.00  0.00    -0.006 C 
ATOM      2  C   UNL     1      -1.544  -0.970   0.076  0.00  0.00    +0.010 C 
ATOM      3  C   UNL     1      -1.416  -2.488   0.256  0.00  0.00    +0.055 C 
ATOM      4  C   UNL     1      -2.778  -3.043   0.588  0.00  0.00    +0.040 A 
ATOM      5  C   UNL     1      -3.818  -2.286   1.015  0.00  0.00    +0.006 A 
ATOM      6  C   UNL     1      -4.890  -3.175   1.206  0.00  0.00    +0.152 A 
ATOM      7  N   UNL     1      -4.443  -4.379   0.893  0.00  0.00    -0.169 NA
ATOM      8  N   UNL     1      -3.208  -4.314   0.530  0.00  0.00    -0.281 N 
ATOM      9  H   UNL     1      -2.652  -5.095   0.247  0.00  0.00    +0.189 HD
ATOM     10  C   UNL     1      -3.764  -0.797   1.222  0.00  0.00    +0.043 C 
ENDROOT
BRANCH   6  11
ATOM     11  C   UNL     1      -6.250  -2.831   1.667  0.00  0.00    +0.284 C 
ATOM     12  O   UNL     1      -6.531  -1.676   1.924  0.00  0.00    -0.267 OA
ATOM     13  N   UNL     1      -7.179  -3.797   1.804  0.00  0.00    -0.202 N 
ATOM     14  H   UNL     1      -6.955  -4.718   1.599  0.00  0.00    +0.178 HD
BRANCH  13  15
ATOM     15  N   UNL     1      -8.470  -3.470   2.241  0.00  0.00    -0.187 NA
ATOM     16  C   UNL     1      -9.365  -4.401   2.373  0.00  0.00    +0.139 C 
BRANCH  16  17
ATOM     17  C   UNL     1     -10.723  -4.058   2.834  0.00  0.00    +0.013 A 
ATOM     18  C   UNL     1     -11.691  -5.056   2.971  0.00  0.00    +0.011 A 
ATOM     19  C   UNL     1     -12.958  -4.728   3.406  0.00  0.00    +0.001 A 
ATOM     20  C   UNL     1     -13.274  -3.413   3.698  0.00  0.00    +0.001 A 
ATOM     21  C   UNL     1     -12.324  -2.418   3.560  0.00  0.00    +0.020 A 
ATOM     22  C   UNL     1     -11.050  -2.731   3.130  0.00  0.00    +0.050 A 
ATOM     23 CL   UNL     1      -9.857  -1.481   2.956  0.00  0.00    -0.083 Cl
ENDBRANCH  16  17
ENDBRANCH  13  15
ENDBRANCH   6  11
BRANCH   1  24
ATOM     24  C   UNL     1      -2.198   1.155   1.217  0.00  0.00    +0.010 C 
BRANCH  24  26
ATOM     25  C   UNL     1       0.282   1.131   0.916  0.00  0.00    +0.010 C 
ATOM     26  C   UNL     1      -0.863   1.607   1.813  0.00  0.00    -0.037 C 
ATOM     27  C   UNL     1      -0.699   1.007   3.211  0.00  0.00    +0.010 C 
ATOM     28  C   UNL     1      -0.837   3.134   1.907  0.00  0.00    +0.010 C 
ENDBRANCH  24  26
ENDBRANCH   1  24
TORSDOF 5
