REMARK  Name = ZINC59803831
REMARK  9 active torsions:
REMARK  status: ('A' for Active; 'I' for Inactive)
REMARK    1  A    between atoms: C_5  and  C_7
REMARK    2  A    between atoms: C_7  and  S_8
REMARK    3  A    between atoms: S_8  and  C_9
REMARK    4  A    between atoms: C_14  and  N_15
REMARK    5  A    between atoms: C_16  and  C_18
REMARK    6  A    between atoms: C_18  and  S_19
REMARK    7  A    between atoms: S_19  and  C_20
REMARK    8  A    between atoms: C_23  and  C_26
REMARK    9  A    between atoms: N_24  and  N_25
REMARK                            x       y       z     vdW  Elec       q    Type
REMARK                         _______ _______ _______ _____ _____    ______ ____
ROOT
ATOM      1  N   UNL     1       1.303  -4.801   3.917  0.00  0.00    -0.284 N 
ATOM      2  C   UNL     1       1.223  -5.591   5.006  0.00  0.00    +0.228 C 
ATOM      3  O   UNL     1       1.238  -6.797   4.883  0.00  0.00    -0.275 OA
ATOM      4  H   UNL     1       1.371  -3.839   4.019  0.00  0.00    +0.155 HD
ENDROOT
BRANCH   1  10
ATOM      5  C   UNL     1       1.862  -4.691   1.562  0.00  0.00    +0.029 A 
ATOM      6  C   UNL     1       1.847  -5.263   0.297  0.00  0.00    +0.016 A 
ATOM      7  C   UNL     1       1.260  -6.499   0.105  0.00  0.00    +0.001 A 
ATOM      8  C   UNL     1       0.685  -7.170   1.170  0.00  0.00    +0.002 A 
ATOM      9  C   UNL     1       0.695  -6.608   2.433  0.00  0.00    +0.024 A 
ATOM     10  C   UNL     1       1.287  -5.370   2.636  0.00  0.00    +0.047 A 
BRANCH   5  11
ATOM     11  S   UNL     1       2.610  -3.115   1.810  0.00  0.00    -0.119 S 
BRANCH  11  12
ATOM     12  C   UNL     1       3.201  -2.645   0.161  0.00  0.00    +0.111 C 
BRANCH  12  17
ATOM     13  C   UNL     1       3.745   1.091   0.107  0.00  0.00    +0.000 A 
ATOM     14  C   UNL     1       5.100   1.177   0.364  0.00  0.00    +0.001 A 
ATOM     15  C   UNL     1       5.842   0.026   0.555  0.00  0.00    +0.020 A 
ATOM     16  C   UNL     1       5.227  -1.212   0.490  0.00  0.00    +0.045 A 
ATOM     17  C   UNL     1       3.871  -1.297   0.233  0.00  0.00    -0.019 A 
ATOM     18  C   UNL     1       3.130  -0.146   0.041  0.00  0.00    +0.006 A 
ATOM     19 CL   UNL     1       6.159  -2.657   0.729  0.00  0.00    -0.083 Cl
ENDBRANCH  12  17
ENDBRANCH  11  12
ENDBRANCH   5  11
ENDBRANCH   1  10
BRANCH   2  20
ATOM     20  C   UNL     1       1.114  -4.974   6.377  0.00  0.00    +0.173 C 
BRANCH  20  21
ATOM     21  S   UNL     1       1.024  -6.287   7.625  0.00  0.00    -0.075 S 
BRANCH  21  22
ATOM     22  C   UNL     1       0.902  -5.417   9.152  0.00  0.00    +0.209 A 
ATOM     23  N   UNL     1       0.878  -4.112   9.306  0.00  0.00    -0.121 NA
ATOM     24  N   UNL     1       0.782  -3.816  10.553  0.00  0.00    -0.127 NA
ATOM     25  C   UNL     1       0.739  -4.913  11.272  0.00  0.00    +0.182 A 
ATOM     26  N   UNL     1       0.809  -5.972  10.397  0.00  0.00    -0.224 N 
BRANCH  25  27
ATOM     27  C   UNL     1       0.629  -4.995  12.744  0.00  0.00    +0.021 A 
ATOM     28  C   UNL     1       0.911  -6.194  13.401  0.00  0.00    +0.014 A 
ATOM     29  C   UNL     1       0.807  -6.265  14.775  0.00  0.00    +0.039 A 
ATOM     30  C   UNL     1       0.424  -5.149  15.502  0.00  0.00    +0.123 A 
ATOM     31  C   UNL     1       0.144  -3.956  14.854  0.00  0.00    +0.039 A 
ATOM     32  C   UNL     1       0.249  -3.873  13.482  0.00  0.00    +0.014 A 
ATOM     33  F   UNL     1       0.324  -5.224  16.847  0.00  0.00    -0.205 F 
ENDBRANCH  25  27
BRANCH  26  34
ATOM     34  N   UNL     1       0.792  -7.303  10.707  0.00  0.00    -0.295 N 
ATOM     35  H   UNL     1       1.726  -7.650  10.863  0.00  0.00    +0.163 HD
ATOM     36  H   UNL     1       0.203  -7.479  11.508  0.00  0.00    +0.163 HD
ENDBRANCH  26  34
ENDBRANCH  21  22
ENDBRANCH  20  21
ENDBRANCH   2  20
TORSDOF 9
