REMARK  Name = ZINC00873417
REMARK  12 active torsions:
REMARK  status: ('A' for Active; 'I' for Inactive)
REMARK    1  A    between atoms: C_1  and  C_2
REMARK    2  A    between atoms: C_2  and  O_3
REMARK    3  A    between atoms: O_3  and  C_4
REMARK    4  A    between atoms: C_6  and  C_23
REMARK    5  A    between atoms: C_9  and  O_10
REMARK    6  A    between atoms: O_10  and  C_11
REMARK    7  A    between atoms: C_11  and  C_12
REMARK    8  A    between atoms: N_14  and  C_15
REMARK    9  A    between atoms: C_18  and  O_21
REMARK   10  A    between atoms: O_21  and  C_22
REMARK   11  A    between atoms: C_36  and  N_40
REMARK   12  A    between atoms: C_37  and  C_38
REMARK                            x       y       z     vdW  Elec       q    Type
REMARK                         _______ _______ _______ _____ _____    ______ ____
ROOT
ATOM      1  C   UNL     1       7.264   3.399   2.828  0.00  0.00    +0.162 A 
ATOM      2  C   UNL     1       6.708   3.436   1.559  0.00  0.00    +0.054 A 
ATOM      3  C   UNL     1       5.468   4.015   1.364  0.00  0.00    -0.031 A 
ATOM      4  C   UNL     1       4.775   4.548   2.434  0.00  0.00    +0.008 A 
ATOM      5  C   UNL     1       5.321   4.510   3.704  0.00  0.00    +0.050 A 
ATOM      6  C   UNL     1       6.566   3.935   3.905  0.00  0.00    +0.163 A 
ENDROOT
BRANCH   3   7
ATOM      7  C   UNL     1       4.868   4.060  -0.018  0.00  0.00    +0.098 C 
ATOM      8  C   UNL     1       3.560   3.312  -0.018  0.00  0.00    +0.008 A 
ATOM      9  C   UNL     1       3.580   1.916  -0.032  0.00  0.00    +0.009 A 
ATOM     10  C   UNL     1       2.429   1.192  -0.031  0.00  0.00    +0.009 A 
ATOM     11  C   UNL     1       1.190   1.853  -0.017  0.00  0.00    -0.014 A 
ATOM     12  C   UNL     1      -0.020   1.138  -0.013  0.00  0.00    +0.008 A 
ATOM     13  C   UNL     1      -1.201   1.815  -0.005  0.00  0.00    +0.001 A 
ATOM     14  C   UNL     1      -1.230   3.208   0.011  0.00  0.00    +0.001 A 
ATOM     15  C   UNL     1      -0.077   3.932   0.008  0.00  0.00    +0.012 A 
ATOM     16  C   UNL     1       1.161   3.268  -0.005  0.00  0.00    +0.025 A 
ATOM     17  C   UNL     1       2.375   3.990  -0.005  0.00  0.00    +0.142 A 
ATOM     18  O   UNL     1       2.340   5.343   0.008  0.00  0.00    -0.440 OA
ATOM     19  C   UNL     1       3.415   6.047  -0.385  0.00  0.00    +0.199 C 
ATOM     20  C   UNL     1       4.651   5.492  -0.420  0.00  0.00    +0.098 C 
BRANCH  19  21
ATOM     21  N   UNL     1       3.259   7.358  -0.760  0.00  0.00    -0.328 N 
ATOM     22  H   UNL     1       4.027   7.876  -1.046  0.00  0.00    +0.145 HD
ATOM     23  H   UNL     1       2.379   7.767  -0.740  0.00  0.00    +0.145 HD
ENDBRANCH  19  21
BRANCH  20  24
ATOM     24  C   UNL     1       5.767   6.281  -0.846  0.00  0.00    +0.101 C 
ATOM     25  N   UNL     1       6.652   6.908  -1.184  0.00  0.00    -0.191 NA
ENDBRANCH  20  24
ENDBRANCH   3   7
BRANCH   1  26
ATOM     26  O   UNL     1       8.486   2.835   3.020  0.00  0.00    -0.489 OA
BRANCH  26  28
ATOM     27  C   UNL     1      10.496   1.716   2.279  0.00  0.00    +0.048 C 
ATOM     28  C   UNL     1       9.145   2.304   1.868  0.00  0.00    +0.226 C 
ENDBRANCH  26  28
ENDBRANCH   1  26
BRANCH   6  29
ATOM     29  O   UNL     1       7.105   3.897   5.153  0.00  0.00    -0.479 OA
BRANCH  29  30
ATOM     30  C   UNL     1       6.332   4.467   6.211  0.00  0.00    +0.325 C 
BRANCH  30  31
ATOM     31  C   UNL     1       7.084   4.334   7.511  0.00  0.00    +0.255 C 
ATOM     32  O   UNL     1       8.174   3.802   7.529  0.00  0.00    -0.272 OA
ATOM     33  N   UNL     1       6.544   4.805   8.652  0.00  0.00    -0.283 N 
ATOM     34  H   UNL     1       5.704   5.289   8.629  0.00  0.00    +0.155 HD
BRANCH  33  35
ATOM     35  C   UNL     1       7.197   4.595   9.874  0.00  0.00    +0.034 A 
ATOM     36  C   UNL     1       6.458   4.385  11.030  0.00  0.00    +0.027 A 
ATOM     37  C   UNL     1       7.102   4.173  12.233  0.00  0.00    +0.047 A 
ATOM     38  C   UNL     1       8.488   4.181  12.289  0.00  0.00    +0.120 A 
ATOM     39  C   UNL     1       9.228   4.396  11.135  0.00  0.00    +0.047 A 
ATOM     40  C   UNL     1       8.585   4.603   9.931  0.00  0.00    +0.027 A 
BRANCH  38  41
ATOM     41  O   UNL     1       9.122   3.978  13.474  0.00  0.00    -0.495 OA
ATOM     42  C   UNL     1       8.298   3.764  14.622  0.00  0.00    +0.277 C 
ENDBRANCH  38  41
ENDBRANCH  33  35
ENDBRANCH  30  31
ENDBRANCH  29  30
ENDBRANCH   6  29
TORSDOF 10
