REMARK  Name = ZINC09763682
REMARK  8 active torsions:
REMARK  status: ('A' for Active; 'I' for Inactive)
REMARK    1  A    between atoms: C_4  and  O_25
REMARK    2  A    between atoms: C_5  and  C_7
REMARK    3  A    between atoms: C_9  and  C_13
REMARK    4  A    between atoms: N_15  and  N_16
REMARK    5  A    between atoms: C_17  and  C_18
REMARK    6  A    between atoms: C_22  and  O_24
REMARK    7  A    between atoms: O_25  and  C_26
REMARK    8  A    between atoms: C_26  and  C_27
REMARK                            x       y       z     vdW  Elec       q    Type
REMARK                         _______ _______ _______ _____ _____    ______ ____
ROOT
ATOM      1  C   UNL     1      -6.979   4.537  -0.310  0.00  0.00    +0.097 A 
ATOM      2  C   UNL     1      -6.115   5.644  -0.397  0.00  0.00    +0.062 A 
ATOM      3  C   UNL     1      -4.844   5.129  -0.225  0.00  0.00    +0.122 A 
ATOM      4  N   UNL     1      -4.994   3.783  -0.040  0.00  0.00    -0.272 N 
ATOM      5  H   UNL     1      -4.246   3.138   0.115  0.00  0.00    +0.189 HD
ATOM      6  N   UNL     1      -6.238   3.471  -0.094  0.00  0.00    -0.173 NA
ENDROOT
BRANCH   1  11
ATOM      7  C   UNL     1     -10.491   5.797  -0.776  0.00  0.00    +0.001 A 
ATOM      8  C   UNL     1     -11.220   4.626  -0.663  0.00  0.00    +0.004 A 
ATOM      9  C   UNL     1     -10.576   3.424  -0.435  0.00  0.00    +0.046 A 
ATOM     10  C   UNL     1      -9.196   3.386  -0.319  0.00  0.00    +0.130 A 
ATOM     11  C   UNL     1      -8.458   4.568  -0.433  0.00  0.00    +0.044 A 
ATOM     12  C   UNL     1      -9.116   5.774  -0.657  0.00  0.00    +0.014 A 
BRANCH  10  13
ATOM     13  O   UNL     1      -8.562   2.206  -0.095  0.00  0.00    -0.487 OA
BRANCH  13  14
ATOM     14  C   UNL     1      -9.382   1.040   0.010  0.00  0.00    +0.264 C 
BRANCH  14  15
ATOM     15  C   UNL     1      -8.511  -0.165   0.257  0.00  0.00    -0.010 A 
ATOM     16  C   UNL     1      -8.021  -0.894  -0.811  0.00  0.00    +0.008 A 
ATOM     17  C   UNL     1      -7.218  -1.996  -0.586  0.00  0.00    +0.020 A 
ATOM     18  C   UNL     1      -6.914  -2.377   0.709  0.00  0.00    +0.041 A 
ATOM     19  C   UNL     1      -7.409  -1.650   1.778  0.00  0.00    +0.020 A 
ATOM     20  C   UNL     1      -8.207  -0.545   1.551  0.00  0.00    +0.008 A 
ATOM     21 CL   UNL     1      -5.910  -3.764   0.994  0.00  0.00    -0.084 Cl
ENDBRANCH  14  15
ENDBRANCH  13  14
ENDBRANCH  10  13
ENDBRANCH   1  11
BRANCH   3  22
ATOM     22  C   UNL     1      -3.580   5.881  -0.233  0.00  0.00    +0.281 C 
ATOM     23  O   UNL     1      -3.589   7.085  -0.410  0.00  0.00    -0.267 OA
ATOM     24  N   UNL     1      -2.411   5.237  -0.045  0.00  0.00    -0.202 N 
ATOM     25  H   UNL     1      -2.403   4.278   0.096  0.00  0.00    +0.178 HD
BRANCH  24  26
ATOM     26  N   UNL     1      -1.207   5.954  -0.053  0.00  0.00    -0.187 NA
ATOM     27  C   UNL     1      -0.075   5.321   0.001  0.00  0.00    +0.138 C 
BRANCH  27  28
ATOM     28  C   UNL     1       0.017   3.932  -0.483  0.00  0.00    -0.002 A 
ATOM     29  C   UNL     1      -1.003   3.395  -1.273  0.00  0.00    +0.010 A 
ATOM     30  C   UNL     1      -0.911   2.097  -1.729  0.00  0.00    +0.004 A 
ATOM     31  C   UNL     1       0.184   1.319  -1.399  0.00  0.00    +0.045 A 
ATOM     32  C   UNL     1       1.204   1.843  -0.615  0.00  0.00    +0.117 A 
ATOM     33  C   UNL     1       1.124   3.147  -0.156  0.00  0.00    +0.054 A 
BRANCH  32  34
ATOM     34  O   UNL     1       2.280   1.076  -0.298  0.00  0.00    -0.507 OA
ATOM     35  H   UNL     1       3.006   1.136  -0.934  0.00  0.00    +0.292 HD
ENDBRANCH  32  34
ENDBRANCH  27  28
ENDBRANCH  24  26
ENDBRANCH   3  22
TORSDOF 8
