REMARK  Name = ZINC63856252
REMARK  7 active torsions:
REMARK  status: ('A' for Active; 'I' for Inactive)
REMARK    1  A    between atoms: C_1  and  C_2
REMARK    2  A    between atoms: C_2  and  C_3
REMARK    3  A    between atoms: C_2  and  C_4
REMARK    4  A    between atoms: C_6  and  C_10
REMARK    5  A    between atoms: N_12  and  C_13
REMARK    6  A    between atoms: C_15  and  C_26
REMARK    7  A    between atoms: N_28  and  C_29
REMARK                            x       y       z     vdW  Elec       q    Type
REMARK                         _______ _______ _______ _____ _____    ______ ____
ROOT
ATOM      1  C   UNL     1      -5.971  -1.520  -3.577  0.00  0.00    +0.143 C 
ATOM      2  C   UNL     1      -5.263  -1.393  -4.940  0.00  0.00    +0.109 C 
ATOM      3  C   UNL     1      -4.683  -0.024  -5.196  0.00  0.00    +0.016 C 
ATOM      4  C   UNL     1      -3.353  -0.016  -5.879  0.00  0.00    +0.005 C 
ATOM      5  C   UNL     1      -2.173   0.306  -4.982  0.00  0.00    +0.000 C 
ATOM      6  C   UNL     1      -2.474   1.515  -4.101  0.00  0.00    +0.001 C 
ATOM      7  C   UNL     1      -3.690   1.200  -3.229  0.00  0.00    +0.014 C 
ATOM      8  C   UNL     1      -4.904   1.013  -4.109  0.00  0.00    +0.052 C 
ATOM      9  S   UNL     1      -6.240   0.232  -3.088  0.00  0.00    -0.134 S 
ENDROOT
BRANCH   2  10
ATOM     10  C   UNL     1      -4.148  -2.404  -5.000  0.00  0.00    +0.219 C 
ATOM     11  O   UNL     1      -3.153  -2.251  -4.324  0.00  0.00    -0.275 OA
ATOM     12  N   UNL     1      -4.256  -3.480  -5.805  0.00  0.00    -0.318 N 
ATOM     13  C   UNL     1      -3.172  -4.463  -5.863  0.00  0.00    +0.128 C 
ATOM     14  H   UNL     1      -5.052  -3.603  -6.346  0.00  0.00    +0.148 HD
ENDBRANCH   2  10
BRANCH   1  17
ATOM     15  C   UNL     1      -5.244  -1.946  -1.290  0.00  0.00    +0.244 C 
ATOM     16  O   UNL     1      -6.015  -1.089  -0.914  0.00  0.00    -0.273 OA
ATOM     17  N   UNL     1      -5.112  -2.203  -2.607  0.00  0.00    -0.301 N 
ATOM     18  H   UNL     1      -4.447  -2.841  -2.912  0.00  0.00    +0.150 HD
BRANCH  15  21
ATOM     19  C   UNL     1      -2.914  -1.768   1.072  0.00  0.00    +0.064 C 
ATOM     20  C   UNL     1      -3.020  -2.174  -0.195  0.00  0.00    +0.036 C 
ATOM     21  C   UNL     1      -4.433  -2.723  -0.286  0.00  0.00    +0.238 C 
ATOM     22  N   UNL     1      -4.954  -2.522   1.077  0.00  0.00    -0.170 NA
ATOM     23  N   UNL     1      -4.059  -2.003   1.749  0.00  0.00    -0.158 NA
BRANCH  19  25
ATOM     24  C   UNL     1      -2.021   0.260   2.184  0.00  0.00    +0.014 C 
ATOM     25  C   UNL     1      -1.681  -1.139   1.668  0.00  0.00    +0.033 C 
ATOM     26  C   UNL     1      -1.178  -2.002   2.828  0.00  0.00    +0.014 C 
ENDBRANCH  19  25
ENDBRANCH  15  21
ENDBRANCH   1  17
TORSDOF 4
