REMARK  Name = ZINC12833175
REMARK  9 active torsions:
REMARK  status: ('A' for Active; 'I' for Inactive)
REMARK    1  A    between atoms: C_1  and  C_2
REMARK    2  A    between atoms: C_6  and  C_15
REMARK    3  A    between atoms: C_13  and  C_14
REMARK    4  A    between atoms: C_15  and  N_66
REMARK    5  A    between atoms: C_16  and  C_17
REMARK    6  A    between atoms: C_16  and  N_66
REMARK    7  A    between atoms: C_23  and  C_24
REMARK    8  A    between atoms: C_23  and  N_66
REMARK    9  A    between atoms: N_28  and  C_29
REMARK                            x       y       z     vdW  Elec       q    Type
REMARK                         _______ _______ _______ _____ _____    ______ ____
ROOT
ATOM      1  N   UNL     1      -5.244   3.972  -1.524  0.00  0.00    +0.390 N 
ATOM      2  H   UNL     1      -4.474   4.188  -2.169  0.00  0.00    -0.080 HD
ENDROOT
BRANCH   1   3
ATOM      3  C   UNL     1      -4.714   3.913  -0.146  0.00  0.00    -0.036 C 
BRANCH   3   9
ATOM      4  C   UNL     1       2.619   2.605  -0.506  0.00  0.00    +0.044 C 
ATOM      5  C   UNL     1       1.203   2.114  -0.349  0.00  0.00    -0.047 A 
ATOM      6  C   UNL     1       0.170   3.008  -0.375  0.00  0.00    +0.013 A 
ATOM      7  C   UNL     1      -1.144   2.553  -0.229  0.00  0.00    -0.001 A 
ATOM      8  C   UNL     1      -2.275   3.483  -0.252  0.00  0.00    +0.017 A 
ATOM      9  C   UNL     1      -3.528   2.983  -0.121  0.00  0.00    +0.001 A 
ATOM     10  C   UNL     1      -3.726   1.596   0.049  0.00  0.00    +0.251 A 
ATOM     11  O   UNL     1      -4.860   1.168   0.174  0.00  0.00    -0.268 OA
ATOM     12  N   UNL     1      -2.694   0.734   0.076  0.00  0.00    -0.322 N 
ATOM     13  H   UNL     1      -2.865  -0.213   0.194  0.00  0.00    +0.169 HD
ATOM     14  C   UNL     1      -1.396   1.178  -0.062  0.00  0.00    +0.049 A 
ATOM     15  C   UNL     1      -0.328   0.287  -0.034  0.00  0.00    +0.030 A 
ATOM     16  C   UNL     1       0.960   0.758  -0.179  0.00  0.00    -0.046 A 
ATOM     17  C   UNL     1       2.115  -0.209  -0.154  0.00  0.00    +0.044 C 
ENDBRANCH   3   9
ENDBRANCH   1   3
BRANCH   1  18
ATOM     18  C   UNL     1      -5.831   2.668  -1.897  0.00  0.00    -0.042 C 
BRANCH  18  19
ATOM     19  C   UNL     1      -6.233   2.711  -3.349  0.00  0.00    -0.064 A 
ATOM     20  C   UNL     1      -7.544   2.978  -3.696  0.00  0.00    +0.002 A 
ATOM     21  C   UNL     1      -7.911   3.023  -5.027  0.00  0.00    +0.000 A 
ATOM     22  C   UNL     1      -6.970   2.790  -6.012  0.00  0.00    +0.000 A 
ATOM     23  C   UNL     1      -5.660   2.517  -5.665  0.00  0.00    +0.000 A 
ATOM     24  C   UNL     1      -5.291   2.478  -4.334  0.00  0.00    +0.002 A 
ENDBRANCH  18  19
ENDBRANCH   1  18
BRANCH   1  25
ATOM     25  C   UNL     1      -6.267   5.034  -1.627  0.00  0.00    +0.001 C 
BRANCH  25  26
ATOM     26  C   UNL     1      -5.582   6.375  -1.567  0.00  0.00    +0.135 A 
ATOM     27  N   UNL     1      -5.432   7.130  -0.506  0.00  0.00    -0.115 NA
ATOM     28  N   UNL     1      -4.794   8.192  -0.861  0.00  0.00    -0.023 NA
ATOM     29  N   UNL     1      -4.540   8.137  -2.121  0.00  0.00    -0.044 NA
ATOM     30  N   UNL     1      -5.009   7.032  -2.593  0.00  0.00    -0.228 N 
BRANCH  30  31
ATOM     31  C   UNL     1      -4.934   6.577  -3.983  0.00  0.00    +0.111 C 
ATOM     32  C   UNL     1      -3.471   6.347  -4.367  0.00  0.00    +0.027 C 
ATOM     33  C   UNL     1      -3.393   5.872  -5.819  0.00  0.00    +0.002 C 
ATOM     34  C   UNL     1      -4.000   6.936  -6.737  0.00  0.00    +0.000 C 
ATOM     35  C   UNL     1      -5.463   7.166  -6.353  0.00  0.00    +0.002 C 
ATOM     36  C   UNL     1      -5.541   7.640  -4.901  0.00  0.00    +0.027 C 
ENDBRANCH  30  31
ENDBRANCH  25  26
ENDBRANCH   1  25
TORSDOF 7
