REMARK  Name = ZINC67463604
REMARK  9 active torsions:
REMARK  status: ('A' for Active; 'I' for Inactive)
REMARK    1  A    between atoms: C_1  and  C_2
REMARK    2  A    between atoms: C_7  and  N_12
REMARK    3  A    between atoms: C_9  and  C_11
REMARK    4  A    between atoms: N_12  and  C_13
REMARK    5  A    between atoms: C_13  and  N_15
REMARK    6  A    between atoms: N_15  and  N_16
REMARK    7  A    between atoms: C_17  and  C_19
REMARK    8  A    between atoms: C_19  and  N_20
REMARK    9  A    between atoms: C_21  and  C_23
REMARK                            x       y       z     vdW  Elec       q    Type
REMARK                         _______ _______ _______ _____ _____    ______ ____
ROOT
ATOM      1  N   UNL     1      -3.180  -3.451   1.244  0.00  0.00    -0.234 N 
ATOM      2  C   UNL     1      -4.444  -3.917   1.253  0.00  0.00    +0.246 C 
ATOM      3  O   UNL     1      -4.680  -5.023   1.694  0.00  0.00    -0.273 OA
ATOM      4  H   UNL     1      -2.992  -2.567   0.892  0.00  0.00    +0.173 HD
ENDROOT
BRANCH   1   5
ATOM      5  N   UNL     1      -2.137  -4.243   1.742  0.00  0.00    -0.246 N 
ATOM      6  H   UNL     1      -2.325  -5.127   2.094  0.00  0.00    +0.172 HD
BRANCH   5   7
ATOM      7  C   UNL     1      -0.873  -3.776   1.733  0.00  0.00    +0.147 C 
ATOM      8  S   UNL     1       0.401  -4.744   2.342  0.00  0.00    -0.017 S 
BRANCH   7   9
ATOM      9  N   UNL     1      -0.612  -2.548   1.244  0.00  0.00    -0.322 N 
ATOM     10  H   UNL     1      -1.333  -2.000   0.898  0.00  0.00    +0.148 HD
BRANCH   9  16
ATOM     11  C   UNL     1      -0.019   1.526   0.010  0.00  0.00    +0.008 C 
ATOM     12  C   UNL     1       0.002  -0.004   0.002  0.00  0.00    -0.009 C 
ATOM     13  C   UNL     1       0.718  -0.497  -1.257  0.00  0.00    +0.003 C 
ATOM     14  C   UNL     1       0.739  -2.027  -1.265  0.00  0.00    +0.002 C 
ATOM     15  C   UNL     1       1.479  -2.534  -0.026  0.00  0.00    +0.022 C 
ATOM     16  C   UNL     1       0.763  -2.041   1.233  0.00  0.00    +0.075 C 
ATOM     17  C   UNL     1       0.742  -0.511   1.242  0.00  0.00    +0.009 C 
ATOM     18  C   UNL     1       0.026  -0.018   2.500  0.00  0.00    +0.009 C 
ENDBRANCH   9  16
ENDBRANCH   7   9
ENDBRANCH   5   7
ENDBRANCH   1   5
BRANCH   2  19
ATOM     19  C   UNL     1      -5.566  -3.065   0.717  0.00  0.00    +0.202 C 
BRANCH  19  20
ATOM     20  N   UNL     1      -6.832  -3.792   0.838  0.00  0.00    -0.303 N 
ATOM     21  C   UNL     1      -7.979  -3.222   0.419  0.00  0.00    +0.245 C 
ATOM     22  O   UNL     1      -7.963  -2.105  -0.059  0.00  0.00    -0.270 OA
ATOM     23  H   UNL     1      -6.845  -4.684   1.220  0.00  0.00    +0.150 HD
BRANCH  21  24
ATOM     24  C   UNL     1      -9.257  -3.955   0.542  0.00  0.00    +0.042 A 
ATOM     25  C   UNL     1      -9.279  -5.236   1.096  0.00  0.00    +0.051 A 
ATOM     26  C   UNL     1     -10.477  -5.917   1.208  0.00  0.00    +0.127 A 
ATOM     27  C   UNL     1     -11.653  -5.331   0.771  0.00  0.00    +0.076 A 
ATOM     28  C   UNL     1     -11.637  -4.060   0.220  0.00  0.00    +0.127 A 
ATOM     29  C   UNL     1     -10.446  -3.368   0.109  0.00  0.00    +0.051 A 
ATOM     30  F   UNL     1     -12.789  -3.494  -0.203  0.00  0.00    -0.205 F 
ATOM     31  F   UNL     1     -10.499  -7.157   1.744  0.00  0.00    -0.205 F 
ENDBRANCH  21  24
ENDBRANCH  19  20
ENDBRANCH   2  19
TORSDOF 7
