REMARK  Name = ZINC13098085
REMARK  8 active torsions:
REMARK  status: ('A' for Active; 'I' for Inactive)
REMARK    1  A    between atoms: C_1  and  C_2
REMARK    2  A    between atoms: C_2  and  C_3
REMARK    3  A    between atoms: C_3  and  C_5
REMARK    4  A    between atoms: C_3  and  C_6
REMARK    5  A    between atoms: C_9  and  S_12
REMARK    6  A    between atoms: S_12  and  N_15
REMARK    7  A    between atoms: N_18  and  C_21
REMARK    8  A    between atoms: C_21  and  N_22
REMARK                            x       y       z     vdW  Elec       q    Type
REMARK                         _______ _______ _______ _____ _____    ______ ____
ROOT
ATOM      1  N   UNL     1       1.424  -4.064  -3.632  0.00  0.00    -0.174 NA
ATOM      2  C   UNL     1       2.738  -3.936  -2.983  0.00  0.00    +0.125 C 
ATOM      3  C   UNL     1       2.520  -3.586  -1.508  0.00  0.00    +0.103 C 
ATOM      4  N   UNL     1       1.661  -2.398  -1.411  0.00  0.00    -0.284 NA
ATOM      5  C   UNL     1       0.327  -2.658  -1.970  0.00  0.00    +0.103 C 
ATOM      6  C   UNL     1       0.456  -2.970  -3.465  0.00  0.00    +0.125 C 
ENDROOT
BRANCH   1   7
ATOM      7  S   UNL     1       1.046  -5.405  -4.528  0.00  0.00    +0.061 S 
ATOM      8  O   UNL     1       0.026  -5.011  -5.436  0.00  0.00    -0.153 OA
ATOM      9  O   UNL     1       2.278  -5.965  -4.962  0.00  0.00    -0.153 OA
BRANCH   7  13
ATOM     10  C   UNL     1      -0.823  -8.414  -1.710  0.00  0.00    -0.044 A 
ATOM     11  C   UNL     1      -1.620  -7.497  -2.368  0.00  0.00    +0.006 A 
ATOM     12  C   UNL     1      -1.049  -6.577  -3.229  0.00  0.00    +0.029 A 
ATOM     13  C   UNL     1       0.318  -6.576  -3.431  0.00  0.00    +0.105 A 
ATOM     14  C   UNL     1       1.115  -7.497  -2.776  0.00  0.00    +0.029 A 
ATOM     15  C   UNL     1       0.545  -8.413  -1.912  0.00  0.00    +0.006 A 
BRANCH  10  16
ATOM     16  C   UNL     1      -1.445  -9.417  -0.772  0.00  0.00    +0.016 C 
ATOM     17  C   UNL     1      -0.864  -9.231   0.631  0.00  0.00    +0.012 C 
BRANCH  16  19
ATOM     18  C   UNL     1      -1.876 -11.847  -0.387  0.00  0.00    +0.004 C 
ATOM     19  C   UNL     1      -1.142 -10.833  -1.266  0.00  0.00    +0.004 C 
ENDBRANCH  16  19
ENDBRANCH  10  16
ENDBRANCH   7  13
ENDBRANCH   1   7
BRANCH   4  20
ATOM     20  C   UNL     1       1.567  -1.927  -0.023  0.00  0.00    +0.205 C 
BRANCH  20  21
ATOM     21  N   UNL     1       1.248  -0.497  -0.013  0.00  0.00    -0.210 N 
ATOM     22  C   UNL     1       2.172   0.488  -0.016  0.00  0.00    +0.252 C 
ATOM     23  O   UNL     1       3.378   0.365  -0.029  0.00  0.00    -0.272 OA
ATOM     24  C   UNL     1       1.383   1.771  -0.002  0.00  0.00    +0.138 C 
ATOM     25  C   UNL     1       1.720   2.617   1.233  0.00  0.00    +0.045 C 
ATOM     26  C   UNL     1       1.563   4.057   0.694  0.00  0.00    +0.038 C 
ATOM     27  C   UNL     1       1.804   3.951  -0.797  0.00  0.00    -0.042 A 
ATOM     28  C   UNL     1       1.696   2.630  -1.197  0.00  0.00    -0.012 A 
ATOM     29  C   UNL     1       1.877   2.300  -2.530  0.00  0.00    +0.006 A 
ATOM     30  C   UNL     1       2.163   3.281  -3.459  0.00  0.00    +0.000 A 
ATOM     31  C   UNL     1       2.271   4.599  -3.059  0.00  0.00    +0.000 A 
ATOM     32  C   UNL     1       2.091   4.932  -1.730  0.00  0.00    +0.004 A 
ATOM     33  N   UNL     1      -0.016   1.344   0.009  0.00  0.00    -0.281 N 
ATOM     34  C   UNL     1       0.002  -0.004   0.002  0.00  0.00    +0.311 C 
ATOM     35  O   UNL     1      -0.999  -0.694   0.008  0.00  0.00    -0.252 OA
ATOM     36  H   UNL     1      -0.820   2.095   0.021  0.00  0.00    +0.152 HD
ENDBRANCH  20  21
ENDBRANCH   4  20
TORSDOF 6
