REMARK  Name = ZINC42010216
REMARK  10 active torsions:
REMARK  status: ('A' for Active; 'I' for Inactive)
REMARK    1  A    between atoms: C_1  and  C_2
REMARK    2  A    between atoms: C_2  and  C_3
REMARK    3  A    between atoms: C_2  and  C_4
REMARK    4  A    between atoms: C_4  and  C_5
REMARK    5  A    between atoms: C_5  and  C_6
REMARK    6  A    between atoms: C_6  and  C_7
REMARK    7  A    between atoms: C_6  and  C_8
REMARK    8  A    between atoms: C_6  and  S_11
REMARK    9  A    between atoms: S_11  and  C_12
REMARK   10  A    between atoms: C_13  and  N_18
REMARK                            x       y       z     vdW  Elec       q    Type
REMARK                         _______ _______ _______ _____ _____    ______ ____
ROOT
ATOM      1  C   UNL     1      -2.851  -2.587  -0.110  0.00  0.00    +0.121 C 
ATOM      2  C   UNL     1      -2.840  -4.095  -0.369  0.00  0.00    +0.035 C 
ENDROOT
BRANCH   1   3
ATOM      3  C   UNL     1      -3.649  -1.899  -1.188  0.00  0.00    +0.372 C 
ATOM      4  O   UNL     1      -3.308  -1.995  -2.354  0.00  0.00    -0.245 OA
ATOM      5  O   UNL     1      -4.635  -1.245  -0.892  0.00  0.00    -0.245 OA
ENDBRANCH   1   3
BRANCH   1   6
ATOM      6  C   UNL     1      -1.416  -2.058  -0.121  0.00  0.00    +0.029 C 
BRANCH   6   7
ATOM      7  C   UNL     1      -1.433  -0.534   0.013  0.00  0.00    +0.005 C 
BRANCH   7   9
ATOM      8  C   UNL     1      -0.019   1.526   0.010  0.00  0.00    +0.007 C 
ATOM      9  C   UNL     1       0.002  -0.004   0.002  0.00  0.00    -0.017 C 
ATOM     10  C   UNL     1       0.742  -0.511   1.242  0.00  0.00    +0.007 C 
ENDBRANCH   7   9
ENDBRANCH   6   7
ENDBRANCH   1   6
BRANCH   1  11
ATOM     11  S   UNL     1      -3.605  -2.256   1.506  0.00  0.00    -0.086 S 
BRANCH  11  12
ATOM     12  C   UNL     1      -5.232  -2.917   1.360  0.00  0.00    +0.119 A 
ATOM     13  C   UNL     1      -6.116  -2.830   2.440  0.00  0.00    +0.057 A 
ATOM     14  C   UNL     1      -7.394  -3.355   2.308  0.00  0.00    +0.027 A 
ATOM     15  C   UNL     1      -7.743  -3.948   1.101  0.00  0.00    +0.022 A 
ATOM     16  C   UNL     1      -6.819  -3.998   0.078  0.00  0.00    +0.112 A 
ATOM     17  N   UNL     1      -5.611  -3.486   0.227  0.00  0.00    -0.247 NA
BRANCH  13  18
ATOM     18  N   UNL     1      -5.718  -2.223   3.637  0.00  0.00    -0.356 N 
ATOM     19  H   UNL     1      -4.822  -1.859   3.722  0.00  0.00    +0.142 HD
ATOM     20  H   UNL     1      -6.336  -2.167   4.382  0.00  0.00    +0.142 HD
ENDBRANCH  13  18
ENDBRANCH  11  12
ENDBRANCH   1  11
TORSDOF 7
