REMARK  Name = ZINC57135197
REMARK  5 active torsions:
REMARK  status: ('A' for Active; 'I' for Inactive)
REMARK    1  A    between atoms: C_1  and  C_2
REMARK    2  A    between atoms: C_2  and  C_29
REMARK    3  A    between atoms: C_4  and  N_10
REMARK    4  A    between atoms: C_6  and  C_8
REMARK    5  A    between atoms: C_6  and  C_9
REMARK                            x       y       z     vdW  Elec       q    Type
REMARK                         _______ _______ _______ _____ _____    ______ ____
ROOT
ATOM      1  N   UNL     1       2.616  -0.819  -2.627  0.00  0.00    -0.263 NA
ATOM      2  C   UNL     1       4.058  -0.560  -2.742  0.00  0.00    +0.130 C 
ATOM      3  C   UNL     1       4.600  -1.256  -3.965  0.00  0.00    +0.051 A 
ATOM      4  C   UNL     1       3.888  -2.274  -4.575  0.00  0.00    +0.130 A 
ATOM      5  C   UNL     1       4.401  -2.911  -5.703  0.00  0.00    +0.047 A 
ATOM      6  C   UNL     1       5.619  -2.535  -6.222  0.00  0.00    +0.016 A 
ATOM      7  C   UNL     1       6.341  -1.509  -5.616  0.00  0.00    +0.026 A 
ATOM      8  C   UNL     1       5.827  -0.862  -4.481  0.00  0.00    +0.148 A 
ATOM      9  O   UNL     1       6.518   0.148  -3.894  0.00  0.00    -0.421 OA
ATOM     10  C   UNL     1       7.866   0.157  -4.019  0.00  0.00    +0.345 A 
ATOM     11  O   UNL     1       8.583   0.476  -3.090  0.00  0.00    -0.245 OA
ATOM     12  C   UNL     1       8.432  -0.233  -5.322  0.00  0.00    +0.067 A 
ATOM     13  C   UNL     1       7.653  -1.084  -6.140  0.00  0.00    -0.000 A 
ATOM     14  C   UNL     1       8.134  -1.480  -7.379  0.00  0.00    +0.009 A 
ATOM     15  C   UNL     1       9.374  -1.039  -7.799  0.00  0.00    +0.001 A 
ATOM     16  C   UNL     1      10.140  -0.208  -6.996  0.00  0.00    +0.001 A 
ATOM     17  C   UNL     1       9.678   0.199  -5.760  0.00  0.00    +0.015 A 
ATOM     18  O   UNL     1       2.679  -2.665  -4.091  0.00  0.00    -0.476 OA
ATOM     19  C   UNL     1       2.348  -2.260  -2.760  0.00  0.00    +0.319 C 
ENDROOT
BRANCH   1  23
ATOM     20  C   UNL     1      -0.019   1.528   0.010  0.00  0.00    -0.010 C 
ATOM     21  C   UNL     1       0.002  -0.004   0.002  0.00  0.00    -0.072 C 
ATOM     22  C   UNL     1       0.573  -0.505  -1.321  0.00  0.00    +0.006 C 
ATOM     23  C   UNL     1       2.088  -0.301  -1.357  0.00  0.00    +0.058 C 
ATOM     24  C   UNL     1       2.703  -1.086  -0.198  0.00  0.00    +0.006 C 
ATOM     25  C   UNL     1       2.147  -0.590   1.133  0.00  0.00    -0.072 C 
ATOM     26  N   UNL     1       0.697  -0.529   1.164  0.00  0.00    +0.386 N 
ATOM     27  C   UNL     1       2.769   0.766   1.481  0.00  0.00    -0.010 C 
ATOM     28  C   UNL     1       2.600  -1.589   2.223  0.00  0.00    -0.010 C 
ATOM     29  C   UNL     1      -1.468  -0.478   0.079  0.00  0.00    -0.010 C 
ATOM     30  H   UNL     1       0.416   0.021   1.982  0.00  0.00    -0.084 HD
ATOM     31  H   UNL     1       0.341  -1.472   1.351  0.00  0.00    -0.084 HD
ENDBRANCH   1  23
TORSDOF 1
