REMARK  Name = ZINC39358796
REMARK  5 active torsions:
REMARK  status: ('A' for Active; 'I' for Inactive)
REMARK    1  A    between atoms: C_1  and  C_2
REMARK    2  A    between atoms: C_2  and  C_28
REMARK    3  A    between atoms: C_6  and  C_16
REMARK    4  A    between atoms: C_9  and  O_15
REMARK    5  A    between atoms: C_19  and  N_22
REMARK                            x       y       z     vdW  Elec       q    Type
REMARK                         _______ _______ _______ _____ _____    ______ ____
ROOT
ATOM      1  C   UNL     1      -0.019   1.526   0.010  0.00  0.00    +0.011 C 
ATOM      2  C   UNL     1       0.002  -0.004   0.002  0.00  0.00    -0.023 C 
ATOM      3  C   UNL     1      -1.429  -0.539   0.043  0.00  0.00    +0.057 C 
ATOM      4  C   UNL     1      -1.411  -2.054   0.063  0.00  0.00    +0.014 C 
ATOM      5  C   UNL     1      -0.392  -2.711   0.656  0.00  0.00    +0.023 C 
ATOM      6  C   UNL     1      -0.325  -4.231   0.706  0.00  0.00    +0.089 C 
ATOM      7  C   UNL     1      -1.649  -4.743   0.226  0.00  0.00    +0.048 C 
ATOM      8  C   UNL     1      -2.450  -5.718   0.597  0.00  0.00    +0.235 C 
ATOM      9  N   UNL     1      -3.613  -5.665  -0.109  0.00  0.00    -0.114 NA
ATOM     10  N   UNL     1      -3.655  -4.767  -0.960  0.00  0.00    -0.157 NA
ATOM     11  C   UNL     1      -2.366  -4.072  -0.950  0.00  0.00    +0.245 C 
ATOM     12  N   UNL     1      -2.479  -2.670  -0.540  0.00  0.00    -0.321 N 
ATOM     13  C   UNL     1       0.675  -2.020   1.254  0.00  0.00    +0.162 C 
ATOM     14  O   UNL     1       1.563  -2.650   1.793  0.00  0.00    -0.292 OA
ATOM     15  C   UNL     1       0.743  -0.518   1.242  0.00  0.00    +0.086 C 
ATOM     16  C   UNL     1       0.705  -0.503  -1.262  0.00  0.00    +0.011 C 
ATOM     17  H   UNL     1      -3.303  -2.181  -0.693  0.00  0.00    +0.148 HD
ENDROOT
BRANCH   6  18
ATOM     18  C   UNL     1       0.777  -4.726  -0.195  0.00  0.00    -0.035 A 
ATOM     19  C   UNL     1       0.746  -4.440  -1.547  0.00  0.00    +0.007 A 
ATOM     20  C   UNL     1       1.757  -4.895  -2.373  0.00  0.00    +0.033 A 
ATOM     21  C   UNL     1       2.799  -5.635  -1.847  0.00  0.00    +0.126 A 
ATOM     22  C   UNL     1       2.831  -5.921  -0.495  0.00  0.00    +0.033 A 
ATOM     23  C   UNL     1       1.822  -5.462   0.332  0.00  0.00    +0.007 A 
BRANCH  21  24
ATOM     24  N   UNL     1       3.881  -6.123  -2.732  0.00  0.00    +0.056 N 
ATOM     25  O   UNL     1       3.853  -5.873  -3.914  0.00  0.00    -0.126 OA
ATOM     26  O   UNL     1       4.793  -6.770  -2.272  0.00  0.00    -0.126 OA
ENDBRANCH  21  24
ENDBRANCH   6  18
BRANCH   8  27
ATOM     27  O   UNL     1      -2.160  -6.644   1.549  0.00  0.00    -0.491 OA
ATOM     28  H   UNL     1      -2.864  -7.290   1.697  0.00  0.00    +0.294 HD
ENDBRANCH   8  27
TORSDOF 3
