REMARK  Name = ZINC03355921
REMARK  10 active torsions:
REMARK  status: ('A' for Active; 'I' for Inactive)
REMARK    1  A    between atoms: C_1  and  C_2
REMARK    2  A    between atoms: C_2  and  C_4
REMARK    3  A    between atoms: C_2  and  S_16
REMARK    4  A    between atoms: S_16  and  C_17
REMARK    5  A    between atoms: C_17  and  C_18
REMARK    6  A    between atoms: N_31  and  C_32
REMARK    7  A    between atoms: C_32  and  C_33
REMARK    8  A    between atoms: C_33  and  C_34
REMARK    9  A    between atoms: C_34  and  C_35
REMARK   10  A    between atoms: C_34  and  C_36
REMARK                            x       y       z     vdW  Elec       q    Type
REMARK                         _______ _______ _______ _____ _____    ______ ____
ROOT
ATOM      1  C   UNL     1       3.429  -0.463   2.401  0.00  0.00    +0.149 A 
ATOM      2  N   UNL     1       3.701   0.238   3.467  0.00  0.00    -0.131 NA
ATOM      3  N   UNL     1       4.450  -0.439   4.261  0.00  0.00    -0.110 NA
ATOM      4  C   UNL     1       4.701  -1.621   3.742  0.00  0.00    +0.239 A 
ATOM      5  N   UNL     1       4.051  -1.670   2.543  0.00  0.00    -0.264 N 
ATOM      6  C   UNL     1       4.115  -2.804   1.743  0.00  0.00    +0.063 A 
ATOM      7  C   UNL     1       3.462  -2.861   0.521  0.00  0.00    +0.027 A 
ATOM      8  C   UNL     1       3.546  -4.003  -0.251  0.00  0.00    +0.002 A 
ATOM      9  C   UNL     1       4.279  -5.096   0.183  0.00  0.00    +0.001 A 
ATOM     10  C   UNL     1       4.936  -5.057   1.395  0.00  0.00    +0.015 A 
ATOM     11  C   UNL     1       4.859  -3.910   2.184  0.00  0.00    +0.063 A 
ATOM     12  C   UNL     1       5.547  -3.828   3.485  0.00  0.00    +0.263 A 
ATOM     13  O   UNL     1       6.200  -4.766   3.900  0.00  0.00    -0.267 OA
ATOM     14  N   UNL     1       5.446  -2.690   4.204  0.00  0.00    -0.277 N 
ENDROOT
BRANCH   1  15
ATOM     15  C   UNL     1       2.582  -0.025   1.234  0.00  0.00    +0.146 C 
BRANCH  15  16
ATOM     16  S   UNL     1       0.893  -0.655   1.443  0.00  0.00    -0.142 S 
BRANCH  16  18
ATOM     17  C   UNL     1      -0.047   1.480   0.014  0.00  0.00    +0.027 C 
ATOM     18  C   UNL     1       0.015  -0.049  -0.024  0.00  0.00    +0.110 C 
BRANCH  18  19
ATOM     19  C   UNL     1      -1.385  -0.608  -0.038  0.00  0.00    +0.123 A 
ATOM     20  N   UNL     1      -1.947  -0.968   1.146  0.00  0.00    -0.309 N 
ATOM     21  H   UNL     1      -1.444  -0.861   1.969  0.00  0.00    +0.170 HD
ATOM     22  C   UNL     1      -3.201  -1.475   1.187  0.00  0.00    +0.259 A 
ATOM     23  O   UNL     1      -3.717  -1.801   2.240  0.00  0.00    -0.267 OA
ATOM     24  C   UNL     1      -3.916  -1.616  -0.090  0.00  0.00    +0.065 A 
ATOM     25  C   UNL     1      -5.211  -2.127  -0.157  0.00  0.00    +0.015 A 
ATOM     26  C   UNL     1      -5.834  -2.238  -1.381  0.00  0.00    +0.001 A 
ATOM     27  C   UNL     1      -5.184  -1.845  -2.543  0.00  0.00    +0.002 A 
ATOM     28  C   UNL     1      -3.905  -1.338  -2.498  0.00  0.00    +0.028 A 
ATOM     29  C   UNL     1      -3.252  -1.215  -1.270  0.00  0.00    +0.078 A 
ATOM     30  N   UNL     1      -1.994  -0.716  -1.179  0.00  0.00    -0.233 NA
ENDBRANCH  18  19
ENDBRANCH  16  18
ENDBRANCH  15  16
ENDBRANCH   1  15
BRANCH  14  31
ATOM     31  C   UNL     1       6.121  -2.593   5.500  0.00  0.00    +0.128 C 
BRANCH  31  32
ATOM     32  C   UNL     1       5.185  -3.094   6.602  0.00  0.00    +0.025 C 
BRANCH  32  33
ATOM     33  C   UNL     1       5.890  -2.992   7.956  0.00  0.00    -0.016 C 
ATOM     34  C   UNL     1       6.153  -1.522   8.285  0.00  0.00    +0.007 C 
ATOM     35  C   UNL     1       5.003  -3.607   9.040  0.00  0.00    +0.007 C 
ENDBRANCH  32  33
ENDBRANCH  31  32
ENDBRANCH  14  31
TORSDOF 7
