REMARK  Name = ZINC35707654
REMARK  11 active torsions:
REMARK  status: ('A' for Active; 'I' for Inactive)
REMARK    1  A    between atoms: C_1  and  C_2
REMARK    2  A    between atoms: C_2  and  N_3
REMARK    3  A    between atoms: C_4  and  C_34
REMARK    4  A    between atoms: C_5  and  C_28
REMARK    5  A    between atoms: C_6  and  C_11
REMARK    6  A    between atoms: C_14  and  N_17
REMARK    7  A    between atoms: N_20  and  C_21
REMARK    8  A    between atoms: C_28  and  O_30
REMARK    9  A    between atoms: O_30  and  C_31
REMARK   10  A    between atoms: C_31  and  C_32
REMARK   11  A    between atoms: C_31  and  C_33
REMARK                            x       y       z     vdW  Elec       q    Type
REMARK                         _______ _______ _______ _____ _____    ______ ____
ROOT
ATOM      1  C   UNL     1       2.367  -0.463  -4.643  0.00  0.00    -0.022 A 
ATOM      2  C   UNL     1       2.399   0.908  -4.463  0.00  0.00    +0.007 A 
ATOM      3  C   UNL     1       2.756   1.735  -5.510  0.00  0.00    +0.024 A 
ATOM      4  C   UNL     1       3.083   1.189  -6.744  0.00  0.00    +0.035 A 
ATOM      5  C   UNL     1       3.051  -0.188  -6.921  0.00  0.00    +0.024 A 
ATOM      6  C   UNL     1       2.698  -1.010  -5.869  0.00  0.00    +0.007 A 
ENDROOT
BRANCH   1  10
ATOM      7  N   UNL     1       0.690  -0.582  -1.178  0.00  0.00    -0.259 N 
ATOM      8  C   UNL     1      -0.088  -0.967  -2.232  0.00  0.00    +0.024 C 
ATOM      9  C   UNL     1       0.465  -1.362  -3.399  0.00  0.00    +0.078 C 
ATOM     10  C   UNL     1       1.977  -1.362  -3.498  0.00  0.00    +0.143 C 
ATOM     11  N   UNL     1       2.724  -0.928  -2.306  0.00  0.00    -0.288 N 
ATOM     12  C   UNL     1       2.029  -0.558  -1.213  0.00  0.00    +0.307 C 
ATOM     13  O   UNL     1       2.636  -0.194  -0.225  0.00  0.00    -0.252 OA
ATOM     14  C   UNL     1      -1.588  -0.952  -2.090  0.00  0.00    +0.061 C 
ATOM     15  H   UNL     1       3.694  -0.907  -2.308  0.00  0.00    +0.151 HD
BRANCH   7  17
ATOM     16  C   UNL     1      -0.303  -1.399   0.902  0.00  0.00    +0.025 C 
ATOM     17  C   UNL     1       0.023  -0.165   0.058  0.00  0.00    +0.111 C 
ENDBRANCH   7  17
BRANCH   9  18
ATOM     18  C   UNL     1      -0.340  -1.762  -4.491  0.00  0.00    +0.339 C 
ATOM     19  O   UNL     1      -1.552  -1.755  -4.388  0.00  0.00    -0.245 OA
BRANCH  18  20
ATOM     20  O   UNL     1       0.237  -2.153  -5.647  0.00  0.00    -0.459 OA
BRANCH  20  21
ATOM     21  C   UNL     1      -0.636  -2.544  -6.708  0.00  0.00    +0.171 C 
ATOM     22  C   UNL     1      -0.980  -1.323  -7.562  0.00  0.00    +0.052 C 
ATOM     23  C   UNL     1       0.056  -3.596  -7.577  0.00  0.00    +0.052 C 
ENDBRANCH  20  21
ENDBRANCH  18  20
ENDBRANCH   9  18
ENDBRANCH   1  10
BRANCH   4  24
ATOM     24  N   UNL     1       3.445   2.024  -7.807  0.00  0.00    -0.269 N 
ATOM     25  C   UNL     1       4.145   3.151  -7.571  0.00  0.00    +0.308 C 
ATOM     26  O   UNL     1       4.394   3.484  -6.428  0.00  0.00    -0.252 OA
ATOM     27  N   UNL     1       4.571   3.909  -8.601  0.00  0.00    -0.269 N 
ATOM     28  H   UNL     1       3.191   1.792  -8.714  0.00  0.00    +0.156 HD
ATOM     29  H   UNL     1       4.305   3.689  -9.507  0.00  0.00    +0.156 HD
BRANCH  27  30
ATOM     30  C   UNL     1       5.396   5.014  -8.363  0.00  0.00    +0.035 A 
ATOM     31  C   UNL     1       6.337   4.972  -7.343  0.00  0.00    +0.024 A 
ATOM     32  C   UNL     1       7.151   6.064  -7.110  0.00  0.00    +0.017 A 
ATOM     33  C   UNL     1       7.028   7.199  -7.892  0.00  0.00    +0.018 A 
ATOM     34  C   UNL     1       6.091   7.243  -8.909  0.00  0.00    +0.017 A 
ATOM     35  C   UNL     1       5.278   6.152  -9.149  0.00  0.00    +0.024 A 
ATOM     36 BR   UNL     1       8.143   8.692  -7.571  0.00  0.00    -0.050 Br
ENDBRANCH  27  30
ENDBRANCH   4  24
TORSDOF 7
