REMARK  Name = ZINC00965194
REMARK  11 active torsions:
REMARK  status: ('A' for Active; 'I' for Inactive)
REMARK    1  A    between atoms: C_1  and  C_2
REMARK    2  A    between atoms: C_2  and  C_3
REMARK    3  A    between atoms: C_3  and  C_5
REMARK    4  A    between atoms: C_3  and  N_6
REMARK    5  A    between atoms: C_7  and  C_9
REMARK    6  A    between atoms: C_12  and  C_14
REMARK    7  A    between atoms: C_14  and  S_15
REMARK    8  A    between atoms: S_15  and  C_16
REMARK    9  A    between atoms: C_19  and  C_28
REMARK   10  A    between atoms: N_20  and  C_21
REMARK   11  A    between atoms: C_25  and  C_27
REMARK                            x       y       z     vdW  Elec       q    Type
REMARK                         _______ _______ _______ _____ _____    ______ ____
ROOT
ATOM      1  C   UNL     1       1.881  -1.947   8.633  0.00  0.00    +0.197 A 
ATOM      2  N   UNL     1       3.007  -1.322   8.895  0.00  0.00    -0.122 NA
ATOM      3  N   UNL     1       3.097  -1.078  10.153  0.00  0.00    -0.125 NA
ATOM      4  C   UNL     1       2.032  -1.532  10.777  0.00  0.00    +0.205 A 
ATOM      5  N   UNL     1       1.216  -2.099   9.820  0.00  0.00    -0.268 N 
ENDROOT
BRANCH   5   6
ATOM      6  C   UNL     1      -0.032  -2.706  10.021  0.00  0.00    +0.051 A 
ATOM      7  C   UNL     1      -1.107  -1.952  10.471  0.00  0.00    +0.026 A 
ATOM      8  C   UNL     1      -2.337  -2.551  10.663  0.00  0.00    +0.002 A 
ATOM      9  C   UNL     1      -2.494  -3.903  10.419  0.00  0.00    +0.003 A 
ATOM     10  C   UNL     1      -1.423  -4.658   9.976  0.00  0.00    -0.048 A 
ATOM     11  C   UNL     1      -0.193  -4.062   9.777  0.00  0.00    +0.029 A 
ATOM     12  C   UNL     1      -1.599  -6.131   9.710  0.00  0.00    +0.044 C 
ENDBRANCH   5   6
BRANCH   4  13
ATOM     13  C   UNL     1       1.760  -1.447  12.220  0.00  0.00    +0.172 A 
ATOM     14  C   UNL     1       2.414  -0.650  13.112  0.00  0.00    +0.053 A 
ATOM     15  C   UNL     1       1.829  -0.886  14.371  0.00  0.00    +0.042 A 
ATOM     16  C   UNL     1       0.865  -1.810  14.192  0.00  0.00    +0.196 A 
ATOM     17  O   UNL     1       0.826  -2.147  12.892  0.00  0.00    -0.460 OA
ENDBRANCH   4  13
BRANCH   1  18
ATOM     18  S   UNL     1       1.327  -2.483   7.049  0.00  0.00    -0.076 S 
BRANCH  18  19
ATOM     19  C   UNL     1       2.713  -1.925   6.026  0.00  0.00    +0.173 C 
BRANCH  19  23
ATOM     20  C   UNL     1       1.794  -2.196   2.533  0.00  0.00    +0.164 A 
ATOM     21  C   UNL     1       2.414  -3.393   2.716  0.00  0.00    +0.230 A 
ATOM     22  O   UNL     1       2.816  -3.434   3.996  0.00  0.00    -0.446 OA
ATOM     23  C   UNL     1       2.452  -2.287   4.587  0.00  0.00    +0.206 A 
ATOM     24  N   UNL     1       1.844  -1.533   3.720  0.00  0.00    -0.208 NA
BRANCH  20  26
ATOM     25  N   UNL     1       0.604  -0.491   1.246  0.00  0.00    -0.307 N 
ATOM     26  C   UNL     1       1.188  -1.706   1.281  0.00  0.00    +0.266 C 
ATOM     27  O   UNL     1       1.214  -2.397   0.281  0.00  0.00    -0.268 OA
ATOM     28  H   UNL     1       0.580   0.134   2.150  0.00  0.00    +0.149 HD
BRANCH  25  29
ATOM     29  C   UNL     1       0.002  -0.004   0.002  0.00  0.00    +0.070 C 
ATOM     30  C   UNL     1      -1.429  -0.533  -0.113  0.00  0.00    +0.028 C 
BRANCH  29  32
ATOM     31  C   UNL     1       1.417   2.055  -0.000  0.00  0.00    +0.005 C 
ATOM     32  C   UNL     1      -0.019   1.526   0.010  0.00  0.00    +0.018 C 
ENDBRANCH  29  32
ENDBRANCH  25  29
ENDBRANCH  20  26
ENDBRANCH  19  23
ENDBRANCH  18  19
ENDBRANCH   1  18
TORSDOF 8
