REMARK  Name = ZINC58790769
REMARK  12 active torsions:
REMARK  status: ('A' for Active; 'I' for Inactive)
REMARK    1  A    between atoms: C_1  and  C_2
REMARK    2  A    between atoms: C_2  and  C_3
REMARK    3  A    between atoms: C_6  and  C_9
REMARK    4  A    between atoms: C_9  and  N_10
REMARK    5  A    between atoms: N_10  and  C_11
REMARK    6  A    between atoms: N_10  and  C_31
REMARK    7  A    between atoms: C_11  and  C_12
REMARK    8  A    between atoms: N_14  and  N_15
REMARK    9  A    between atoms: C_18  and  C_22
REMARK   10  A    between atoms: C_18  and  C_23
REMARK   11  A    between atoms: C_23  and  C_24
REMARK   12  A    between atoms: C_24  and  C_25
REMARK                            x       y       z     vdW  Elec       q    Type
REMARK                         _______ _______ _______ _____ _____    ______ ____
ROOT
ATOM      1  C   UNL     1      -8.693  -0.261   0.436  0.00  0.00    +0.213 C 
ATOM      2  O   UNL     1      -8.283   0.880   0.412  0.00  0.00    -0.276 OA
ATOM      3  N   UNL     1      -9.994  -0.504   0.690  0.00  0.00    -0.225 N 
ATOM      4  H   UNL     1     -10.321  -1.417   0.709  0.00  0.00    +0.173 HD
ENDROOT
BRANCH   3   5
ATOM      5  N   UNL     1     -10.873   0.560   0.926  0.00  0.00    -0.137 N 
ATOM      6  C   UNL     1     -11.345   0.897   2.142  0.00  0.00    +0.263 C 
ATOM      7  O   UNL     1     -11.098   0.356   3.199  0.00  0.00    -0.271 OA
ATOM      8  C   UNL     1     -12.248   2.094   1.915  0.00  0.00    +0.112 C 
ATOM      9  N   UNL     1     -12.172   2.313   0.460  0.00  0.00    -0.284 N 
ATOM     10  C   UNL     1     -11.343   1.373  -0.028  0.00  0.00    +0.326 C 
ATOM     11  O   UNL     1     -11.056   1.270  -1.205  0.00  0.00    -0.251 OA
ATOM     12  C   UNL     1     -13.683   1.773   2.337  0.00  0.00    +0.041 C 
ATOM     13  H   UNL     1     -12.629   3.002  -0.047  0.00  0.00    +0.151 HD
BRANCH   8  14
ATOM     14  C   UNL     1     -11.722   3.316   2.671  0.00  0.00    +0.040 C 
BRANCH  14  15
ATOM     15  C   UNL     1     -12.651   4.506   2.424  0.00  0.00    +0.038 C 
BRANCH  15  16
ATOM     16  C   UNL     1     -12.134   5.710   3.169  0.00  0.00    -0.047 A 
ATOM     17  C   UNL     1     -12.544   5.948   4.467  0.00  0.00    +0.003 A 
ATOM     18  C   UNL     1     -12.070   7.052   5.151  0.00  0.00    +0.000 A 
ATOM     19  C   UNL     1     -11.184   7.918   4.536  0.00  0.00    +0.000 A 
ATOM     20  C   UNL     1     -10.773   7.679   3.238  0.00  0.00    +0.000 A 
ATOM     21  C   UNL     1     -11.244   6.572   2.556  0.00  0.00    +0.003 A 
ENDBRANCH  15  16
ENDBRANCH  14  15
ENDBRANCH   8  14
ENDBRANCH   3   5
BRANCH   1  22
ATOM     22  C   UNL     1      -7.747  -1.406   0.182  0.00  0.00    +0.021 C 
BRANCH  22  23
ATOM     23  N   UNL     1      -6.374  -0.894   0.078  0.00  0.00    +0.390 N 
ATOM     24  H   UNL     1      -6.342  -0.157  -0.610  0.00  0.00    -0.080 HD
BRANCH  23  25
ATOM     25  C   UNL     1      -5.475  -1.983  -0.328  0.00  0.00    -0.068 C 
ATOM     26  C   UNL     1      -4.471  -1.690  -1.445  0.00  0.00    -0.017 C 
ATOM     27  C   UNL     1      -5.680  -2.587  -1.718  0.00  0.00    -0.017 C 
ENDBRANCH  23  25
BRANCH  23  28
ATOM     28  C   UNL     1      -5.948  -0.367   1.381  0.00  0.00    -0.042 C 
BRANCH  28  32
ATOM     29  C   UNL     1      -2.094   1.436   0.998  0.00  0.00    -0.048 A 
ATOM     30  C   UNL     1      -3.234   2.193   0.803  0.00  0.00    +0.004 A 
ATOM     31  C   UNL     1      -4.481   1.610   0.927  0.00  0.00    +0.002 A 
ATOM     32  C   UNL     1      -4.588   0.269   1.245  0.00  0.00    -0.064 A 
ATOM     33  C   UNL     1      -3.449  -0.489   1.439  0.00  0.00    +0.002 A 
ATOM     34  C   UNL     1      -2.201   0.093   1.311  0.00  0.00    +0.004 A 
BRANCH  29  36
ATOM     35  C   UNL     1      -0.260   1.958  -0.586  0.00  0.00    +0.009 C 
ATOM     36  C   UNL     1      -0.735   2.071   0.864  0.00  0.00    +0.032 C 
ENDBRANCH  29  36
ENDBRANCH  28  32
ENDBRANCH  23  28
ENDBRANCH  22  23
ENDBRANCH   1  22
TORSDOF 10
