REMARK  Name = ZINC35928338
REMARK  5 active torsions:
REMARK  status: ('A' for Active; 'I' for Inactive)
REMARK    1  A    between atoms: C_1  and  S_2
REMARK    2  A    between atoms: S_2  and  C_5
REMARK    3  A    between atoms: C_7  and  C_22
REMARK    4  A    between atoms: C_9  and  N_21
REMARK    5  A    between atoms: N_10  and  C_14
REMARK                            x       y       z     vdW  Elec       q    Type
REMARK                         _______ _______ _______ _____ _____    ______ ____
ROOT
ATOM      1  C   UNL     1       0.804  -0.211  -1.446  0.00  0.00    +0.273 A 
ATOM      2  N   UNL     1       0.074  -0.253  -2.549  0.00  0.00    -0.211 NA
ATOM      3  C   UNL     1       0.619  -0.372  -3.754  0.00  0.00    +0.090 A 
ATOM      4  C   UNL     1       2.026  -0.457  -3.843  0.00  0.00    +0.086 A 
ATOM      5  C   UNL     1       2.955  -0.585  -4.869  0.00  0.00    +0.131 A 
ATOM      6  N   UNL     1       4.179  -0.611  -4.307  0.00  0.00    -0.216 N 
ATOM      7  N   UNL     1       4.067  -0.501  -2.916  0.00  0.00    -0.144 NA
ATOM      8  C   UNL     1       2.797  -0.406  -2.587  0.00  0.00    +0.189 A 
ATOM      9  N   UNL     1       2.112  -0.277  -1.435  0.00  0.00    -0.190 NA
ENDROOT
BRANCH   6  10
ATOM     10  C   UNL     1       5.384  -0.730  -5.010  0.00  0.00    +0.068 A 
ATOM     11  C   UNL     1       5.445  -1.507  -6.159  0.00  0.00    +0.030 A 
ATOM     12  C   UNL     1       6.635  -1.623  -6.851  0.00  0.00    +0.040 A 
ATOM     13  C   UNL     1       7.767  -0.966  -6.399  0.00  0.00    +0.124 A 
ATOM     14  C   UNL     1       7.708  -0.191  -5.253  0.00  0.00    +0.040 A 
ATOM     15  C   UNL     1       6.519  -0.067  -4.561  0.00  0.00    +0.030 A 
ATOM     16  F   UNL     1       8.930  -1.081  -7.077  0.00  0.00    -0.205 F 
ENDBRANCH   6  10
BRANCH   3  17
ATOM     17  C   UNL     1      -0.224  -0.417  -4.970  0.00  0.00    +0.020 A 
ATOM     18  C   UNL     1      -0.173  -1.524  -5.818  0.00  0.00    +0.011 A 
ATOM     19  C   UNL     1      -0.961  -1.559  -6.949  0.00  0.00    +0.001 A 
ATOM     20  C   UNL     1      -1.802  -0.500  -7.244  0.00  0.00    +0.001 A 
ATOM     21  C   UNL     1      -1.858   0.600  -6.409  0.00  0.00    +0.020 A 
ATOM     22  C   UNL     1      -1.078   0.646  -5.269  0.00  0.00    +0.050 A 
ATOM     23 CL   UNL     1      -1.155   2.024  -4.217  0.00  0.00    -0.083 Cl
ENDBRANCH   3  17
BRANCH   1  25
ATOM     24  C   UNL     1      -0.163   1.739   0.370  0.00  0.00    +0.204 C 
ATOM     25  S   UNL     1      -0.032  -0.049   0.097  0.00  0.00    +0.029 S 
ATOM     26  O   UNL     1       0.850  -0.626   1.049  0.00  0.00    -0.167 OA
ATOM     27  O   UNL     1      -1.320  -0.606  -0.129  0.00  0.00    -0.167 OA
ENDBRANCH   1  25
BRANCH   5  28
ATOM     28  N   UNL     1       2.674  -0.671  -6.220  0.00  0.00    -0.342 N 
ATOM     29  H   UNL     1       1.755  -0.750  -6.520  0.00  0.00    +0.144 HD
ATOM     30  H   UNL     1       3.396  -0.652  -6.868  0.00  0.00    +0.144 HD
ENDBRANCH   5  28
TORSDOF 4
