REMARK  Name = ZINC35105335
REMARK  10 active torsions:
REMARK  status: ('A' for Active; 'I' for Inactive)
REMARK    1  A    between atoms: C_1  and  C_2
REMARK    2  A    between atoms: C_2  and  C_3
REMARK    3  A    between atoms: C_3  and  C_5
REMARK    4  A    between atoms: C_3  and  N_6
REMARK    5  A    between atoms: C_7  and  C_9
REMARK    6  A    between atoms: N_17  and  S_20
REMARK    7  A    between atoms: S_20  and  C_23
REMARK    8  A    between atoms: C_24  and  C_31
REMARK    9  A    between atoms: C_26  and  C_30
REMARK   10  A    between atoms: C_28  and  C_29
REMARK                            x       y       z     vdW  Elec       q    Type
REMARK                         _______ _______ _______ _____ _____    ______ ____
ROOT
ATOM      1  C   UNL     1      -1.172   2.469  -4.856  0.00  0.00    +0.028 C 
ATOM      2  C   UNL     1      -2.226   1.321  -4.884  0.00  0.00    +0.061 C 
ATOM      3  S   UNL     1      -2.207   0.944  -6.692  0.00  0.00    -0.174 S 
ATOM      4  C   UNL     1      -0.578   1.685  -7.098  0.00  0.00    -0.016 C 
ATOM      5  N   UNL     1      -0.074   2.124  -5.781  0.00  0.00    +0.397 N 
ATOM      6  C   UNL     1      -0.768   2.867  -8.035  0.00  0.00    +0.015 C 
ATOM      7  C   UNL     1       0.595   3.498  -8.347  0.00  0.00    +0.109 C 
ATOM      8  N   UNL     1       1.499   2.448  -8.836  0.00  0.00    -0.177 NA
ATOM      9  C   UNL     1       1.701   1.247  -8.014  0.00  0.00    +0.109 C 
ATOM     10  C   UNL     1       0.333   0.628  -7.704  0.00  0.00    +0.015 C 
ATOM     11  H   UNL     1       0.514   2.934  -5.910  0.00  0.00    -0.083 HD
ATOM     12  H   UNL     1       0.477   1.383  -5.374  0.00  0.00    -0.083 HD
ENDROOT
BRANCH   1  14
ATOM     13  N   UNL     1      -1.456   2.944  -2.445  0.00  0.00    -0.314 N 
ATOM     14  C   UNL     1      -0.628   2.623  -3.459  0.00  0.00    +0.200 C 
ATOM     15  O   UNL     1       0.555   2.457  -3.247  0.00  0.00    -0.278 OA
ATOM     16  H   UNL     1      -2.401   3.077  -2.615  0.00  0.00    +0.149 HD
BRANCH  13  17
ATOM     17  C   UNL     1      -0.927   3.094  -1.087  0.00  0.00    +0.070 C 
ATOM     18  C   UNL     1      -0.867   1.723  -0.409  0.00  0.00    +0.028 C 
BRANCH  17  20
ATOM     19  C   UNL     1      -1.803   5.425  -0.889  0.00  0.00    +0.005 C 
ATOM     20  C   UNL     1      -1.841   4.021  -0.283  0.00  0.00    +0.018 C 
ENDBRANCH  17  20
ENDBRANCH  13  17
ENDBRANCH   1  14
BRANCH   8  21
ATOM     21  S   UNL     1       2.276   2.616 -10.288  0.00  0.00    +0.061 S 
ATOM     22  O   UNL     1       2.590   1.303 -10.735  0.00  0.00    -0.153 OA
ATOM     23  O   UNL     1       1.500   3.519 -11.063  0.00  0.00    -0.153 OA
BRANCH  21  24
ATOM     24  C   UNL     1       3.812   3.418  -9.968  0.00  0.00    +0.111 A 
ATOM     25  C   UNL     1       4.974   2.675  -9.872  0.00  0.00    -0.024 A 
ATOM     26  C   UNL     1       6.178   3.305  -9.620  0.00  0.00    +0.008 A 
ATOM     27  C   UNL     1       6.221   4.678  -9.465  0.00  0.00    -0.050 A 
ATOM     28  C   UNL     1       5.060   5.421  -9.562  0.00  0.00    +0.008 A 
ATOM     29  C   UNL     1       3.856   4.792  -9.818  0.00  0.00    -0.024 A 
ATOM     30  C   UNL     1       2.591   5.603  -9.929  0.00  0.00    +0.046 C 
ATOM     31  C   UNL     1       7.535   5.364  -9.190  0.00  0.00    +0.044 C 
ATOM     32  C   UNL     1       4.927   1.178 -10.041  0.00  0.00    +0.046 C 
ENDBRANCH  21  24
ENDBRANCH   8  21
TORSDOF 5
