REMARK  Name = ZINC64380692
REMARK  10 active torsions:
REMARK  status: ('A' for Active; 'I' for Inactive)
REMARK    1  A    between atoms: C_1  and  C_2
REMARK    2  A    between atoms: N_6  and  O_7
REMARK    3  A    between atoms: O_7  and  C_8
REMARK    4  A    between atoms: C_8  and  C_9
REMARK    5  A    between atoms: N_11  and  C_12
REMARK    6  A    between atoms: C_12  and  C_13
REMARK    7  A    between atoms: C_13  and  C_14
REMARK    8  A    between atoms: C_33  and  C_42
REMARK    9  A    between atoms: C_38  and  C_39
REMARK   10  A    between atoms: C_38  and  O_41
REMARK                            x       y       z     vdW  Elec       q    Type
REMARK                         _______ _______ _______ _____ _____    ______ ____
ROOT
ATOM      1  C   UNL     1      -0.019   1.528   0.010  0.00  0.00    +0.016 C 
ATOM      2  C   UNL     1       0.002  -0.004   0.002  0.00  0.00    -0.007 C 
ATOM      3  C   UNL     1      -1.459  -0.396   0.132  0.00  0.00    +0.017 C 
ATOM      4  C   UNL     1      -1.681  -1.652   0.964  0.00  0.00    +0.059 C 
ATOM      5  C   UNL     1      -0.996  -1.471   2.304  0.00  0.00    +0.080 C 
ATOM      6  N   UNL     1      -1.605  -1.702   3.424  0.00  0.00    -0.089 NA
ATOM      7  C   UNL     1       0.404  -1.014   2.253  0.00  0.00    +0.026 C 
ATOM      8  C   UNL     1       0.848  -0.391   1.176  0.00  0.00    -0.062 C 
ATOM      9  C   UNL     1       2.333  -0.074   1.082  0.00  0.00    +0.031 C 
ATOM     10  C   UNL     1       2.840  -0.865  -0.130  0.00  0.00    +0.008 C 
ATOM     11  C   UNL     1       2.118  -0.424  -1.400  0.00  0.00    -0.003 C 
ATOM     12  C   UNL     1       0.602  -0.495  -1.300  0.00  0.00    +0.002 C 
ATOM     13  C   UNL     1      -0.111   0.078  -2.517  0.00  0.00    +0.005 C 
ATOM     14  C   UNL     1       0.465   1.387  -3.061  0.00  0.00    +0.011 C 
ATOM     15  C   UNL     1       1.960   1.262  -3.232  0.00  0.00    +0.011 C 
ATOM     16  C   UNL     1       2.579   0.935  -1.853  0.00  0.00    +0.002 C 
ATOM     17  C   UNL     1       4.082   1.081  -2.140  0.00  0.00    +0.008 C 
ATOM     18  C   UNL     1       4.144   2.337  -3.049  0.00  0.00    +0.049 C 
ATOM     19  C   UNL     1       2.728   2.516  -3.655  0.00  0.00    +0.132 C 
ATOM     20  C   UNL     1       2.268   0.166  -4.260  0.00  0.00    +0.015 C 
ENDROOT
BRANCH  19  21
ATOM     21  C   UNL     1       2.106   3.741  -3.136  0.00  0.00    -0.070 C 
ATOM     22  C   UNL     1       1.609   4.720  -2.721  0.00  0.00    +0.007 C 
ENDBRANCH  19  21
BRANCH  19  23
ATOM     23  O   UNL     1       2.812   2.572  -5.082  0.00  0.00    -0.376 OA
ATOM     24  H   UNL     1       3.288   3.344  -5.418  0.00  0.00    +0.211 HD
ENDBRANCH  19  23
BRANCH   6  25
ATOM     25  O   UNL     1      -0.922  -1.519   4.651  0.00  0.00    -0.384 OA
BRANCH  25  26
ATOM     26  C   UNL     1      -1.714  -1.810   5.805  0.00  0.00    +0.358 C 
BRANCH  26  27
ATOM     27  C   UNL     1      -0.892  -1.582   7.048  0.00  0.00    +0.253 C 
ATOM     28  O   UNL     1       0.257  -1.207   6.955  0.00  0.00    -0.272 OA
ATOM     29  N   UNL     1      -1.435  -1.794   8.263  0.00  0.00    -0.312 N 
ATOM     30  H   UNL     1      -2.355  -2.095   8.338  0.00  0.00    +0.149 HD
BRANCH  29  31
ATOM     31  C   UNL     1      -0.637  -1.573   9.471  0.00  0.00    +0.108 C 
BRANCH  31  32
ATOM     32  C   UNL     1      -1.484  -1.885  10.707  0.00  0.00    +0.052 C 
BRANCH  32  33
ATOM     33  C   UNL     1      -0.662  -1.656  11.949  0.00  0.00    -0.040 C 
ATOM     34  C   UNL     1      -0.628  -0.536  12.707  0.00  0.00    -0.001 A 
ATOM     35  C   UNL     1      -1.319   0.755  12.605  0.00  0.00    +0.010 A 
ATOM     36  C   UNL     1      -1.074   1.705  13.536  0.00  0.00    +0.001 A 
ATOM     37  C   UNL     1      -0.179   1.488  14.593  0.00  0.00    +0.002 A 
ATOM     38  C   UNL     1       0.492   0.328  14.754  0.00  0.00    +0.026 A 
ATOM     39  C   UNL     1       0.311  -0.741  13.833  0.00  0.00    +0.043 A 
ATOM     40  N   UNL     1       0.837  -1.940  13.774  0.00  0.00    -0.380 N 
ATOM     41  C   UNL     1       0.285  -2.635  12.605  0.00  0.00    +0.144 C 
ATOM     42  H   UNL     1       1.480  -2.308  14.400  0.00  0.00    +0.160 HD
ENDBRANCH  32  33
ENDBRANCH  31  32
ENDBRANCH  29  31
ENDBRANCH  26  27
ENDBRANCH  25  26
ENDBRANCH   6  25
TORSDOF 8
