REMARK  Name = ZINC62923535
REMARK  5 active torsions:
REMARK  status: ('A' for Active; 'I' for Inactive)
REMARK    1  A    between atoms: C_1  and  C_2
REMARK    2  A    between atoms: C_2  and  C_3
REMARK    3  A    between atoms: C_3  and  C_4
REMARK    4  A    between atoms: C_4  and  C_15
REMARK    5  A    between atoms: C_9  and  C_11
REMARK                            x       y       z     vdW  Elec       q    Type
REMARK                         _______ _______ _______ _____ _____    ______ ____
ROOT
ATOM      1  C   UNL     1       0.763  -2.041   1.233  0.00  0.00    +0.089 C 
ATOM      2  C   UNL     1       1.442  -2.576   2.515  0.00  0.00    +0.039 C 
ATOM      3  C   UNL     1       0.238  -2.890   3.437  0.00  0.00    +0.109 C 
ATOM      4  N   UNL     1      -0.779  -3.419   2.499  0.00  0.00    -0.293 N 
ATOM      5  C   UNL     1      -0.673  -2.595   1.280  0.00  0.00    +0.126 C 
ATOM      6  C   UNL     1      -1.628  -4.444   2.715  0.00  0.00    +0.320 C 
ATOM      7  O   UNL     1      -2.414  -4.772   1.852  0.00  0.00    -0.266 OA
ENDROOT
BRANCH   6   8
ATOM      8  C   UNL     1      -1.599  -5.182   4.029  0.00  0.00    +0.470 C 
ATOM      9  F   UNL     1      -2.564  -6.195   4.015  0.00  0.00    -0.162 F 
ATOM     10  F   UNL     1      -0.333  -5.745   4.220  0.00  0.00    -0.162 F 
ATOM     11  F   UNL     1      -1.875  -4.290   5.071  0.00  0.00    -0.162 F 
ENDBRANCH   6   8
BRANCH   1  12
ATOM     12  C   UNL     1       1.479  -2.547   0.008  0.00  0.00    +0.364 C 
ATOM     13  O   UNL     1       1.951  -1.757  -0.792  0.00  0.00    -0.246 OA
ATOM     14  O   UNL     1       1.588  -3.746  -0.183  0.00  0.00    -0.246 OA
ENDBRANCH   1  12
BRANCH   1  15
ATOM     15  C   UNL     1       0.742  -0.511   1.242  0.00  0.00    +0.019 C 
BRANCH  15  17
ATOM     16  C   UNL     1      -0.019   1.526   0.010  0.00  0.00    +0.004 C 
ATOM     17  C   UNL     1       0.002  -0.004   0.002  0.00  0.00    -0.002 C 
ENDBRANCH  15  17
ENDBRANCH   1  15
TORSDOF 4
