REMARK  Name = ZINC08791216
REMARK  10 active torsions:
REMARK  status: ('A' for Active; 'I' for Inactive)
REMARK    1  A    between atoms: C_1  and  O_2
REMARK    2  A    between atoms: O_2  and  C_3
REMARK    3  A    between atoms: C_13  and  C_17
REMARK    4  A    between atoms: N_24  and  C_27
REMARK    5  A    between atoms: C_25  and  O_26
REMARK    6  A    between atoms: C_27  and  C_28
REMARK    7  A    between atoms: C_30  and  O_36
REMARK    8  A    between atoms: C_32  and  O_34
REMARK    9  A    between atoms: O_34  and  C_35
REMARK   10  A    between atoms: O_36  and  C_37
REMARK                            x       y       z     vdW  Elec       q    Type
REMARK                         _______ _______ _______ _____ _____    ______ ____
ROOT
ATOM      1  C   UNL     1      -0.018   1.503   0.010  0.00  0.00    +0.068 A 
ATOM      2  C   UNL     1       1.184   2.232   0.003  0.00  0.00    +0.260 A 
ATOM      3  O   UNL     1       2.255   1.650  -0.011  0.00  0.00    -0.267 OA
ATOM      4  N   UNL     1       1.144   3.579   0.010  0.00  0.00    -0.275 N 
ATOM      5  H   UNL     1       1.997   4.101   0.005  0.00  0.00    +0.173 HD
ATOM      6  C   UNL     1      -0.035   4.227   0.024  0.00  0.00    +0.332 A 
ATOM      7  O   UNL     1      -0.050   5.443   0.031  0.00  0.00    -0.246 OA
ATOM      8  N   UNL     1      -1.198   3.550   0.032  0.00  0.00    -0.260 N 
ATOM      9  C   UNL     1      -1.203   2.178   0.019  0.00  0.00    +0.204 A 
ENDROOT
BRANCH   1  20
ATOM     10  C   UNL     1       2.916  -2.509   4.683  0.00  0.00    +0.121 A 
ATOM     11  C   UNL     1       2.194  -1.573   5.415  0.00  0.00    +0.047 A 
ATOM     12  C   UNL     1       1.317  -0.687   4.815  0.00  0.00    +0.030 A 
ATOM     13  C   UNL     1       1.181  -0.766   3.431  0.00  0.00    +0.047 A 
ATOM     14  C   UNL     1       1.917  -1.719   2.682  0.00  0.00    +0.006 A 
ATOM     15  C   UNL     1       2.799  -2.608   3.305  0.00  0.00    +0.056 A 
ATOM     16  C   UNL     1       1.535  -1.520   1.301  0.00  0.00    -0.022 A 
ATOM     17  C   UNL     1       0.631  -0.510   1.278  0.00  0.00    +0.011 A 
ATOM     18  N   UNL     1       0.417  -0.054   2.547  0.00  0.00    -0.359 N 
ATOM     19  H   UNL     1      -0.188   0.666   2.785  0.00  0.00    +0.166 HD
ATOM     20  C   UNL     1       0.002  -0.004   0.002  0.00  0.00    +0.018 C 
ATOM     21  C   UNL     1       1.018  -1.934  -1.070  0.00  0.00    -0.076 C 
ATOM     22  C   UNL     1       1.999  -2.251   0.066  0.00  0.00    +0.018 C 
ATOM     23  N   UNL     1       0.806  -0.474  -1.148  0.00  0.00    +0.388 N 
ATOM     24  H   UNL     1       1.716   0.001  -1.140  0.00  0.00    -0.084 HD
ATOM     25  H   UNL     1       0.311  -0.250  -2.019  0.00  0.00    -0.084 HD
BRANCH  10  27
ATOM     26  C   UNL     1       3.846  -3.210   6.757  0.00  0.00    +0.277 C 
ATOM     27  O   UNL     1       3.761  -3.350   5.337  0.00  0.00    -0.495 OA
ENDBRANCH  10  27
ENDBRANCH   1  20
BRANCH   9  28
ATOM     28  O   UNL     1      -2.371   1.502   0.021  0.00  0.00    -0.493 OA
ATOM     29  H   UNL     1      -3.154   2.070   0.028  0.00  0.00    +0.294 HD
ENDBRANCH   9  28
BRANCH   8  30
ATOM     30  C   UNL     1      -2.466   4.282   0.047  0.00  0.00    +0.165 C 
BRANCH  30  31
ATOM     31  C   UNL     1      -2.915   4.540  -1.369  0.00  0.00    -0.021 A 
ATOM     32  C   UNL     1      -2.526   5.697  -2.015  0.00  0.00    +0.051 A 
ATOM     33  C   UNL     1      -2.933   5.934  -3.321  0.00  0.00    +0.124 A 
ATOM     34  C   UNL     1      -3.738   5.013  -3.973  0.00  0.00    +0.091 A 
ATOM     35  C   UNL     1      -4.132   3.855  -3.320  0.00  0.00    +0.124 A 
ATOM     36  C   UNL     1      -3.718   3.621  -2.016  0.00  0.00    +0.051 A 
BRANCH  35  37
ATOM     37  O   UNL     1      -4.921   2.951  -3.956  0.00  0.00    -0.495 OA
ATOM     38  C   UNL     1      -5.309   3.258  -5.297  0.00  0.00    +0.277 C 
ENDBRANCH  35  37
BRANCH  33  39
ATOM     39  O   UNL     1      -2.545   7.070  -3.958  0.00  0.00    -0.495 OA
ATOM     40  C   UNL     1      -3.005   7.251  -5.299  0.00  0.00    +0.277 C 
ENDBRANCH  33  39
ENDBRANCH  30  31
ENDBRANCH   8  30
TORSDOF 7
