REMARK  Name = ZINC38980798
REMARK  5 active torsions:
REMARK  status: ('A' for Active; 'I' for Inactive)
REMARK    1  A    between atoms: C_2  and  C_3
REMARK    2  A    between atoms: C_3  and  N_4
REMARK    3  A    between atoms: N_4  and  C_5
REMARK    4  A    between atoms: N_8  and  S_9
REMARK    5  A    between atoms: S_9  and  C_12
REMARK                            x       y       z     vdW  Elec       q    Type
REMARK                         _______ _______ _______ _____ _____    ______ ____
ROOT
ATOM      1  C   UNL     1      -2.568  -2.473  -1.153  0.00  0.00    +0.219 C 
ATOM      2  C   UNL     1      -2.208  -3.931  -1.324  0.00  0.00    +0.188 C 
ATOM      3  N   UNL     1      -1.430  -4.524  -0.466  0.00  0.00    -0.110 NA
ATOM      4  N   UNL     1      -2.703  -4.606  -2.373  0.00  0.00    -0.226 NA
ATOM      5  C   UNL     1      -3.493  -4.030  -3.255  0.00  0.00    +0.089 A 
ATOM      6  C   UNL     1      -3.998  -4.773  -4.351  0.00  0.00    +0.030 A 
ATOM      7  C   UNL     1      -4.808  -4.186  -5.259  0.00  0.00    +0.002 A 
ATOM      8  C   UNL     1      -5.191  -2.837  -5.176  0.00  0.00    +0.002 A 
ATOM      9  C   UNL     1      -4.768  -2.039  -4.171  0.00  0.00    +0.027 A 
ATOM     10  C   UNL     1      -3.881  -2.602  -3.142  0.00  0.00    +0.063 A 
ATOM     11  N   UNL     1      -3.452  -1.862  -2.159  0.00  0.00    -0.362 N 
ATOM     12  H   UNL     1      -3.711  -0.930  -2.091  0.00  0.00    +0.162 HD
ENDROOT
BRANCH   3  13
ATOM     13  S   UNL     1      -1.044  -6.122  -0.664  0.00  0.00    +0.102 S 
ATOM     14  O   UNL     1      -2.249  -6.855  -0.493  0.00  0.00    -0.146 OA
ATOM     15  O   UNL     1      -0.262  -6.206  -1.848  0.00  0.00    -0.146 OA
BRANCH  13  16
ATOM     16  C   UNL     1       0.013  -6.571   0.671  0.00  0.00    +0.132 A 
ATOM     17  C   UNL     1      -0.405  -7.506   1.600  0.00  0.00    +0.050 A 
ATOM     18  C   UNL     1       0.425  -7.859   2.649  0.00  0.00    +0.043 A 
ATOM     19  C   UNL     1       1.674  -7.277   2.768  0.00  0.00    +0.021 A 
ATOM     20  C   UNL     1       2.093  -6.343   1.840  0.00  0.00    +0.023 A 
ATOM     21  C   UNL     1       1.265  -5.994   0.788  0.00  0.00    +0.068 A 
ATOM     22 CL   UNL     1       1.794  -4.826  -0.383  0.00  0.00    -0.082 Cl
ATOM     23 CL   UNL     1      -0.102  -9.032   3.815  0.00  0.00    -0.083 Cl
ENDBRANCH  13  16
ENDBRANCH   3  13
BRANCH   1  24
ATOM     24  N   UNL     1      -1.318  -1.702  -1.129  0.00  0.00    -0.287 NA
ATOM     25  H   UNL     1      -1.179  -1.210  -1.999  0.00  0.00    +0.125 HD
BRANCH  24  26
ATOM     26  C   UNL     1      -1.293  -0.775   0.010  0.00  0.00    +0.110 C 
BRANCH  26  28
ATOM     27  C   UNL     1      -0.016   1.306   0.009  0.00  0.00    +0.005 C 
ATOM     28  C   UNL     1       0.002  -0.004   0.002  0.00  0.00    -0.019 C 
ENDBRANCH  26  28
ENDBRANCH  24  26
ENDBRANCH   1  24
TORSDOF 5
