REMARK  Name = ZINC21232238
REMARK  6 active torsions:
REMARK  status: ('A' for Active; 'I' for Inactive)
REMARK    1  A    between atoms: C_1  and  O_2
REMARK    2  A    between atoms: O_2  and  C_3
REMARK    3  A    between atoms: C_6  and  O_37
REMARK    4  A    between atoms: C_7  and  C_9
REMARK    5  A    between atoms: C_14  and  C_24
REMARK    6  A    between atoms: O_37  and  C_38
REMARK                            x       y       z     vdW  Elec       q    Type
REMARK                         _______ _______ _______ _____ _____    ______ ____
ROOT
ATOM      1  C   UNL     1      -2.751   2.936  -2.739  0.00  0.00    +0.036 C 
ATOM      2  C   UNL     1      -1.282   3.058  -3.141  0.00  0.00    +0.060 C 
ATOM      3  C   UNL     1      -0.391   2.604  -1.997  0.00  0.00    +0.017 C 
ATOM      4  C   UNL     1      -0.800   1.638  -1.156  0.00  0.00    +0.036 C 
ATOM      5  C   UNL     1      -0.013   1.086   0.008  0.00  0.00    +0.138 C 
ATOM      6  N   UNL     1       1.378   1.485   0.038  0.00  0.00    -0.331 N 
ATOM      7  C   UNL     1       1.737   2.820   0.216  0.00  0.00    +0.049 A 
ATOM      8  C   UNL     1       2.427   3.241   1.341  0.00  0.00    +0.025 A 
ATOM      9  C   UNL     1       2.720   4.585   1.496  0.00  0.00    +0.002 A 
ATOM     10  C   UNL     1       2.325   5.503   0.539  0.00  0.00    +0.002 A 
ATOM     11  C   UNL     1       1.651   5.082  -0.595  0.00  0.00    +0.025 A 
ATOM     12  C   UNL     1       1.378   3.736  -0.762  0.00  0.00    +0.052 A 
ATOM     13  N   UNL     1       0.810   3.232  -1.926  0.00  0.00    -0.316 N 
ATOM     14  C   UNL     1      -2.073   1.043  -1.319  0.00  0.00    +0.163 C 
ATOM     15  O   UNL     1      -2.410   0.160  -0.555  0.00  0.00    -0.292 OA
ATOM     16  C   UNL     1      -3.022   1.465  -2.400  0.00  0.00    +0.088 C 
ATOM     17  H   UNL     1       2.170   0.731  -0.081  0.00  0.00    +0.147 HD
ATOM     18  H   UNL     1       1.412   3.372  -2.836  0.00  0.00    +0.152 HD
ENDROOT
BRANCH   5  19
ATOM     19  C   UNL     1      -0.669   1.545   1.285  0.00  0.00    +0.002 A 
ATOM     20  C   UNL     1      -1.491   2.597   1.426  0.00  0.00    +0.089 A 
ATOM     21  N   UNL     1      -1.893   2.703   2.730  0.00  0.00    -0.360 N 
ATOM     22  H   UNL     1      -2.579   3.508   3.030  0.00  0.00    +0.165 HD
ATOM     23  C   UNL     1      -1.317   1.702   3.480  0.00  0.00    +0.047 A 
ATOM     24  C   UNL     1      -0.525   0.933   2.607  0.00  0.00    +0.005 A 
ATOM     25  C   UNL     1       0.186  -0.164   3.097  0.00  0.00    +0.010 A 
ATOM     26  C   UNL     1       0.110  -0.486   4.423  0.00  0.00    +0.001 A 
ATOM     27  C   UNL     1      -0.670   0.270   5.287  0.00  0.00    +0.002 A 
ATOM     28  C   UNL     1      -1.380   1.356   4.826  0.00  0.00    +0.026 A 
ENDBRANCH   5  19
BRANCH   1  33
ATOM     29  C   UNL     1      -4.373   3.099  -6.148  0.00  0.00    +0.121 A 
ATOM     30  C   UNL     1      -5.249   4.162  -5.988  0.00  0.00    +0.049 A 
ATOM     31  C   UNL     1      -5.316   4.826  -4.779  0.00  0.00    +0.049 A 
ATOM     32  C   UNL     1      -4.507   4.429  -3.724  0.00  0.00    +0.124 A 
ATOM     33  C   UNL     1      -3.631   3.366  -3.885  0.00  0.00    +0.002 A 
ATOM     34  C   UNL     1      -3.560   2.706  -5.096  0.00  0.00    +0.053 A 
BRANCH  29  36
ATOM     35  C   UNL     1      -5.169   2.907  -8.381  0.00  0.00    +0.277 C 
ATOM     36  O   UNL     1      -4.307   2.445  -7.339  0.00  0.00    -0.495 OA
ENDBRANCH  29  36
BRANCH  32  37
ATOM     37  O   UNL     1      -4.573   5.083  -2.534  0.00  0.00    -0.495 OA
ATOM     38  C   UNL     1      -5.497   6.168  -2.440  0.00  0.00    +0.277 C 
ENDBRANCH  32  37
ENDBRANCH   1  33
TORSDOF 4
