REMARK  Name = ZINC14476121
REMARK  8 active torsions:
REMARK  status: ('A' for Active; 'I' for Inactive)
REMARK    1  A    between atoms: C_4  and  C_7
REMARK    2  A    between atoms: C_7  and  C_8
REMARK    3  A    between atoms: C_8  and  C_9
REMARK    4  A    between atoms: C_9  and  O_10
REMARK    5  A    between atoms: O_10  and  C_11
REMARK    6  A    between atoms: C_18  and  C_27
REMARK    7  A    between atoms: C_29  and  N_34
REMARK    8  A    between atoms: C_32  and  O_33
REMARK                            x       y       z     vdW  Elec       q    Type
REMARK                         _______ _______ _______ _____ _____    ______ ____
ROOT
ATOM      1  C   UNL     1      -0.461   1.709  -3.541  0.00  0.00    +0.142 A 
ATOM      2  C   UNL     1      -1.595   2.500  -3.570  0.00  0.00    +0.047 A 
ATOM      3  C   UNL     1      -2.207   2.776  -4.779  0.00  0.00    +0.004 A 
ATOM      4  C   UNL     1      -1.687   2.264  -5.950  0.00  0.00    +0.006 A 
ATOM      5  C   UNL     1      -0.548   1.468  -5.933  0.00  0.00    -0.016 A 
ATOM      6  C   UNL     1       0.070   1.194  -4.728  0.00  0.00    +0.074 A 
ATOM      7  N   UNL     1       1.218   0.401  -4.642  0.00  0.00    -0.334 N 
ATOM      8  C   UNL     1       1.998   0.424  -5.880  0.00  0.00    +0.109 C 
ATOM      9  C   UNL     1       1.123  -0.051  -7.042  0.00  0.00    +0.029 C 
ATOM     10  C   UNL     1      -0.036   0.946  -7.243  0.00  0.00    +0.049 C 
ATOM     11  C   UNL     1       0.592   2.058  -8.052  0.00  0.00    -0.023 C 
ATOM     12  C   UNL     1       1.666   1.628  -8.665  0.00  0.00    -0.030 C 
ATOM     13  C   UNL     1       1.915   0.184  -8.360  0.00  0.00    +0.033 C 
ATOM     14  H   UNL     1       1.562  -0.197  -3.785  0.00  0.00    +0.147 HD
ENDROOT
BRANCH   8  15
ATOM     15  C   UNL     1       3.188  -0.491  -5.740  0.00  0.00    +0.017 A 
ATOM     16  C   UNL     1       4.439  -0.065  -6.143  0.00  0.00    +0.041 A 
ATOM     17  C   UNL     1       5.531  -0.902  -6.010  0.00  0.00    +0.127 A 
ATOM     18  C   UNL     1       5.373  -2.171  -5.484  0.00  0.00    +0.036 A 
ATOM     19  C   UNL     1       4.124  -2.603  -5.084  0.00  0.00    +0.048 A 
ATOM     20  C   UNL     1       3.027  -1.763  -5.211  0.00  0.00    +0.122 A 
BRANCH  17  21
ATOM     21  N   UNL     1       6.871  -0.441  -6.438  0.00  0.00    +0.056 N 
ATOM     22  O   UNL     1       7.833  -1.179  -6.326  0.00  0.00    -0.126 OA
ATOM     23  O   UNL     1       7.011   0.677  -6.902  0.00  0.00    -0.126 OA
ENDBRANCH  17  21
BRANCH  20  24
ATOM     24  O   UNL     1       1.796  -2.187  -4.819  0.00  0.00    -0.506 OA
ATOM     25  H   UNL     1       1.670  -3.196  -4.400  0.00  0.00    +0.292 HD
ENDBRANCH  20  24
ENDBRANCH   8  15
BRANCH   1  26
ATOM     26  O   UNL     1       0.144   1.436  -2.354  0.00  0.00    -0.490 OA
BRANCH  26  27
ATOM     27  C   UNL     1      -0.447   1.999  -1.181  0.00  0.00    +0.229 C 
BRANCH  27  28
ATOM     28  C   UNL     1       0.366   1.585   0.048  0.00  0.00    +0.046 C 
BRANCH  28  29
ATOM     29  C   UNL     1      -0.266   2.188   1.304  0.00  0.00    +0.038 C 
BRANCH  29  33
ATOM     30  C   UNL     1       2.004   1.033   4.734  0.00  0.00    +0.000 A 
ATOM     31  C   UNL     1       2.320   2.195   4.055  0.00  0.00    +0.000 A 
ATOM     32  C   UNL     1       1.586   2.568   2.945  0.00  0.00    +0.003 A 
ATOM     33  C   UNL     1       0.535   1.780   2.514  0.00  0.00    -0.047 A 
ATOM     34  C   UNL     1       0.216   0.621   3.196  0.00  0.00    +0.003 A 
ATOM     35  C   UNL     1       0.954   0.244   4.303  0.00  0.00    +0.000 A 
ENDBRANCH  29  33
ENDBRANCH  28  29
ENDBRANCH  27  28
ENDBRANCH  26  27
ENDBRANCH   1  26
TORSDOF 8
