REMARK  Name = ZINC39443720
REMARK  9 active torsions:
REMARK  status: ('A' for Active; 'I' for Inactive)
REMARK    1  A    between atoms: C_1  and  C_2
REMARK    2  A    between atoms: C_5  and  N_8
REMARK    3  A    between atoms: C_9  and  O_41
REMARK    4  A    between atoms: C_11  and  C_20
REMARK    5  A    between atoms: C_12  and  C_14
REMARK    6  A    between atoms: C_20  and  C_21
REMARK    7  A    between atoms: C_23  and  C_35
REMARK    8  A    between atoms: N_25  and  C_28
REMARK    9  A    between atoms: C_31  and  C_34
REMARK                            x       y       z     vdW  Elec       q    Type
REMARK                         _______ _______ _______ _____ _____    ______ ____
ROOT
ATOM      1  N   UNL     1      -1.046  -4.667   0.076  0.00  0.00    -0.221 N 
ATOM      2  C   UNL     1      -0.493  -6.028  -0.024  0.00  0.00    +0.249 C 
ATOM      3  C   UNL     1      -0.131  -6.401   1.396  0.00  0.00    +0.002 C 
ATOM      4  C   UNL     1      -0.449  -5.369   2.172  0.00  0.00    +0.055 C 
ATOM      5  N   UNL     1      -0.986  -4.323   1.433  0.00  0.00    -0.261 N 
ATOM      6  H   UNL     1      -1.280  -3.476   1.804  0.00  0.00    +0.170 HD
ENDROOT
BRANCH   1  11
ATOM      7  C   UNL     1      -3.000  -1.460  -4.172  0.00  0.00    +0.044 C 
ATOM      8  C   UNL     1      -2.481  -2.312  -3.043  0.00  0.00    -0.050 A 
ATOM      9  C   UNL     1      -2.491  -1.824  -1.749  0.00  0.00    +0.005 A 
ATOM     10  C   UNL     1      -2.016  -2.603  -0.712  0.00  0.00    +0.025 A 
ATOM     11  C   UNL     1      -1.528  -3.877  -0.970  0.00  0.00    +0.051 A 
ATOM     12  C   UNL     1      -1.520  -4.365  -2.271  0.00  0.00    +0.025 A 
ATOM     13  C   UNL     1      -2.001  -3.583  -3.303  0.00  0.00    +0.005 A 
ENDBRANCH   1  11
BRANCH   4  14
ATOM     14  C   UNL     1      -0.250  -5.336   3.640  0.00  0.00    -0.003 A 
ATOM     15  C   UNL     1       0.364  -4.236   4.238  0.00  0.00    +0.010 A 
ATOM     16  C   UNL     1       0.547  -4.212   5.606  0.00  0.00    +0.001 A 
ATOM     17  C   UNL     1       0.124  -5.275   6.383  0.00  0.00    +0.000 A 
ATOM     18  C   UNL     1      -0.486  -6.369   5.794  0.00  0.00    +0.001 A 
ATOM     19  C   UNL     1      -0.680  -6.402   4.429  0.00  0.00    +0.010 A 
ENDBRANCH   4  14
BRANCH   2  20
ATOM     20  O   UNL     1      -1.475  -6.928  -0.542  0.00  0.00    -0.369 OA
ATOM     21  H   UNL     1      -1.780  -6.706  -1.433  0.00  0.00    +0.212 HD
ENDBRANCH   2  20
BRANCH   3  22
ATOM     22  C   UNL     1       0.478  -7.703   1.849  0.00  0.00    +0.056 C 
BRANCH  22  23
ATOM     23  C   UNL     1       1.994  -7.653   1.653  0.00  0.00    +0.132 C 
ATOM     24  C   UNL     1       2.634  -8.947   2.109  0.00  0.00    +0.079 C 
ATOM     25  N   UNL     1       3.441  -8.649   3.075  0.00  0.00    -0.176 NA
ATOM     26  N   UNL     1       3.455  -7.288   3.365  0.00  0.00    -0.160 N 
ATOM     27  C   UNL     1       2.614  -6.605   2.557  0.00  0.00    +0.249 C 
ATOM     28  O   UNL     1       2.400  -5.411   2.554  0.00  0.00    -0.273 OA
BRANCH  26  29
ATOM     29  C   UNL     1       4.240  -6.701   4.364  0.00  0.00    +0.060 A 
ATOM     30  C   UNL     1       4.179  -5.331   4.582  0.00  0.00    +0.026 A 
ATOM     31  C   UNL     1       4.955  -4.755   5.569  0.00  0.00    +0.005 A 
ATOM     32  C   UNL     1       5.792  -5.540   6.339  0.00  0.00    -0.050 A 
ATOM     33  C   UNL     1       5.855  -6.905   6.125  0.00  0.00    +0.005 A 
ATOM     34  C   UNL     1       5.077  -7.489   5.144  0.00  0.00    +0.026 A 
ATOM     35  C   UNL     1       6.638  -4.908   7.414  0.00  0.00    +0.044 C 
ENDBRANCH  26  29
BRANCH  24  36
ATOM     36  C   UNL     1       2.383 -10.292   1.558  0.00  0.00    -0.001 A 
ATOM     37  C   UNL     1       1.603 -10.445   0.410  0.00  0.00    +0.010 A 
ATOM     38  C   UNL     1       1.372 -11.706  -0.100  0.00  0.00    +0.001 A 
ATOM     39  C   UNL     1       1.913 -12.817   0.522  0.00  0.00    +0.000 A 
ATOM     40  C   UNL     1       2.687 -12.673   1.660  0.00  0.00    +0.001 A 
ATOM     41  C   UNL     1       2.930 -11.418   2.178  0.00  0.00    +0.010 A 
ENDBRANCH  24  36
ENDBRANCH  22  23
ENDBRANCH   3  22
TORSDOF 7
