REMARK  Name = ZINC15013739
REMARK  5 active torsions:
REMARK  status: ('A' for Active; 'I' for Inactive)
REMARK    1  A    between atoms: C_1  and  C_2
REMARK    2  A    between atoms: C_5  and  N_8
REMARK    3  A    between atoms: C_14  and  C_15
REMARK    4  A    between atoms: N_21  and  C_26
REMARK    5  A    between atoms: N_24  and  C_25
REMARK                            x       y       z     vdW  Elec       q    Type
REMARK                         _______ _______ _______ _____ _____    ______ ____
ROOT
ATOM      1  N   UNL     1      -0.036  -4.135   0.083  0.00  0.00    -0.226 NA
ATOM      2  C   UNL     1       0.762  -4.780   0.903  0.00  0.00    +0.166 C 
ATOM      3  N   UNL     1       0.722  -6.108   1.270  0.00  0.00    -0.260 N 
ATOM      4  C   UNL     1       1.611  -6.600   2.116  0.00  0.00    +0.256 C 
ATOM      5  O   UNL     1       1.591  -7.771   2.450  0.00  0.00    -0.269 OA
ATOM      6  C   UNL     1       2.629  -5.667   2.636  0.00  0.00    +0.078 C 
ATOM      7  C   UNL     1       3.646  -5.898   3.504  0.00  0.00    +0.028 C 
ATOM      8  S   UNL     1       2.167  -4.152   1.808  0.00  0.00    -0.049 S 
ATOM      9  H   UNL     1       0.036  -6.687   0.903  0.00  0.00    +0.157 HD
ENDROOT
BRANCH   7  10
ATOM     10  C   UNL     1       3.950  -7.271   3.930  0.00  0.00    -0.022 A 
ATOM     11  C   UNL     1       3.899  -8.321   3.003  0.00  0.00    +0.010 A 
ATOM     12  C   UNL     1       4.181  -9.598   3.394  0.00  0.00    +0.028 A 
ATOM     13  C   UNL     1       4.522  -9.866   4.715  0.00  0.00    +0.070 A 
ATOM     14  C   UNL     1       4.578  -8.827   5.650  0.00  0.00    +0.070 A 
ATOM     15  C   UNL     1       4.298  -7.531   5.260  0.00  0.00    +0.036 A 
ATOM     16  N   UNL     1       4.942  -9.401   6.867  0.00  0.00    -0.295 N 
ATOM     17  C   UNL     1       5.100 -10.725   6.679  0.00  0.00    +0.330 A 
ATOM     18  O   UNL     1       5.417 -11.521   7.543  0.00  0.00    -0.246 OA
ATOM     19  N   UNL     1       4.854 -11.034   5.393  0.00  0.00    -0.295 N 
ATOM     20  C   UNL     1       4.923 -12.374   4.806  0.00  0.00    +0.154 C 
ATOM     21  C   UNL     1       5.122  -8.686   8.133  0.00  0.00    +0.154 C 
ENDBRANCH   7  10
BRANCH   1  26
ATOM     22  C   UNL     1       0.800   1.354  -0.936  0.00  0.00    +0.044 C 
ATOM     23  C   UNL     1       0.577  -0.112  -0.664  0.00  0.00    -0.050 A 
ATOM     24  C   UNL     1       0.315  -0.975  -1.714  0.00  0.00    +0.005 A 
ATOM     25  C   UNL     1       0.110  -2.317  -1.472  0.00  0.00    +0.028 A 
ATOM     26  C   UNL     1       0.167  -2.805  -0.165  0.00  0.00    +0.067 A 
ATOM     27  C   UNL     1       0.431  -1.928   0.890  0.00  0.00    +0.028 A 
ATOM     28  C   UNL     1       0.640  -0.589   0.633  0.00  0.00    +0.005 A 
ENDBRANCH   1  26
TORSDOF 2
