REMARK  Name = ZINC66349159
REMARK  4 active torsions:
REMARK  status: ('A' for Active; 'I' for Inactive)
REMARK    1  A    between atoms: C_3  and  C_9
REMARK    2  A    between atoms: C_9  and  N_10
REMARK    3  A    between atoms: C_11  and  C_13
REMARK    4  A    between atoms: C_13  and  N_14
REMARK                            x       y       z     vdW  Elec       q    Type
REMARK                         _______ _______ _______ _____ _____    ______ ____
ROOT
ATOM      1  N   UNL     1       4.287   2.122   1.305  0.00  0.00    -0.310 N 
ATOM      2  C   UNL     1       5.460   2.745   1.534  0.00  0.00    +0.231 C 
ATOM      3  O   UNL     1       6.006   3.358   0.641  0.00  0.00    -0.274 OA
ATOM      4  H   UNL     1       3.851   1.631   2.019  0.00  0.00    +0.149 HD
ENDROOT
BRANCH   1   5
ATOM      5  C   UNL     1       3.671   2.185  -0.023  0.00  0.00    +0.141 C 
BRANCH   5   8
ATOM      6  C   UNL     1      -0.017   1.379   0.010  0.00  0.00    +0.016 A 
ATOM      7  C   UNL     1       1.171   2.087   0.002  0.00  0.00    +0.008 A 
ATOM      8  C   UNL     1       2.377   1.413  -0.013  0.00  0.00    -0.012 A 
ATOM      9  C   UNL     1       2.397   0.029  -0.021  0.00  0.00    +0.047 A 
ATOM     10  C   UNL     1       1.209  -0.679  -0.013  0.00  0.00    +0.035 A 
ATOM     11  C   UNL     1       0.002  -0.004   0.002  0.00  0.00    +0.019 A 
ATOM     12 BR   UNL     1      -1.623  -0.972   0.013  0.00  0.00    -0.050 Br
ATOM     13 CL   UNL     1       3.913  -0.817  -0.041  0.00  0.00    -0.083 Cl
ENDBRANCH   5   8
ENDBRANCH   1   5
BRANCH   2  14
ATOM     14  C   UNL     1       6.094   2.679   2.900  0.00  0.00    +0.205 C 
BRANCH  14  15
ATOM     15  N   UNL     1       7.352   3.430   2.891  0.00  0.00    -0.277 N 
ATOM     16  C   UNL     1       8.595   2.742   2.539  0.00  0.00    +0.111 C 
ATOM     17  C   UNL     1       9.563   3.746   1.904  0.00  0.00    +0.038 C 
ATOM     18  C   UNL     1       9.758   4.916   2.874  0.00  0.00    +0.107 C 
ATOM     19  N   UNL     1       8.452   5.486   3.208  0.00  0.00    -0.299 N 
ATOM     20  C   UNL     1       7.341   4.735   3.200  0.00  0.00    +0.303 C 
ATOM     21  O   UNL     1       6.282   5.257   3.491  0.00  0.00    -0.253 OA
ATOM     22  H   UNL     1       8.388   6.427   3.435  0.00  0.00    +0.150 HD
ENDBRANCH  14  15
ENDBRANCH   2  14
TORSDOF 4
