REMARK  Name = ZINC39494569
REMARK  12 active torsions:
REMARK  status: ('A' for Active; 'I' for Inactive)
REMARK    1  A    between atoms: C_1  and  C_2
REMARK    2  A    between atoms: C_2  and  C_3
REMARK    3  A    between atoms: C_2  and  S_4
REMARK    4  A    between atoms: S_4  and  C_7
REMARK    5  A    between atoms: C_7  and  C_9
REMARK    6  A    between atoms: C_9  and  C_11
REMARK    7  A    between atoms: C_9  and  C_18
REMARK    8  A    between atoms: C_16  and  O_17
REMARK    9  A    between atoms: C_18  and  C_20
REMARK   10  A    between atoms: C_18  and  N_26
REMARK   11  A    between atoms: C_27  and  S_29
REMARK   12  A    between atoms: S_29  and  C_32
REMARK                            x       y       z     vdW  Elec       q    Type
REMARK                         _______ _______ _______ _____ _____    ______ ____
ROOT
ATOM      1  C   UNL     1      -1.605   2.349  -1.550  0.00  0.00    +0.121 C 
ENDROOT
BRANCH   1   2
ATOM      2  C   UNL     1      -0.559   2.457  -2.630  0.00  0.00    -0.026 A 
ATOM      3  C   UNL     1       0.409   1.478  -2.754  0.00  0.00    +0.005 A 
ATOM      4  C   UNL     1       1.369   1.576  -3.744  0.00  0.00    +0.000 A 
ATOM      5  C   UNL     1       1.360   2.654  -4.610  0.00  0.00    +0.000 A 
ATOM      6  C   UNL     1       0.392   3.633  -4.486  0.00  0.00    +0.000 A 
ATOM      7  C   UNL     1      -0.571   3.531  -3.498  0.00  0.00    +0.005 A 
ENDBRANCH   1   2
BRANCH   1   8
ATOM      8  N   UNL     1      -1.006   1.766  -0.346  0.00  0.00    -0.289 N 
ATOM      9  C   UNL     1      -0.317   2.547   0.509  0.00  0.00    +0.357 C 
ATOM     10  O   UNL     1      -0.271   3.746   0.333  0.00  0.00    -0.249 OA
ATOM     11  H   UNL     1      -1.107   0.819  -0.165  0.00  0.00    +0.151 HD
BRANCH   9  12
ATOM     12  S   UNL     1       0.519   1.825   1.882  0.00  0.00    +0.076 S 
ATOM     13  O   UNL     1       0.904   0.517   1.482  0.00  0.00    -0.160 OA
ATOM     14  O   UNL     1       1.458   2.789   2.339  0.00  0.00    -0.160 OA
BRANCH  12  15
ATOM     15  C   UNL     1      -0.668   1.629   3.169  0.00  0.00    +0.099 A 
ATOM     16  C   UNL     1      -0.872   2.646   4.083  0.00  0.00    +0.027 A 
ATOM     17  C   UNL     1      -1.803   2.492   5.093  0.00  0.00    +0.002 A 
ATOM     18  C   UNL     1      -2.531   1.321   5.189  0.00  0.00    +0.000 A 
ATOM     19  C   UNL     1      -2.328   0.304   4.275  0.00  0.00    +0.002 A 
ATOM     20  C   UNL     1      -1.400   0.460   3.262  0.00  0.00    +0.027 A 
ENDBRANCH  12  15
ENDBRANCH   9  12
ENDBRANCH   1   8
BRANCH   1  21
ATOM     21  C   UNL     1      -2.748   1.455  -2.035  0.00  0.00    +0.137 C 
BRANCH  21  22
ATOM     22  C   UNL     1      -3.287   1.990  -3.337  0.00  0.00    +0.008 A 
ATOM     23  C   UNL     1      -2.459   2.092  -4.438  0.00  0.00    +0.008 A 
ATOM     24  C   UNL     1      -2.952   2.583  -5.632  0.00  0.00    +0.001 A 
ATOM     25  C   UNL     1      -4.275   2.974  -5.728  0.00  0.00    +0.004 A 
ATOM     26  C   UNL     1      -5.107   2.874  -4.630  0.00  0.00    +0.046 A 
ATOM     27  C   UNL     1      -4.616   2.376  -3.432  0.00  0.00    +0.121 A 
BRANCH  27  28
ATOM     28  O   UNL     1      -5.434   2.272  -2.351  0.00  0.00    -0.506 OA
ATOM     29  H   UNL     1      -5.450   3.061  -1.793  0.00  0.00    +0.292 HD
ENDBRANCH  27  28
ENDBRANCH  21  22
BRANCH  21  30
ATOM     30  C   UNL     1      -2.236   0.053  -2.242  0.00  0.00    +0.277 C 
ATOM     31  O   UNL     1      -1.215  -0.303  -1.704  0.00  0.00    -0.271 OA
BRANCH  30  32
ATOM     32  S   UNL     1      -3.127  -1.068  -3.269  0.00  0.00    +0.033 S 
ATOM     33  O   UNL     1      -2.166  -2.036  -3.668  0.00  0.00    -0.166 OA
ATOM     34  O   UNL     1      -3.769  -0.244  -4.233  0.00  0.00    -0.166 OA
BRANCH  32  36
ATOM     35  C   UNL     1      -5.300  -0.743  -1.641  0.00  0.00    +0.032 C 
ATOM     36  C   UNL     1      -4.359  -1.825  -2.175  0.00  0.00    +0.133 C 
ATOM     37  C   UNL     1      -5.167  -2.863  -2.957  0.00  0.00    +0.032 C 
ENDBRANCH  32  36
ENDBRANCH  30  32
ENDBRANCH  21  30
ENDBRANCH   1  21
TORSDOF 10
