REMARK  Name = ZINC35004426
REMARK  11 active torsions:
REMARK  status: ('A' for Active; 'I' for Inactive)
REMARK    1  A    between atoms: C_1  and  C_2
REMARK    2  A    between atoms: C_2  and  C_3
REMARK    3  A    between atoms: C_3  and  C_5
REMARK    4  A    between atoms: C_3  and  C_6
REMARK    5  A    between atoms: C_6  and  C_8
REMARK    6  A    between atoms: C_6  and  N_24
REMARK    7  A    between atoms: C_14  and  C_17
REMARK    8  A    between atoms: N_20  and  C_21
REMARK    9  A    between atoms: C_21  and  C_22
REMARK   10  A    between atoms: C_21  and  C_23
REMARK   11  A    between atoms: N_27  and  C_28
REMARK                            x       y       z     vdW  Elec       q    Type
REMARK                         _______ _______ _______ _____ _____    ______ ____
ROOT
ATOM      1  C   UNL     1      -1.309   0.168   1.589  0.00  0.00    +0.163 C 
ENDROOT
BRANCH   1   2
ATOM      2  C   UNL     1      -2.652  -0.065   2.234  0.00  0.00    +0.236 C 
ATOM      3  O   UNL     1      -3.653   0.404   1.735  0.00  0.00    -0.274 OA
ATOM      4  N   UNL     1      -2.739  -0.793   3.364  0.00  0.00    -0.297 N 
ATOM      5  C   UNL     1      -1.526  -1.278   4.038  0.00  0.00    +0.127 C 
ATOM      6  C   UNL     1      -1.628  -2.800   4.197  0.00  0.00    +0.128 C 
ATOM      7  N   UNL     1      -2.938  -3.124   4.779  0.00  0.00    -0.280 N 
ATOM      8  C   UNL     1      -4.152  -2.639   4.105  0.00  0.00    +0.092 C 
ATOM      9  C   UNL     1      -4.049  -1.113   3.949  0.00  0.00    +0.130 C 
ATOM     10  C   UNL     1      -4.272  -3.297   2.729  0.00  0.00    +0.030 C 
ATOM     11  C   UNL     1      -3.026  -3.852   5.909  0.00  0.00    +0.303 C 
ATOM     12  O   UNL     1      -4.114  -4.196   6.329  0.00  0.00    -0.253 OA
ATOM     13  N   UNL     1      -1.907  -4.200   6.575  0.00  0.00    -0.297 N 
ATOM     14  H   UNL     1      -1.045  -3.864   6.284  0.00  0.00    +0.150 HD
BRANCH  13  15
ATOM     15  C   UNL     1      -1.992  -5.087   7.738  0.00  0.00    +0.068 C 
ATOM     16  C   UNL     1      -1.991  -6.543   7.271  0.00  0.00    +0.027 C 
ATOM     17  C   UNL     1      -0.790  -4.844   8.654  0.00  0.00    +0.027 C 
ENDBRANCH  13  15
ENDBRANCH   1   2
BRANCH   1  18
ATOM     18  N   UNL     1      -1.192   1.576   1.201  0.00  0.00    -0.288 N 
ATOM     19  C   UNL     1       0.025   2.134   1.050  0.00  0.00    +0.301 C 
ATOM     20  O   UNL     1       1.025   1.448   1.146  0.00  0.00    -0.253 OA
ATOM     21  N   UNL     1       0.135   3.452   0.791  0.00  0.00    -0.294 N 
ATOM     22  H   UNL     1      -1.990   2.106   1.052  0.00  0.00    +0.151 HD
ATOM     23  H   UNL     1      -0.662   3.999   0.714  0.00  0.00    +0.151 HD
BRANCH  21  24
ATOM     24  C   UNL     1       1.459   4.059   0.627  0.00  0.00    +0.037 C 
ATOM     25  C   UNL     1       2.184   3.391  -0.543  0.00  0.00    +0.029 C 
ATOM     26  C   UNL     1       3.566   4.025  -0.715  0.00  0.00    -0.008 C 
ATOM     27  C   UNL     1       3.410   5.520  -0.998  0.00  0.00    +0.007 C 
ATOM     28  C   UNL     1       2.685   6.188   0.173  0.00  0.00    -0.008 C 
ATOM     29  C   UNL     1       1.303   5.554   0.344  0.00  0.00    +0.029 C 
ATOM     30  C   UNL     1       3.498   5.993   1.454  0.00  0.00    +0.007 C 
ATOM     31  C   UNL     1       3.654   4.497   1.737  0.00  0.00    -0.008 C 
ATOM     32  C   UNL     1       4.379   3.830   0.567  0.00  0.00    +0.007 C 
ATOM     33  C   UNL     1       2.272   3.864   1.909  0.00  0.00    +0.029 C 
ENDBRANCH  21  24
ENDBRANCH   1  18
BRANCH   1  34
ATOM     34  C   UNL     1      -1.180  -0.716   0.348  0.00  0.00    +0.015 C 
ATOM     35  C   UNL     1      -2.389  -0.496  -0.564  0.00  0.00    +0.010 C 
BRANCH  34  37
ATOM     36  C   UNL     1       0.188  -2.449   1.518  0.00  0.00    +0.004 C 
ATOM     37  C   UNL     1      -1.121  -2.185   0.772  0.00  0.00    +0.002 C 
ENDBRANCH  34  37
ENDBRANCH   1  34
TORSDOF 6
