REMARK  Name = ZINC20412465
REMARK  8 active torsions:
REMARK  status: ('A' for Active; 'I' for Inactive)
REMARK    1  A    between atoms: C_1  and  O_2
REMARK    2  A    between atoms: O_2  and  C_3
REMARK    3  A    between atoms: C_8  and  C_9
REMARK    4  A    between atoms: N_11  and  C_12
REMARK    5  A    between atoms: C_12  and  N_14
REMARK    6  A    between atoms: C_20  and  C_24
REMARK    7  A    between atoms: C_24  and  O_26
REMARK    8  A    between atoms: O_26  and  C_27
REMARK                            x       y       z     vdW  Elec       q    Type
REMARK                         _______ _______ _______ _____ _____    ______ ____
ROOT
ATOM      1  C   UNL     1       1.213  -9.024  -1.974  0.00  0.00    +0.163 C 
ATOM      2  S   UNL     1       0.393  -8.601  -0.531  0.00  0.00    -0.016 S 
ENDROOT
BRANCH   1   3
ATOM      3  N   UNL     1       1.669  -8.059  -2.797  0.00  0.00    -0.169 NA
ATOM      4  C   UNL     1       1.474  -6.728  -2.478  0.00  0.00    +0.163 A 
ATOM      5  N   UNL     1       0.875  -6.211  -1.428  0.00  0.00    -0.335 N 
ATOM      6  C   UNL     1       0.755  -4.888  -1.240  0.00  0.00    +0.055 A 
ATOM      7  C   UNL     1       0.137  -4.214  -0.157  0.00  0.00    +0.027 A 
ATOM      8  C   UNL     1       0.094  -2.860  -0.108  0.00  0.00    +0.017 A 
ATOM      9  C   UNL     1       0.659  -2.072  -1.122  0.00  0.00    +0.060 A 
ATOM     10  C   UNL     1       1.273  -2.705  -2.209  0.00  0.00    +0.032 A 
ATOM     11  C   UNL     1       1.317  -4.071  -2.252  0.00  0.00    +0.039 A 
ATOM     12  S   UNL     1       1.971  -5.272  -3.387  0.00  0.00    -0.052 S 
ATOM     13  H   UNL     1       0.447  -6.870  -0.658  0.00  0.00    +0.168 HD
BRANCH   9  14
ATOM     14  C   UNL     1       0.601  -0.602  -1.047  0.00  0.00    +0.339 C 
ATOM     15  O   UNL     1       1.093   0.071  -1.931  0.00  0.00    -0.245 OA
BRANCH  14  16
ATOM     16  O   UNL     1       0.002  -0.004   0.002  0.00  0.00    -0.464 OA
ATOM     17  C   UNL     1      -0.018   1.448   0.010  0.00  0.00    +0.280 C 
ENDBRANCH  14  16
ENDBRANCH   9  14
ENDBRANCH   1   3
BRANCH   1  20
ATOM     18  C   UNL     1       0.948 -11.286  -1.461  0.00  0.00    +0.253 C 
ATOM     19  O   UNL     1       0.366 -10.985  -0.437  0.00  0.00    -0.270 OA
ATOM     20  N   UNL     1       1.403 -10.321  -2.285  0.00  0.00    -0.262 N 
ATOM     21  H   UNL     1       1.930 -10.593  -3.212  0.00  0.00    +0.157 HD
BRANCH  18  27
ATOM     22  C   UNL     1       0.689 -13.711  -0.945  0.00  0.00    +0.132 A 
ATOM     23  C   UNL     1       0.884 -15.043  -1.279  0.00  0.00    +0.047 A 
ATOM     24  C   UNL     1       1.546 -15.376  -2.443  0.00  0.00    +0.019 A 
ATOM     25  C   UNL     1       2.015 -14.384  -3.291  0.00  0.00    +0.019 A 
ATOM     26  C   UNL     1       1.824 -13.055  -2.978  0.00  0.00    +0.032 A 
ATOM     27  C   UNL     1       1.156 -12.705  -1.802  0.00  0.00    +0.080 A 
ATOM     28 BR   UNL     1       2.920 -14.856  -4.883  0.00  0.00    -0.050 Br
BRANCH  22  30
ATOM     29  C   UNL     1      -0.404 -14.463   1.026  0.00  0.00    +0.277 C 
ATOM     30  O   UNL     1       0.044 -13.384   0.202  0.00  0.00    -0.494 OA
ENDBRANCH  22  30
ENDBRANCH  18  27
ENDBRANCH   1  20
TORSDOF 6
