REMARK  Name = ZINC04139576
REMARK  4 active torsions:
REMARK  status: ('A' for Active; 'I' for Inactive)
REMARK    1  A    between atoms: C_3  and  N_26
REMARK    2  A    between atoms: C_4  and  N_23
REMARK    3  A    between atoms: C_6  and  N_7
REMARK    4  A    between atoms: N_26  and  C_27
REMARK                            x       y       z     vdW  Elec       q    Type
REMARK                         _______ _______ _______ _____ _____    ______ ____
ROOT
ATOM      1  C   UNL     1      -0.163   1.069   0.303  0.00  0.00    +0.026 A 
ATOM      2  C   UNL     1       0.952   1.856   0.512  0.00  0.00    +0.027 A 
ATOM      3  C   UNL     1       2.221   1.329   0.317  0.00  0.00    +0.058 A 
ATOM      4  C   UNL     1       2.369   0.008  -0.090  0.00  0.00    +0.149 A 
ATOM      5  C   UNL     1       1.255  -0.778  -0.299  0.00  0.00    +0.058 A 
ATOM      6  C   UNL     1      -0.014  -0.250  -0.103  0.00  0.00    +0.046 A 
ENDROOT
BRANCH   6   7
ATOM      7  N   UNL     1      -1.148  -1.051  -0.316  0.00  0.00    -0.210 N 
ATOM      8  C   UNL     1      -1.465  -2.080   0.477  0.00  0.00    +0.231 C 
ATOM      9  O   UNL     1      -0.832  -2.438   1.447  0.00  0.00    -0.274 OA
ATOM     10  C   UNL     1      -2.736  -2.728  -0.023  0.00  0.00    +0.095 C 
ATOM     11  C   UNL     1      -3.876  -2.425   1.000  0.00  0.00    +0.025 C 
ATOM     12  C   UNL     1      -5.105  -2.297   0.029  0.00  0.00    +0.016 C 
ATOM     13  C   UNL     1      -4.436  -1.153  -0.816  0.00  0.00    +0.025 C 
ATOM     14  C   UNL     1      -3.105  -1.875  -1.272  0.00  0.00    +0.095 C 
ATOM     15  C   UNL     1      -2.001  -0.843  -1.325  0.00  0.00    +0.231 C 
ATOM     16  O   UNL     1      -1.904   0.036  -2.154  0.00  0.00    -0.274 OA
ATOM     17  C   UNL     1      -3.995  -0.215   0.315  0.00  0.00    -0.027 C 
ATOM     18  C   UNL     1      -3.659  -0.955   1.378  0.00  0.00    -0.027 C 
ENDBRANCH   6   7
BRANCH   4  19
ATOM     19  N   UNL     1       3.723  -0.555  -0.298  0.00  0.00    +0.058 N 
ATOM     20  O   UNL     1       4.593   0.129  -0.784  0.00  0.00    -0.126 OA
ATOM     21  O   UNL     1       3.957  -1.698   0.017  0.00  0.00    -0.126 OA
ENDBRANCH   4  19
BRANCH   3  22
ATOM     22  N   UNL     1       3.350   2.126   0.529  0.00  0.00    -0.331 N 
ATOM     23  H   UNL     1       4.236   1.732   0.493  0.00  0.00    +0.147 HD
BRANCH  22  24
ATOM     24  C   UNL     1       3.196   3.556   0.804  0.00  0.00    +0.157 C 
ATOM     25  C   UNL     1       4.536   4.267   0.601  0.00  0.00    +0.032 C 
ATOM     26  C   UNL     1       5.688   3.372   1.019  0.00  0.00    +0.004 C 
ATOM     27  C   UNL     1       5.731   3.083   2.509  0.00  0.00    +0.019 C 
ATOM     28  C   UNL     1       4.533   2.232   2.934  0.00  0.00    +0.104 C 
ATOM     29  N   UNL     1       3.401   3.126   3.229  0.00  0.00    -0.314 N 
ATOM     30  C   UNL     1       2.756   3.753   2.240  0.00  0.00    +0.233 C 
ATOM     31  O   UNL     1       1.821   4.484   2.490  0.00  0.00    -0.274 OA
ATOM     32  H   UNL     1       3.119   3.260   4.147  0.00  0.00    +0.149 HD
ENDBRANCH  22  24
ENDBRANCH   3  22
TORSDOF 4
