REMARK  Name = ZINC67583050
REMARK  8 active torsions:
REMARK  status: ('A' for Active; 'I' for Inactive)
REMARK    1  A    between atoms: C_1  and  C_2
REMARK    2  A    between atoms: C_2  and  C_4
REMARK    3  A    between atoms: C_2  and  N_11
REMARK    4  A    between atoms: C_8  and  O_10
REMARK    5  A    between atoms: N_11  and  C_12
REMARK    6  A    between atoms: N_15  and  C_16
REMARK    7  A    between atoms: C_16  and  C_18
REMARK    8  A    between atoms: C_16  and  C_19
REMARK                            x       y       z     vdW  Elec       q    Type
REMARK                         _______ _______ _______ _____ _____    ______ ____
ROOT
ATOM      1  N   UNL     1       1.207  -0.180  -0.947  0.00  0.00    -0.282 N 
ATOM      2  C   UNL     1       0.726   0.489  -2.158  0.00  0.00    +0.134 C 
ATOM      3  C   UNL     1       2.115  -1.171  -1.039  0.00  0.00    +0.303 C 
ATOM      4  O   UNL     1       2.514  -1.726  -0.033  0.00  0.00    -0.253 OA
ATOM      5  N   UNL     1       2.581  -1.548  -2.246  0.00  0.00    -0.293 N 
ATOM      6  H   UNL     1       2.263  -1.105  -3.048  0.00  0.00    +0.151 HD
ENDROOT
BRANCH   1   8
ATOM      7  C   UNL     1       0.915   1.733   0.549  0.00  0.00    +0.033 C 
ATOM      8  C   UNL     1       0.700   0.229   0.366  0.00  0.00    +0.104 C 
BRANCH   8   9
ATOM      9  C   UNL     1      -0.772  -0.082   0.455  0.00  0.00    -0.024 A 
ATOM     10  C   UNL     1      -1.293  -1.160  -0.237  0.00  0.00    +0.006 A 
ATOM     11  C   UNL     1      -2.643  -1.448  -0.157  0.00  0.00    +0.004 A 
ATOM     12  C   UNL     1      -3.474  -0.660   0.615  0.00  0.00    +0.045 A 
ATOM     13  C   UNL     1      -2.954   0.421   1.311  0.00  0.00    +0.117 A 
ATOM     14  C   UNL     1      -1.598   0.705   1.234  0.00  0.00    +0.050 A 
BRANCH  13  15
ATOM     15  O   UNL     1      -3.769   1.197   2.072  0.00  0.00    -0.507 OA
ATOM     16  H   UNL     1      -3.853   0.900   2.988  0.00  0.00    +0.292 HD
ENDBRANCH  13  15
ENDBRANCH   8   9
ENDBRANCH   1   8
BRANCH   5  17
ATOM     17  C   UNL     1       3.569  -2.625  -2.346  0.00  0.00    +0.102 C 
ATOM     18  C   UNL     1       2.856  -3.978  -2.280  0.00  0.00    +0.033 C 
BRANCH  17  19
ATOM     19  C   UNL     1       4.307  -2.510  -3.655  0.00  0.00    -0.020 A 
ATOM     20  C   UNL     1       3.707  -1.929  -4.730  0.00  0.00    +0.006 A 
ATOM     21  C   UNL     1       4.373  -1.813  -5.948  0.00  0.00    +0.001 A 
ATOM     22  C   UNL     1       5.644  -2.279  -6.099  0.00  0.00    +0.008 A 
ATOM     23  C   UNL     1       6.295  -2.885  -5.012  0.00  0.00    -0.018 A 
ATOM     24  C   UNL     1       5.620  -2.997  -3.771  0.00  0.00    -0.013 A 
ATOM     25  C   UNL     1       6.274  -3.598  -2.682  0.00  0.00    +0.009 A 
ATOM     26  C   UNL     1       7.546  -4.058  -2.831  0.00  0.00    +0.001 A 
ATOM     27  C   UNL     1       8.213  -3.942  -4.049  0.00  0.00    +0.001 A 
ATOM     28  C   UNL     1       7.606  -3.378  -5.129  0.00  0.00    +0.008 A 
ENDBRANCH  17  19
ENDBRANCH   5  17
TORSDOF 5
