REMARK  Name = ZINC12705520
REMARK  8 active torsions:
REMARK  status: ('A' for Active; 'I' for Inactive)
REMARK    1  A    between atoms: C_1  and  C_2
REMARK    2  A    between atoms: C_2  and  C_31
REMARK    3  A    between atoms: C_6  and  C_17
REMARK    4  A    between atoms: C_11  and  O_16
REMARK    5  A    between atoms: C_12  and  O_15
REMARK    6  A    between atoms: C_25  and  S_27
REMARK    7  A    between atoms: S_27  and  C_28
REMARK    8  A    between atoms: C_28  and  C_29
REMARK                            x       y       z     vdW  Elec       q    Type
REMARK                         _______ _______ _______ _____ _____    ______ ____
ROOT
ATOM      1  C   UNL     1       6.411   5.710   0.934  0.00  0.00    +0.036 C 
ATOM      2  C   UNL     1       5.578   5.922   2.200  0.00  0.00    +0.064 C 
ATOM      3  C   UNL     1       4.370   4.982   2.171  0.00  0.00    +0.098 C 
ATOM      4  C   UNL     1       4.863   3.549   2.399  0.00  0.00    +0.181 C 
ATOM      5  C   UNL     1       5.837   3.154   1.287  0.00  0.00    +0.081 C 
ATOM      6  C   UNL     1       5.126   3.321  -0.059  0.00  0.00    +0.059 C 
ATOM      7  C   UNL     1       3.767   2.672   0.001  0.00  0.00    +0.006 A 
ATOM      8  C   UNL     1       3.120   2.373  -1.189  0.00  0.00    +0.011 A 
ATOM      9  C   UNL     1       1.872   1.783  -1.179  0.00  0.00    +0.050 A 
ATOM     10  C   UNL     1       1.256   1.486   0.028  0.00  0.00    +0.162 A 
ATOM     11  C   UNL     1       1.897   1.788   1.222  0.00  0.00    +0.201 A 
ATOM     12  C   UNL     1       3.160   2.377   1.208  0.00  0.00    +0.172 A 
ATOM     13  O   UNL     1       3.762   2.646   2.397  0.00  0.00    -0.464 OA
ATOM     14  N   UNL     1       5.549   3.508   3.696  0.00  0.00    -0.287 N 
ATOM     15  C   UNL     1       6.386   4.547   4.033  0.00  0.00    +0.153 C 
ATOM     16  N   UNL     1       6.406   5.658   3.370  0.00  0.00    -0.257 NA
ATOM     17  C   UNL     1       5.089   7.371   2.245  0.00  0.00    +0.036 C 
ATOM     18  H   UNL     1       5.416   2.763   4.303  0.00  0.00    +0.152 HD
ENDROOT
BRANCH   6  19
ATOM     19  C   UNL     1       5.946   2.669  -1.142  0.00  0.00    -0.021 A 
ATOM     20  C   UNL     1       6.224   1.316  -1.079  0.00  0.00    +0.005 A 
ATOM     21  C   UNL     1       6.976   0.718  -2.073  0.00  0.00    +0.000 A 
ATOM     22  C   UNL     1       7.450   1.472  -3.130  0.00  0.00    +0.001 A 
ATOM     23  C   UNL     1       7.174   2.824  -3.194  0.00  0.00    +0.020 A 
ATOM     24  C   UNL     1       6.417   3.423  -2.202  0.00  0.00    +0.045 A 
ATOM     25 CL   UNL     1       6.062   5.120  -2.286  0.00  0.00    -0.083 Cl
ENDBRANCH   6  19
BRANCH  11  26
ATOM     26  O   UNL     1       1.292   1.505   2.408  0.00  0.00    -0.501 OA
ATOM     27  H   UNL     1       1.493   0.623   2.751  0.00  0.00    +0.292 HD
ENDBRANCH  11  26
BRANCH  10  28
ATOM     28  O   UNL     1       0.026   0.906   0.041  0.00  0.00    -0.503 OA
ATOM     29  H   UNL     1       0.047  -0.060   0.041  0.00  0.00    +0.292 HD
ENDBRANCH  10  28
BRANCH  15  30
ATOM     30  S   UNL     1       7.465   4.359   5.413  0.00  0.00    -0.087 S 
BRANCH  30  31
ATOM     31  C   UNL     1       8.293   5.969   5.387  0.00  0.00    +0.103 C 
BRANCH  31  32
ATOM     32  C   UNL     1       9.292   6.039   6.513  0.00  0.00    -0.023 C 
ATOM     33  C   UNL     1      10.571   6.130   6.248  0.00  0.00    +0.005 C 
ENDBRANCH  31  32
ENDBRANCH  30  31
ENDBRANCH  15  30
TORSDOF 6
