REMARK  Name = ZINC13395840
REMARK  9 active torsions:
REMARK  status: ('A' for Active; 'I' for Inactive)
REMARK    1  A    between atoms: CG_4  and  CB_7
REMARK    2  A    between atoms: CB_7  and  CA_8
REMARK    3  A    between atoms: CA_8  and  C_10
REMARK    4  A    between atoms: CA_8  and  N_12
REMARK    5  A    between atoms: C_13  and  C_15
REMARK    6  A    between atoms: C_15  and  S_16
REMARK    7  A    between atoms: S_16  and  C_17
REMARK    8  A    between atoms: C_20  and  C_29
REMARK    9  A    between atoms: N_21  and  C_22
REMARK                            x       y       z     vdW  Elec       q    Type
REMARK                         _______ _______ _______ _____ _____    ______ ____
ROOT
ATOM      1  C   UNK A   0      -3.705  -0.012  -6.383  0.00  0.00    +0.197 A 
ATOM      2  N   UNK A   0      -4.022  -1.025  -5.607  0.00  0.00    -0.122 NA
ATOM      3  N   UNK A   0      -4.239  -2.074  -6.316  0.00  0.00    -0.128 NA
ATOM      4  C   UNK A   0      -4.074  -1.798  -7.589  0.00  0.00    +0.169 A 
ATOM      5  N   UNK A   0      -3.732  -0.467  -7.673  0.00  0.00    -0.270 N 
ENDROOT
BRANCH   5   6
ATOM      6  C   UNK A   0      -3.464   0.269  -8.836  0.00  0.00    +0.051 A 
ATOM      7  C   UNK A   0      -4.470   0.483  -9.770  0.00  0.00    +0.028 A 
ATOM      8  C   UNK A   0      -4.205   1.213 -10.912  0.00  0.00    +0.022 A 
ATOM      9  C   UNK A   0      -2.937   1.719 -11.133  0.00  0.00    +0.041 A 
ATOM     10  C   UNK A   0      -1.931   1.502 -10.207  0.00  0.00    +0.022 A 
ATOM     11  C   UNK A   0      -2.192   0.778  -9.060  0.00  0.00    +0.028 A 
ATOM     12 CL   UNK A   0      -2.605   2.630 -12.573  0.00  0.00    -0.084 Cl
ENDBRANCH   5   6
BRANCH   4  13
ATOM     13  C   UNK A   0      -4.233  -2.738  -8.719  0.00  0.00    +0.020 A 
ATOM     14  C   UNK A   0      -3.737  -2.406  -9.981  0.00  0.00    +0.011 A 
ATOM     15  C   UNK A   0      -3.884  -3.289 -11.031  0.00  0.00    +0.001 A 
ATOM     16  C   UNK A   0      -4.530  -4.497 -10.837  0.00  0.00    +0.000 A 
ATOM     17  C   UNK A   0      -5.028  -4.830  -9.590  0.00  0.00    +0.001 A 
ATOM     18  C   UNK A   0      -4.883  -3.958  -8.530  0.00  0.00    +0.011 A 
ENDBRANCH   4  13
BRANCH   1  19
ATOM     19  S   UNK A   0      -3.323   1.627  -5.859  0.00  0.00    -0.076 S 
BRANCH  19  20
ATOM     20  C   UNK A   0      -3.504   1.435  -4.069  0.00  0.00    +0.173 C 
BRANCH  20  22
ATOM     21  N   PHE A   1      -3.291   2.846  -2.049  0.00  0.00    -0.301 N 
ATOM     22  C   UNK A   0      -3.217   2.750  -3.391  0.00  0.00    +0.224 C 
ATOM     23  O   UNK A   0      -2.919   3.721  -4.053  0.00  0.00    -0.275 OA
ATOM     24  H   PHE A   1      -3.530   2.070  -1.519  0.00  0.00    +0.150 HD
BRANCH  21  25
ATOM     25  CA  PHE A   1      -3.012   4.125  -1.390  0.00  0.00    +0.191 C 
BRANCH  25  26
ATOM     26  C   PHE A   1      -4.262   4.966  -1.375  0.00  0.00    +0.376 C 
ATOM     27  O   PHE A   1      -5.282   4.541  -1.865  0.00  0.00    -0.244 OA
ATOM     28  OXT PHE A   1      -4.243   6.187  -0.818  0.00  0.00    -0.244 OA
ENDBRANCH  25  26
BRANCH  25  29
ATOM     29  CB  PHE A   1      -2.553   3.869   0.047  0.00  0.00    +0.069 C 
BRANCH  29  33
ATOM     30  CZ  PHE A   1       1.175   1.783   0.000  0.00  0.00    +0.000 A 
ATOM     31  CE1 PHE A   1      -0.013   1.076   0.008  0.00  0.00    +0.000 A 
ATOM     32  CD1 PHE A   1      -1.219   1.751   0.017  0.00  0.00    +0.004 A 
ATOM     33  CG  PHE A   1      -1.238   3.133   0.030  0.00  0.00    -0.045 A 
ATOM     34  CD2 PHE A   1      -0.050   3.840   0.022  0.00  0.00    +0.004 A 
ATOM     35  CE2 PHE A   1       1.156   3.165   0.008  0.00  0.00    +0.000 A 
ENDBRANCH  29  33
ENDBRANCH  25  29
ENDBRANCH  21  25
ENDBRANCH  20  22
ENDBRANCH  19  20
ENDBRANCH   1  19
TORSDOF 9
