REMARK  Name = ZINC39665692
REMARK  9 active torsions:
REMARK  status: ('A' for Active; 'I' for Inactive)
REMARK    1  A    between atoms: C_1  and  C_2
REMARK    2  A    between atoms: C_2  and  C_4
REMARK    3  A    between atoms: C_2  and  O_29
REMARK    4  A    between atoms: C_4  and  N_5
REMARK    5  A    between atoms: C_6  and  C_8
REMARK    6  A    between atoms: C_19  and  C_21
REMARK    7  A    between atoms: O_29  and  C_30
REMARK    8  A    between atoms: C_33  and  O_36
REMARK    9  A    between atoms: O_36  and  C_37
REMARK                            x       y       z     vdW  Elec       q    Type
REMARK                         _______ _______ _______ _____ _____    ______ ____
ROOT
ATOM      1  C   UNL     1       2.092  -4.698   2.784  0.00  0.00    +0.100 C 
ATOM      2  C   UNL     1       0.710  -5.248   2.366  0.00  0.00    +0.121 C 
ATOM      3  N   UNL     1       0.535  -6.476   3.176  0.00  0.00    -0.296 N 
ATOM      4  C   UNL     1       1.091  -6.123   4.505  0.00  0.00    +0.115 C 
ATOM      5  C   UNL     1       2.338  -5.274   4.189  0.00  0.00    -0.004 C 
ATOM      6  C   UNL     1       2.479  -4.146   5.206  0.00  0.00    -0.010 C 
ATOM      7  C   UNL     1       2.780  -4.741   6.584  0.00  0.00    -0.082 C 
ATOM      8  N   UNL     1       4.019  -5.526   6.519  0.00  0.00    +0.379 N 
ATOM      9  C   UNL     1       3.844  -6.664   5.609  0.00  0.00    -0.082 C 
ATOM     10  C   UNL     1       3.587  -6.150   4.189  0.00  0.00    -0.010 C 
ATOM     11  C   UNL     1      -0.007  -7.649   2.792  0.00  0.00    +0.248 C 
ATOM     12  O   UNL     1      -0.161  -8.541   3.603  0.00  0.00    -0.270 OA
ATOM     13  H   UNL     1       4.770  -4.941   6.183  0.00  0.00    -0.086 HD
ATOM     14  H   UNL     1       4.249  -5.867   7.441  0.00  0.00    -0.086 HD
ENDROOT
BRANCH  11  15
ATOM     15  C   UNL     1      -0.413  -7.849   1.386  0.00  0.00    +0.057 A 
ATOM     16  C   UNL     1      -1.056  -6.825   0.688  0.00  0.00    +0.014 A 
ATOM     17  C   UNL     1      -1.433  -7.018  -0.624  0.00  0.00    +0.002 A 
ATOM     18  C   UNL     1      -1.176  -8.224  -1.252  0.00  0.00    +0.021 A 
ATOM     19  C   UNL     1      -0.540  -9.245  -0.568  0.00  0.00    +0.060 A 
ATOM     20  C   UNL     1      -0.151  -9.063   0.746  0.00  0.00    +0.071 A 
ATOM     21 CL   UNL     1       0.654 -10.342   1.601  0.00  0.00    -0.081 Cl
ATOM     22 CL   UNL     1      -0.223 -10.755  -1.365  0.00  0.00    -0.082 Cl
ENDBRANCH  11  15
BRANCH   1  24
ATOM     23  N   UNL     1       3.188  -2.489   2.582  0.00  0.00    -0.312 N 
ATOM     24  C   UNL     1       2.065  -3.192   2.832  0.00  0.00    +0.218 C 
ATOM     25  O   UNL     1       1.033  -2.612   3.096  0.00  0.00    -0.275 OA
ATOM     26  H   UNL     1       4.013  -2.953   2.371  0.00  0.00    +0.149 HD
BRANCH  23  27
ATOM     27  C   UNL     1       3.161  -1.025   2.629  0.00  0.00    +0.148 C 
BRANCH  27  29
ATOM     28  C   UNL     1       4.558   1.041   2.480  0.00  0.00    +0.053 C 
ATOM     29  C   UNL     1       4.555  -0.479   2.310  0.00  0.00    +0.187 C 
BRANCH  29  30
ATOM     30  O   UNL     1       4.898  -0.809   0.962  0.00  0.00    -0.488 OA
BRANCH  30  31
ATOM     31  C   UNL     1       6.222  -0.865   0.659  0.00  0.00    +0.121 A 
ATOM     32  C   UNL     1       6.625  -1.130  -0.642  0.00  0.00    +0.049 A 
ATOM     33  C   UNL     1       7.970  -1.187  -0.950  0.00  0.00    +0.049 A 
ATOM     34  C   UNL     1       8.918  -0.981   0.041  0.00  0.00    +0.120 A 
ATOM     35  C   UNL     1       8.515  -0.715   1.341  0.00  0.00    +0.049 A 
ATOM     36  C   UNL     1       7.170  -0.653   1.649  0.00  0.00    +0.049 A 
BRANCH  34  37
ATOM     37  O   UNL     1      10.242  -1.038  -0.263  0.00  0.00    -0.495 OA
ATOM     38  C   UNL     1      11.163  -0.815   0.807  0.00  0.00    +0.277 C 
ENDBRANCH  34  37
ENDBRANCH  30  31
ENDBRANCH  29  30
ENDBRANCH  27  29
ENDBRANCH  23  27
ENDBRANCH   1  24
TORSDOF 7
