REMARK  Name = ZINC38683765
REMARK  15 active torsions:
REMARK  status: ('A' for Active; 'I' for Inactive)
REMARK    1  A    between atoms: C_1  and  C_2
REMARK    2  A    between atoms: C_2  and  C_3
REMARK    3  A    between atoms: C_3  and  O_4
REMARK    4  A    between atoms: O_4  and  C_5
REMARK    5  A    between atoms: C_8  and  C_14
REMARK    6  A    between atoms: C_10  and  O_11
REMARK    7  A    between atoms: O_11  and  C_12
REMARK    8  A    between atoms: C_12  and  C_13
REMARK    9  A    between atoms: C_19  and  O_28
REMARK   10  A    between atoms: C_23  and  N_27
REMARK   11  A    between atoms: C_24  and  C_25
REMARK   12  A    between atoms: O_28  and  C_29
REMARK   13  A    between atoms: C_29  and  C_31
REMARK   14  A    between atoms: C_34  and  O_37
REMARK   15  A    between atoms: O_37  and  C_38
REMARK                            x       y       z     vdW  Elec       q    Type
REMARK                         _______ _______ _______ _____ _____    ______ ____
ROOT
ATOM      1  C   UNL     1       3.274  -4.367  -5.654  0.00  0.00    +0.098 C 
ATOM      2  C   UNL     1       2.565  -3.976  -6.923  0.00  0.00    +0.008 A 
ATOM      3  C   UNL     1       1.398  -4.629  -7.279  0.00  0.00    +0.012 A 
ATOM      4  C   UNL     1       0.734  -4.284  -8.440  0.00  0.00    +0.047 A 
ATOM      5  C   UNL     1       1.236  -3.278  -9.253  0.00  0.00    +0.135 A 
ATOM      6  C   UNL     1       2.404  -2.622  -8.899  0.00  0.00    +0.093 A 
ATOM      7  C   UNL     1       3.070  -2.970  -7.731  0.00  0.00    +0.138 A 
ATOM      8  O   UNL     1       4.212  -2.318  -7.399  0.00  0.00    -0.441 OA
ATOM      9  C   UNL     1       5.067  -2.869  -6.521  0.00  0.00    +0.199 C 
ATOM     10  C   UNL     1       4.683  -3.843  -5.667  0.00  0.00    +0.098 C 
ENDROOT
BRANCH   1  14
ATOM     11  C   UNL     1       1.187  -2.723  -2.303  0.00  0.00    +0.162 A 
ATOM     12  C   UNL     1       1.710  -1.886  -3.275  0.00  0.00    +0.050 A 
ATOM     13  C   UNL     1       2.385  -2.421  -4.357  0.00  0.00    +0.008 A 
ATOM     14  C   UNL     1       2.539  -3.790  -4.472  0.00  0.00    -0.031 A 
ATOM     15  C   UNL     1       2.019  -4.630  -3.505  0.00  0.00    +0.054 A 
ATOM     16  C   UNL     1       1.347  -4.101  -2.415  0.00  0.00    +0.162 A 
BRANCH  11  17
ATOM     17  O   UNL     1       0.523  -2.199  -1.238  0.00  0.00    -0.488 OA
BRANCH  17  18
ATOM     18  C   UNL     1       0.397  -0.777  -1.188  0.00  0.00    +0.229 C 
BRANCH  18  20
ATOM     19  C   UNL     1      -0.508   1.146   0.126  0.00  0.00    +0.007 C 
ATOM     20  C   UNL     1      -0.373  -0.377   0.072  0.00  0.00    +0.038 C 
ENDBRANCH  18  20
ENDBRANCH  17  18
ENDBRANCH  11  17
BRANCH  16  21
ATOM     21  O   UNL     1       0.840  -4.926  -1.460  0.00  0.00    -0.489 OA
BRANCH  21  22
ATOM     22  C   UNL     1       1.043  -6.329  -1.642  0.00  0.00    +0.226 C 
ATOM     23  C   UNL     1       0.408  -7.091  -0.476  0.00  0.00    +0.048 C 
ENDBRANCH  21  22
ENDBRANCH  16  21
ENDBRANCH   1  14
BRANCH   9  24
ATOM     24  N   UNL     1       6.366  -2.429  -6.491  0.00  0.00    -0.328 N 
ATOM     25  H   UNL     1       6.656  -1.729  -7.098  0.00  0.00    +0.145 HD
ATOM     26  H   UNL     1       6.995  -2.817  -5.863  0.00  0.00    +0.145 HD
ENDBRANCH   9  24
BRANCH  10  27
ATOM     27  C   UNL     1       5.643  -4.388  -4.755  0.00  0.00    +0.101 C 
ATOM     28  N   UNL     1       6.404  -4.821  -4.031  0.00  0.00    -0.191 NA
ENDBRANCH  10  27
BRANCH   5  29
ATOM     29  O   UNL     1       0.584  -2.937 -10.396  0.00  0.00    -0.422 OA
BRANCH  29  30
ATOM     30  C   UNL     1       1.167  -3.240 -11.572  0.00  0.00    +0.344 C 
ATOM     31  O   UNL     1       2.191  -3.893 -11.592  0.00  0.00    -0.245 OA
BRANCH  30  32
ATOM     32  C   UNL     1       0.561  -2.780 -12.835  0.00  0.00    +0.060 A 
ATOM     33  C   UNL     1      -0.614  -2.023 -12.814  0.00  0.00    +0.018 A 
ATOM     34  C   UNL     1      -1.176  -1.595 -13.996  0.00  0.00    +0.046 A 
ATOM     35  C   UNL     1      -0.576  -1.913 -15.209  0.00  0.00    +0.120 A 
ATOM     36  C   UNL     1       0.593  -2.666 -15.234  0.00  0.00    +0.046 A 
ATOM     37  C   UNL     1       1.165  -3.093 -14.057  0.00  0.00    +0.018 A 
BRANCH  35  38
ATOM     38  O   UNL     1      -1.132  -1.489 -16.371  0.00  0.00    -0.495 OA
ATOM     39  C   UNL     1      -0.464  -1.852 -17.581  0.00  0.00    +0.277 C 
ENDBRANCH  35  38
ENDBRANCH  30  32
ENDBRANCH  29  30
ENDBRANCH   5  29
TORSDOF 12
