REMARK  Name = ZINC59195582
REMARK  14 active torsions:
REMARK  status: ('A' for Active; 'I' for Inactive)
REMARK    1  A    between atoms: C_1  and  C_2
REMARK    2  A    between atoms: C_2  and  C_31
REMARK    3  A    between atoms: C_4  and  N_10
REMARK    4  A    between atoms: C_6  and  C_8
REMARK    5  A    between atoms: C_6  and  C_9
REMARK    6  A    between atoms: N_10  and  C_11
REMARK    7  A    between atoms: N_10  and  C_20
REMARK    8  A    between atoms: C_11  and  C_12
REMARK    9  A    between atoms: C_15  and  O_18
REMARK   10  A    between atoms: O_18  and  C_19
REMARK   11  A    between atoms: C_20  and  N_22
REMARK   12  A    between atoms: N_22  and  C_23
REMARK   13  A    between atoms: C_26  and  O_29
REMARK   14  A    between atoms: O_29  and  C_30
REMARK                            x       y       z     vdW  Elec       q    Type
REMARK                         _______ _______ _______ _____ _____    ______ ____
ROOT
ATOM      1  N   UNL     1      -2.931  -1.007   0.805  0.00  0.00    -0.305 N 
ENDROOT
BRANCH   1   5
ATOM      2  C   UNL     1       0.709  -1.843   3.139  0.00  0.00    -0.010 C 
ATOM      3  C   UNL     1       0.056  -0.458   3.080  0.00  0.00    -0.072 C 
ATOM      4  C   UNL     1      -1.407  -0.594   2.670  0.00  0.00    +0.009 C 
ATOM      5  C   UNL     1      -1.514  -0.912   1.179  0.00  0.00    +0.073 C 
ATOM      6  C   UNL     1      -0.864   0.232   0.400  0.00  0.00    +0.009 C 
ATOM      7  C   UNL     1       0.603   0.375   0.792  0.00  0.00    -0.072 C 
ATOM      8  N   UNL     1       0.810   0.445   2.228  0.00  0.00    +0.386 N 
ATOM      9  C   UNL     1       1.119   1.697   0.178  0.00  0.00    -0.010 C 
ATOM     10  C   UNL     1       1.421  -0.760   0.167  0.00  0.00    -0.010 C 
ATOM     11  C   UNL     1       0.082   0.117   4.515  0.00  0.00    -0.010 C 
ATOM     12  H   UNL     1       0.621   1.405   2.533  0.00  0.00    -0.084 HD
ATOM     13  H   UNL     1       1.808   0.305   2.416  0.00  0.00    -0.084 HD
ENDBRANCH   1   5
BRANCH   1  14
ATOM     14  C   UNL     1      -3.407  -2.141   0.253  0.00  0.00    +0.138 C 
ATOM     15  S   UNL     1      -5.037  -2.222  -0.264  0.00  0.00    -0.018 S 
BRANCH  14  16
ATOM     16  N   UNL     1      -2.601  -3.211   0.109  0.00  0.00    -0.297 N 
ATOM     17  H   UNL     1      -2.727  -3.993   0.668  0.00  0.00    +0.154 HD
BRANCH  16  18
ATOM     18  C   UNL     1      -1.579  -3.193  -0.850  0.00  0.00    +0.033 A 
ATOM     19  C   UNL     1      -1.416  -2.086  -1.671  0.00  0.00    +0.027 A 
ATOM     20  C   UNL     1      -0.409  -2.069  -2.616  0.00  0.00    +0.047 A 
ATOM     21  C   UNL     1       0.440  -3.159  -2.745  0.00  0.00    +0.120 A 
ATOM     22  C   UNL     1       0.277  -4.266  -1.925  0.00  0.00    +0.047 A 
ATOM     23  C   UNL     1      -0.726  -4.282  -0.976  0.00  0.00    +0.027 A 
BRANCH  21  24
ATOM     24  O   UNL     1       1.431  -3.142  -3.675  0.00  0.00    -0.495 OA
ATOM     25  C   UNL     1       2.268  -4.298  -3.753  0.00  0.00    +0.277 C 
ENDBRANCH  21  24
ENDBRANCH  16  18
ENDBRANCH  14  16
ENDBRANCH   1  14
BRANCH   1  26
ATOM     26  C   UNL     1      -3.826   0.130   1.032  0.00  0.00    +0.142 C 
BRANCH  26  27
ATOM     27  C   UNL     1      -3.866   0.992  -0.203  0.00  0.00    -0.030 A 
ATOM     28  C   UNL     1      -3.067   2.117  -0.286  0.00  0.00    +0.009 A 
ATOM     29  C   UNL     1      -3.102   2.909  -1.417  0.00  0.00    +0.046 A 
ATOM     30  C   UNL     1      -3.940   2.575  -2.470  0.00  0.00    +0.120 A 
ATOM     31  C   UNL     1      -4.742   1.446  -2.385  0.00  0.00    +0.046 A 
ATOM     32  C   UNL     1      -4.699   0.654  -1.254  0.00  0.00    +0.009 A 
BRANCH  30  33
ATOM     33  O   UNL     1      -3.977   3.354  -3.584  0.00  0.00    -0.495 OA
ATOM     34  C   UNL     1      -4.864   2.949  -4.629  0.00  0.00    +0.277 C 
ENDBRANCH  30  33
ENDBRANCH  26  27
ENDBRANCH   1  26
TORSDOF 8
