REMARK  Name = ZINC21029760
REMARK  11 active torsions:
REMARK  status: ('A' for Active; 'I' for Inactive)
REMARK    1  A    between atoms: C_1  and  C_2
REMARK    2  A    between atoms: C_2  and  C_4
REMARK    3  A    between atoms: C_2  and  N_19
REMARK    4  A    between atoms: C_4  and  N_5
REMARK    5  A    between atoms: C_8  and  N_10
REMARK    6  A    between atoms: N_10  and  C_11
REMARK    7  A    between atoms: N_19  and  C_20
REMARK    8  A    between atoms: C_22  and  C_28
REMARK    9  A    between atoms: C_22  and  C_29
REMARK   10  A    between atoms: C_24  and  C_26
REMARK   11  A    between atoms: C_24  and  C_27
REMARK                            x       y       z     vdW  Elec       q    Type
REMARK                         _______ _______ _______ _____ _____    ______ ____
ROOT
ATOM      1  C   UNL     1      -0.845   1.530   0.791  0.00  0.00    +0.026 C 
ATOM      2  C   UNL     1      -0.702   0.007   0.799  0.00  0.00    +0.072 C 
ENDROOT
BRANCH   2   3
ATOM      3  N   UNL     1      -0.174  -0.442  -0.496  0.00  0.00    -0.309 NA
ATOM      4  H   UNL     1       0.528   0.195  -0.841  0.00  0.00    +0.123 HD
BRANCH   3   5
ATOM      5  C   UNL     1      -1.259  -0.613  -1.477  0.00  0.00    +0.051 C 
ATOM      6  C   UNL     1      -1.841  -2.022  -1.343  0.00  0.00    +0.006 C 
ATOM      7  C   UNL     1      -2.961  -2.219  -2.364  0.00  0.00    -0.072 C 
ATOM      8  N   UNL     1      -2.525  -1.923  -3.720  0.00  0.00    +0.386 N 
ATOM      9  C   UNL     1      -1.775  -0.696  -3.936  0.00  0.00    -0.072 C 
ATOM     10  C   UNL     1      -0.691  -0.461  -2.888  0.00  0.00    +0.006 C 
ATOM     11  C   UNL     1      -2.696   0.525  -4.016  0.00  0.00    -0.010 C 
ATOM     12  C   UNL     1      -1.068  -0.818  -5.307  0.00  0.00    -0.010 C 
ATOM     13  C   UNL     1      -4.191  -1.405  -1.963  0.00  0.00    -0.010 C 
ATOM     14  C   UNL     1      -3.364  -3.711  -2.319  0.00  0.00    -0.010 C 
ATOM     15  H   UNL     1      -1.960  -2.708  -4.055  0.00  0.00    -0.084 HD
ATOM     16  H   UNL     1      -3.349  -1.907  -4.326  0.00  0.00    -0.084 HD
ENDBRANCH   3   5
ENDBRANCH   2   3
BRANCH   2  17
ATOM     17  C   UNL     1       0.261  -0.409   1.913  0.00  0.00    +0.162 C 
BRANCH  17  18
ATOM     18  N   UNL     1       0.491  -1.854   1.846  0.00  0.00    -0.258 NA
ATOM     19  C   UNL     1       1.677  -2.311   1.566  0.00  0.00    +0.193 C 
ATOM     20  N   UNL     1       2.338  -3.532   1.394  0.00  0.00    -0.198 NA
ATOM     21  C   UNL     1       3.663  -3.454   1.089  0.00  0.00    +0.188 C 
ATOM     22  S   UNL     1       3.309  -1.714   1.191  0.00  0.00    -0.013 S 
BRANCH  21  23
ATOM     23  N   UNL     1       4.716  -4.282   0.834  0.00  0.00    -0.190 NA
BRANCH  23  24
ATOM     24  C   UNL     1       6.009  -3.757   0.729  0.00  0.00    +0.057 A 
ATOM     25  C   UNL     1       6.323  -2.552   1.344  0.00  0.00    +0.028 A 
ATOM     26  C   UNL     1       7.600  -2.036   1.240  0.00  0.00    +0.042 A 
ATOM     27  C   UNL     1       8.567  -2.719   0.523  0.00  0.00    +0.142 A 
ATOM     28  C   UNL     1       8.257  -3.921  -0.092  0.00  0.00    +0.078 A 
ATOM     29  C   UNL     1       6.982  -4.444   0.014  0.00  0.00    +0.048 A 
ATOM     30 CL   UNL     1       9.473  -4.774  -0.991  0.00  0.00    -0.081 Cl
ATOM     31  F   UNL     1       9.816  -2.211   0.422  0.00  0.00    -0.204 F 
ENDBRANCH  23  24
ENDBRANCH  21  23
ENDBRANCH  17  18
ENDBRANCH   2  17
TORSDOF 6
