REMARK  Name = ZINC05742069
REMARK  3 active torsions:
REMARK  status: ('A' for Active; 'I' for Inactive)
REMARK    1  A    between atoms: C_1  and  C_2
REMARK    2  A    between atoms: C_2  and  N_3
REMARK    3  A    between atoms: C_18  and  C_19
REMARK                            x       y       z     vdW  Elec       q    Type
REMARK                         _______ _______ _______ _____ _____    ______ ____
ROOT
ATOM      1  N   UNL     1      -2.358   0.994   0.097  0.00  0.00    -0.282 N 
ATOM      2  C   UNL     1      -1.157   1.727   0.113  0.00  0.00    +0.056 A 
ATOM      3  C   UNL     1       0.041   1.025   0.129  0.00  0.00    +0.025 A 
ATOM      4  C   UNL     1       1.245   1.702   0.174  0.00  0.00    +0.002 A 
ATOM      5  C   UNL     1       1.253   3.083   0.210  0.00  0.00    +0.002 A 
ATOM      6  C   UNL     1       0.067   3.786   0.193  0.00  0.00    +0.025 A 
ATOM      7  C   UNL     1      -1.159   3.119   0.139  0.00  0.00    +0.053 A 
ATOM      8  N   UNL     1      -2.308   3.896   0.087  0.00  0.00    -0.307 N 
ATOM      9  C   UNL     1      -3.460   3.712   0.715  0.00  0.00    +0.089 C 
ATOM     10  S   UNL     1      -4.665   4.924   0.614  0.00  0.00    -0.034 S 
ATOM     11  C   UNL     1      -3.734   2.506   1.501  0.00  0.00    +0.071 A 
ATOM     12  C   UNL     1      -3.253   1.216   1.149  0.00  0.00    +0.157 A 
ATOM     13  N   UNL     1      -3.772   0.353   1.976  0.00  0.00    -0.157 NA
ATOM     14  N   UNL     1      -4.551   1.034   2.921  0.00  0.00    -0.275 N 
ATOM     15  H   UNL     1      -5.059   0.475   3.721  0.00  0.00    +0.189 HD
ATOM     16  C   UNL     1      -4.519   2.358   2.633  0.00  0.00    +0.077 A 
ATOM     17  H   UNL     1      -2.333   4.800  -0.540  0.00  0.00    +0.153 HD
ENDROOT
BRANCH  16  18
ATOM     18  C   UNL     1      -5.191   3.438   3.385  0.00  0.00    +0.001 A 
ATOM     19  C   UNL     1      -6.533   3.309   3.748  0.00  0.00    +0.010 A 
ATOM     20  C   UNL     1      -7.153   4.319   4.454  0.00  0.00    +0.001 A 
ATOM     21  C   UNL     1      -6.451   5.463   4.792  0.00  0.00    +0.000 A 
ATOM     22  C   UNL     1      -5.122   5.599   4.431  0.00  0.00    +0.001 A 
ATOM     23  C   UNL     1      -4.488   4.595   3.730  0.00  0.00    +0.010 A 
ENDBRANCH  16  18
BRANCH   1  25
ATOM     24  C   UNL     1      -2.132  -1.342  -0.591  0.00  0.00    +0.025 C 
ATOM     25  C   UNL     1      -2.659   0.042  -0.975  0.00  0.00    +0.109 C 
ENDBRANCH   1  25
TORSDOF 2
