REMARK  Name = ZINC09229536
REMARK  11 active torsions:
REMARK  status: ('A' for Active; 'I' for Inactive)
REMARK    1  A    between atoms: C_1  and  C_2
REMARK    2  A    between atoms: C_2  and  N_3
REMARK    3  A    between atoms: N_3  and  C_4
REMARK    4  A    between atoms: N_3  and  S_10
REMARK    5  A    between atoms: S_10  and  C_13
REMARK    6  A    between atoms: C_16  and  N_19
REMARK    7  A    between atoms: N_19  and  C_20
REMARK    8  A    between atoms: C_20  and  N_22
REMARK    9  A    between atoms: C_23  and  C_25
REMARK   10  A    between atoms: C_26  and  C_27
REMARK   11  A    between atoms: C_30  and  N_33
REMARK                            x       y       z     vdW  Elec       q    Type
REMARK                         _______ _______ _______ _____ _____    ______ ____
ROOT
ATOM      1  N   UNL     1       8.030   2.802   3.474  0.00  0.00    -0.297 N 
ATOM      2  H   UNL     1       7.571   3.175   4.243  0.00  0.00    +0.154 HD
ENDROOT
BRANCH   1   6
ATOM      3  C   UNL     1       5.863   0.830   0.512  0.00  0.00    +0.109 A 
ATOM      4  C   UNL     1       5.368   1.994   1.070  0.00  0.00    +0.030 A 
ATOM      5  C   UNL     1       6.081   2.648   2.056  0.00  0.00    +0.025 A 
ATOM      6  C   UNL     1       7.303   2.140   2.479  0.00  0.00    +0.033 A 
ATOM      7  C   UNL     1       7.800   0.974   1.913  0.00  0.00    +0.025 A 
ATOM      8  C   UNL     1       7.079   0.322   0.931  0.00  0.00    +0.030 A 
BRANCH   3   9
ATOM      9  S   UNL     1       4.946  -0.004  -0.740  0.00  0.00    +0.075 S 
ATOM     10  O   UNL     1       5.897  -0.639  -1.584  0.00  0.00    -0.150 OA
ATOM     11  O   UNL     1       3.992   0.927  -1.233  0.00  0.00    -0.150 OA
BRANCH   9  12
ATOM     12  N   UNL     1       4.090  -1.211   0.002  0.00  0.00    -0.203 N 
BRANCH  12  13
ATOM     13  C   UNL     1       2.775  -0.984   0.412  0.00  0.00    +0.051 A 
ATOM     14  C   UNL     1       1.885  -2.046   0.518  0.00  0.00    +0.025 A 
ATOM     15  C   UNL     1       0.585  -1.817   0.924  0.00  0.00    +0.002 A 
ATOM     16  C   UNL     1       0.168  -0.533   1.225  0.00  0.00    +0.000 A 
ATOM     17  C   UNL     1       1.051   0.526   1.121  0.00  0.00    +0.002 A 
ATOM     18  C   UNL     1       2.353   0.304   0.716  0.00  0.00    +0.025 A 
ENDBRANCH  12  13
BRANCH  12  20
ATOM     19  C   UNL     1       4.346  -3.463  -0.919  0.00  0.00    +0.026 C 
ATOM     20  C   UNL     1       4.712  -2.518   0.228  0.00  0.00    +0.128 C 
ENDBRANCH  12  20
ENDBRANCH   9  12
ENDBRANCH   3   9
ENDBRANCH   1   6
BRANCH   1  21
ATOM     21  C   UNL     1       9.368   2.920   3.364  0.00  0.00    +0.141 C 
ATOM     22  S   UNL     1      10.161   2.387   1.944  0.00  0.00    -0.018 S 
BRANCH  21  23
ATOM     23  N   UNL     1      10.082   3.458   4.373  0.00  0.00    -0.264 N 
ATOM     24  C   UNL     1      11.420   3.576   4.264  0.00  0.00    +0.242 C 
ATOM     25  O   UNL     1      11.983   3.197   3.254  0.00  0.00    -0.270 OA
ATOM     26  H   UNL     1       9.632   3.760   5.178  0.00  0.00    +0.157 HD
BRANCH  24  27
ATOM     27  C   UNL     1      12.194   4.160   5.359  0.00  0.00    +0.068 C 
ATOM     28  C   UNL     1      13.534   4.279   5.249  0.00  0.00    +0.013 C 
BRANCH  28  29
ATOM     29  C   UNL     1      14.313   4.866   6.351  0.00  0.00    -0.025 A 
ATOM     30  C   UNL     1      13.668   5.308   7.511  0.00  0.00    +0.010 A 
ATOM     31  C   UNL     1      14.406   5.853   8.540  0.00  0.00    +0.033 A 
ATOM     32  C   UNL     1      15.780   5.973   8.424  0.00  0.00    +0.126 A 
ATOM     33  C   UNL     1      16.425   5.543   7.277  0.00  0.00    +0.033 A 
ATOM     34  C   UNL     1      15.702   4.991   6.241  0.00  0.00    +0.010 A 
BRANCH  32  35
ATOM     35  N   UNL     1      16.564   6.563   9.532  0.00  0.00    +0.056 N 
ATOM     36  O   UNL     1      17.773   6.670   9.433  0.00  0.00    -0.126 OA
ATOM     37  O   UNL     1      15.999   6.943  10.543  0.00  0.00    -0.126 OA
ENDBRANCH  32  35
ENDBRANCH  28  29
ENDBRANCH  24  27
ENDBRANCH  21  23
ENDBRANCH   1  21
TORSDOF 10
