REMARK  Name = ZINC14240263
REMARK  4 active torsions:
REMARK  status: ('A' for Active; 'I' for Inactive)
REMARK    1  A    between atoms: C_4  and  C_7
REMARK    2  A    between atoms: C_16  and  C_17
REMARK    3  A    between atoms: C_16  and  N_54
REMARK    4  A    between atoms: C_21  and  C_30
REMARK                            x       y       z     vdW  Elec       q    Type
REMARK                         _______ _______ _______ _____ _____    ______ ____
ROOT
ATOM      1  C   UNL     1      -0.002   1.463   0.019  0.00  0.00    +0.020 C 
ENDROOT
BRANCH   1   2
ATOM      2  C   UNL     1      -0.723   1.951   1.250  0.00  0.00    +0.203 C 
ATOM      3  O   UNL     1      -1.257   1.156   1.995  0.00  0.00    -0.277 OA
ATOM      4  N   UNL     1      -0.774   3.270   1.523  0.00  0.00    -0.266 N 
ATOM      5  C   UNL     1      -0.246   4.265   0.575  0.00  0.00    +0.168 C 
ATOM      6  C   UNL     1      -1.241   5.434   0.527  0.00  0.00    +0.276 C 
ATOM      7  O   UNL     1      -1.387   5.968   1.845  0.00  0.00    -0.476 OA
ATOM      8  C   UNL     1      -1.633   5.096   2.858  0.00  0.00    +0.143 A 
ATOM      9  C   UNL     1      -1.339   3.743   2.720  0.00  0.00    +0.078 A 
ATOM     10  C   UNL     1      -1.586   2.866   3.765  0.00  0.00    +0.027 A 
ATOM     11  C   UNL     1      -2.138   3.336   4.942  0.00  0.00    +0.002 A 
ATOM     12  C   UNL     1      -2.440   4.678   5.078  0.00  0.00    +0.004 A 
ATOM     13  C   UNL     1      -2.189   5.558   4.042  0.00  0.00    +0.047 A 
BRANCH   6  14
ATOM     14  C   UNL     1      -0.719   6.504  -0.396  0.00  0.00    +0.253 C 
ATOM     15  O   UNL     1      -0.419   7.593   0.046  0.00  0.00    -0.272 OA
ATOM     16  N   UNL     1      -0.584   6.251  -1.713  0.00  0.00    -0.326 N 
ATOM     17  H   UNL     1      -0.824   5.380  -2.067  0.00  0.00    +0.145 HD
ATOM     18  H   UNL     1      -0.248   6.940  -2.308  0.00  0.00    +0.145 HD
ENDBRANCH   6  14
ENDBRANCH   1   2
BRANCH   1  27
ATOM     19  C   UNL     1       0.689  -0.541  -1.148  0.00  0.00    -0.005 C 
ATOM     20  C   UNL     1       0.415  -2.037  -1.272  0.00  0.00    -0.047 A 
ATOM     21  C   UNL     1       1.301  -2.944  -1.849  0.00  0.00    +0.010 A 
ATOM     22  C   UNL     1       0.979  -4.257  -1.915  0.00  0.00    +0.045 A 
ATOM     23  S   UNL     1      -0.634  -4.280  -1.145  0.00  0.00    -0.101 S 
ATOM     24  C   UNL     1      -0.755  -2.549  -0.797  0.00  0.00    -0.010 A 
ATOM     25  C   UNL     1      -1.860  -1.787  -0.141  0.00  0.00    +0.024 C 
ATOM     26  C   UNL     1      -1.618  -0.291  -0.404  0.00  0.00    -0.072 C 
ATOM     27  N   UNL     1      -0.199   0.005  -0.094  0.00  0.00    +0.393 N 
ATOM     28  H   UNL     1       0.043  -0.434   0.802  0.00  0.00    -0.080 HD
BRANCH  19  32
ATOM     29  C   UNL     1       4.751   0.081   0.017  0.00  0.00    +0.000 A 
ATOM     30  C   UNL     1       4.380   0.239  -1.305  0.00  0.00    +0.000 A 
ATOM     31  C   UNL     1       3.065   0.037  -1.682  0.00  0.00    +0.002 A 
ATOM     32  C   UNL     1       2.122  -0.322  -0.737  0.00  0.00    -0.057 A 
ATOM     33  C   UNL     1       2.493  -0.474   0.586  0.00  0.00    +0.002 A 
ATOM     34  C   UNL     1       3.808  -0.277   0.962  0.00  0.00    +0.000 A 
ENDBRANCH  19  32
ENDBRANCH   1  27
TORSDOF 4
