REMARK  Name = ZINC36576485
REMARK  9 active torsions:
REMARK  status: ('A' for Active; 'I' for Inactive)
REMARK    1  A    between atoms: C_1  and  O_2
REMARK    2  A    between atoms: O_2  and  C_3
REMARK    3  A    between atoms: C_3  and  C_5
REMARK    4  A    between atoms: C_5  and  C_6
REMARK    5  A    between atoms: C_6  and  C_8
REMARK    6  A    between atoms: C_6  and  N_12
REMARK    7  A    between atoms: C_8  and  O_10
REMARK    8  A    between atoms: O_10  and  C_11
REMARK    9  A    between atoms: C_24  and  C_26
REMARK                            x       y       z     vdW  Elec       q    Type
REMARK                         _______ _______ _______ _____ _____    ______ ____
ROOT
ATOM      1  N   UNL     1      -5.366  -2.191  -0.188  0.00  0.00    -0.286 N 
ATOM      2  C   UNL     1      -4.660  -1.989  -1.318  0.00  0.00    +0.304 C 
ATOM      3  O   UNL     1      -3.447  -2.062  -1.297  0.00  0.00    -0.253 OA
ATOM      4  N   UNL     1      -5.299  -1.707  -2.470  0.00  0.00    -0.273 N 
ATOM      5  C   UNL     1      -4.558  -1.601  -3.736  0.00  0.00    +0.116 C 
ATOM      6  C   UNL     1      -5.021  -2.715  -4.684  0.00  0.00    +0.074 C 
ATOM      7  C   UNL     1      -6.526  -2.786  -4.650  0.00  0.00    +0.040 A 
ATOM      8  C   UNL     1      -7.302  -2.254  -3.682  0.00  0.00    +0.062 A 
ATOM      9  N   UNL     1      -8.576  -2.515  -3.981  0.00  0.00    -0.348 N 
ATOM     10  C   UNL     1      -8.624  -3.187  -5.101  0.00  0.00    +0.171 A 
ATOM     11  N   UNL     1      -7.362  -3.375  -5.550  0.00  0.00    -0.349 N 
ATOM     12  H   UNL     1      -7.101  -3.841  -6.360  0.00  0.00    +0.166 HD
ATOM     13  C   UNL     1      -6.759  -1.504  -2.494  0.00  0.00    +0.157 C 
ATOM     14  H   UNL     1      -6.327  -2.057  -0.185  0.00  0.00    +0.151 HD
ATOM     15  H   UNL     1      -9.344  -2.248  -3.451  0.00  0.00    +0.167 HD
ENDROOT
BRANCH  13  16
ATOM     16  C   UNL     1      -7.069  -0.036  -2.634  0.00  0.00    -0.003 A 
ATOM     17  C   UNL     1      -6.684   0.646  -3.773  0.00  0.00    +0.009 A 
ATOM     18  C   UNL     1      -6.969   1.993  -3.903  0.00  0.00    +0.020 A 
ATOM     19  C   UNL     1      -7.640   2.659  -2.892  0.00  0.00    +0.042 A 
ATOM     20  C   UNL     1      -8.026   1.976  -1.753  0.00  0.00    +0.040 A 
ATOM     21  C   UNL     1      -7.745   0.628  -1.626  0.00  0.00    +0.048 A 
ATOM     22 CL   UNL     1      -8.235  -0.231  -0.198  0.00  0.00    -0.083 Cl
ATOM     23 CL   UNL     1      -7.997   4.350  -3.055  0.00  0.00    -0.083 Cl
ENDBRANCH  13  16
BRANCH   1  24
ATOM     24  C   UNL     1      -4.683  -2.614   1.037  0.00  0.00    +0.194 C 
BRANCH  24  25
ATOM     25  C   UNL     1      -4.150  -1.403   1.758  0.00  0.00    +0.328 C 
ATOM     26  O   UNL     1      -4.323  -0.300   1.296  0.00  0.00    -0.249 OA
BRANCH  25  27
ATOM     27  O   UNL     1      -3.483  -1.549   2.914  0.00  0.00    -0.467 OA
ATOM     28  C   UNL     1      -3.006  -0.358   3.543  0.00  0.00    +0.280 C 
ENDBRANCH  25  27
ENDBRANCH  24  25
BRANCH  24  29
ATOM     29  C   UNL     1      -5.670  -3.353   1.943  0.00  0.00    +0.154 C 
BRANCH  29  30
ATOM     30  C   UNL     1      -6.110  -4.628   1.271  0.00  0.00    +0.309 C 
ATOM     31  O   UNL     1      -5.678  -4.917   0.180  0.00  0.00    -0.251 OA
BRANCH  30  33
ATOM     32  C   UNL     1      -7.354  -6.636   1.190  0.00  0.00    +0.280 C 
ATOM     33  O   UNL     1      -6.981  -5.444   1.885  0.00  0.00    -0.468 OA
ENDBRANCH  30  33
ENDBRANCH  29  30
ENDBRANCH  24  29
ENDBRANCH   1  24
TORSDOF 7
