REMARK  Name = ZINC00845089
REMARK  8 active torsions:
REMARK  status: ('A' for Active; 'I' for Inactive)
REMARK    1  A    between atoms: C_1  and  C_2
REMARK    2  A    between atoms: C_9  and  N_15
REMARK    3  A    between atoms: C_10  and  C_11
REMARK    4  A    between atoms: C_11  and  O_13
REMARK    5  A    between atoms: O_13  and  C_14
REMARK    6  A    between atoms: C_16  and  C_18
REMARK    7  A    between atoms: C_22  and  C_31
REMARK    8  A    between atoms: C_24  and  C_27
REMARK                            x       y       z     vdW  Elec       q    Type
REMARK                         _______ _______ _______ _____ _____    ______ ____
ROOT
ATOM      1  N   UNL     1       1.933  -5.843  -1.737  0.00  0.00    -0.274 N 
ATOM      2  C   UNL     1       2.230  -6.104  -3.026  0.00  0.00    +0.269 C 
ATOM      3  O   UNL     1       2.201  -5.210  -3.849  0.00  0.00    -0.268 OA
ATOM      4  H   UNL     1       1.956  -6.557  -1.080  0.00  0.00    +0.156 HD
ENDROOT
BRANCH   1  12
ATOM      5  C   UNL     1      -0.019   1.526   0.010  0.00  0.00    +0.008 C 
ATOM      6  C   UNL     1       0.002  -0.004   0.002  0.00  0.00    -0.009 C 
ATOM      7  C   UNL     1       0.742  -0.514   1.242  0.00  0.00    +0.008 C 
ATOM      8  C   UNL     1       0.557  -2.027   1.373  0.00  0.00    +0.037 C 
ATOM      9  C   UNL     1       0.942  -2.684   0.053  0.00  0.00    -0.021 A 
ATOM     10  C   UNL     1       1.009  -1.966  -1.089  0.00  0.00    -0.004 A 
ATOM     11  S   UNL     1       1.485  -3.133  -2.332  0.00  0.00    -0.077 S 
ATOM     12  C   UNL     1       1.594  -4.557  -1.352  0.00  0.00    +0.087 A 
ATOM     13  C   UNL     1       1.259  -4.096  -0.085  0.00  0.00    +0.091 A 
ATOM     14  C   UNL     1       0.736  -0.502  -1.252  0.00  0.00    +0.046 C 
BRANCH  13  15
ATOM     15  C   UNL     1       1.226  -4.998   1.068  0.00  0.00    +0.342 C 
ATOM     16  O   UNL     1       0.198  -5.582   1.355  0.00  0.00    -0.245 OA
BRANCH  15  17
ATOM     17  O   UNL     1       2.336  -5.181   1.812  0.00  0.00    -0.464 OA
ATOM     18  C   UNL     1       2.231  -6.090   2.940  0.00  0.00    +0.280 C 
ENDBRANCH  15  17
ENDBRANCH  13  15
ENDBRANCH   1  12
BRANCH   2  19
ATOM     19  C   UNL     1       2.592  -7.477  -3.437  0.00  0.00    +0.150 A 
ATOM     20  C   UNL     1       2.921  -7.880  -4.737  0.00  0.00    +0.083 A 
ATOM     21  C   UNL     1       3.195  -9.239  -4.697  0.00  0.00    +0.158 A 
ATOM     22  N   UNL     1       3.556 -10.112  -5.646  0.00  0.00    -0.225 NA
ATOM     23  C   UNL     1       3.765 -11.385  -5.350  0.00  0.00    +0.110 A 
ATOM     24  C   UNL     1       3.607 -11.837  -4.017  0.00  0.00    +0.064 A 
ATOM     25  C   UNL     1       3.243 -10.958  -3.059  0.00  0.00    +0.149 A 
ATOM     26  N   UNL     1       3.034  -9.647  -3.396  0.00  0.00    -0.209 N 
ATOM     27  N   UNL     1       2.664  -8.529  -2.638  0.00  0.00    -0.160 NA
BRANCH  23  28
ATOM     28  C   UNL     1       4.162 -12.331  -6.407  0.00  0.00    +0.153 A 
ATOM     29  C   UNL     1       4.342 -12.031  -7.723  0.00  0.00    +0.051 A 
ATOM     30  C   UNL     1       4.718 -13.226  -8.363  0.00  0.00    +0.042 A 
ATOM     31  C   UNL     1       4.740 -14.191  -7.420  0.00  0.00    +0.196 A 
ATOM     32  O   UNL     1       4.403 -13.647  -6.240  0.00  0.00    -0.461 OA
ENDBRANCH  23  28
BRANCH  25  33
ATOM     33  C   UNL     1       3.068 -11.414  -1.633  0.00  0.00    +0.434 C 
ATOM     34  F   UNL     1       1.744 -11.819  -1.433  0.00  0.00    -0.164 F 
ATOM     35  F   UNL     1       3.928 -12.488  -1.379  0.00  0.00    -0.164 F 
ATOM     36  F   UNL     1       3.369 -10.359  -0.765  0.00  0.00    -0.164 F 
ENDBRANCH  25  33
ENDBRANCH   2  19
TORSDOF 6
