REMARK  Name = ZINC39485920
REMARK  5 active torsions:
REMARK  status: ('A' for Active; 'I' for Inactive)
REMARK    1  A    between atoms: C_4  and  C_7
REMARK    2  A    between atoms: C_7  and  C_8
REMARK    3  A    between atoms: N_17  and  C_20
REMARK    4  A    between atoms: C_20  and  C_21
REMARK    5  A    between atoms: C_26  and  C_27
REMARK                            x       y       z     vdW  Elec       q    Type
REMARK                         _______ _______ _______ _____ _____    ______ ____
ROOT
ATOM      1  C   UNL     1       4.717  -0.295   1.221  0.00  0.00    +0.022 C 
ATOM      2  N   UNL     1       3.508  -1.024   1.675  0.00  0.00    -0.271 NA
ATOM      3  N   UNL     1       4.030  -2.132   2.494  0.00  0.00    -0.272 NA
ATOM      4  C   UNL     1       5.279  -2.506   1.778  0.00  0.00    +0.019 C 
ATOM      5  N   UNL     1       5.828  -1.270   1.296  0.00  0.00    +0.403 N 
ATOM      6  C   UNL     1       6.427  -1.439  -0.041  0.00  0.00    -0.059 C 
ATOM      7  C   UNL     1       7.720  -2.143   0.092  0.00  0.00    +0.066 C 
ATOM      8  N   UNL     1       7.599  -3.476   0.693  0.00  0.00    -0.303 NA
ATOM      9  C   UNL     1       7.613  -3.383   2.132  0.00  0.00    +0.084 C 
ATOM     10  C   UNL     1       6.167  -3.342   2.695  0.00  0.00    +0.016 C 
ATOM     11  H   UNL     1       2.907  -0.424   2.219  0.00  0.00    +0.139 HD
ATOM     12  H   UNL     1       4.231  -1.824   3.434  0.00  0.00    +0.139 HD
ATOM     13  H   UNL     1       6.531  -0.935   1.938  0.00  0.00    -0.077 HD
ENDROOT
BRANCH   1  14
ATOM     14  C   UNL     1       4.534   0.187  -0.220  0.00  0.00    +0.036 C 
BRANCH  14  18
ATOM     15  C   UNL     1       1.284   2.954  -0.395  0.00  0.00    +0.000 A 
ATOM     16  C   UNL     1       2.568   3.409  -0.160  0.00  0.00    +0.000 A 
ATOM     17  C   UNL     1       3.619   2.514  -0.103  0.00  0.00    +0.003 A 
ATOM     18  C   UNL     1       3.387   1.163  -0.281  0.00  0.00    -0.048 A 
ATOM     19  C   UNL     1       2.103   0.707  -0.515  0.00  0.00    +0.003 A 
ATOM     20  C   UNL     1       1.052   1.603  -0.573  0.00  0.00    +0.000 A 
ENDBRANCH  14  18
ENDBRANCH   1  14
BRANCH   8  21
ATOM     21  C   UNL     1       8.662  -4.369   0.213  0.00  0.00    +0.099 C 
BRANCH  21  22
ATOM     22  C   UNL     1       8.344  -4.820  -1.214  0.00  0.00    +0.097 C 
ATOM     23  C   UNL     1       7.177  -5.787  -1.220  0.00  0.00    +0.118 C 
ATOM     24  N   UNL     1       7.633  -6.897  -1.701  0.00  0.00    -0.161 NA
ATOM     25  N   UNL     1       8.982  -6.820  -2.032  0.00  0.00    -0.153 NA
ATOM     26  C   UNL     1       9.486  -5.638  -1.783  0.00  0.00    +0.080 C 
BRANCH  26  27
ATOM     27  C   UNL     1      10.870  -5.194  -2.007  0.00  0.00    -0.001 A 
ATOM     28  C   UNL     1      11.252  -3.889  -1.678  0.00  0.00    +0.011 A 
ATOM     29  C   UNL     1      12.551  -3.480  -1.891  0.00  0.00    +0.020 A 
ATOM     30  C   UNL     1      13.478  -4.358  -2.428  0.00  0.00    +0.041 A 
ATOM     31  C   UNL     1      13.108  -5.652  -2.756  0.00  0.00    +0.020 A 
ATOM     32  C   UNL     1      11.813  -6.076  -2.544  0.00  0.00    +0.011 A 
ATOM     33 CL   UNL     1      15.112  -3.834  -2.692  0.00  0.00    -0.084 Cl
ENDBRANCH  26  27
ENDBRANCH  21  22
ENDBRANCH   8  21
TORSDOF 5
