REMARK  Name = ZINC39574461
REMARK  13 active torsions:
REMARK  status: ('A' for Active; 'I' for Inactive)
REMARK    1  A    between atoms: C_1  and  C_2
REMARK    2  A    between atoms: C_2  and  C_3
REMARK    3  A    between atoms: C_2  and  C_4
REMARK    4  A    between atoms: C_4  and  O_5
REMARK    5  A    between atoms: O_5  and  C_6
REMARK    6  A    between atoms: C_7  and  O_32
REMARK    7  A    between atoms: C_9  and  C_13
REMARK    8  A    between atoms: C_13  and  O_15
REMARK    9  A    between atoms: O_15  and  C_16
REMARK   10  A    between atoms: C_16  and  C_17
REMARK   11  A    between atoms: C_19  and  O_20
REMARK   12  A    between atoms: C_29  and  C_31
REMARK   13  A    between atoms: O_32  and  C_33
REMARK                            x       y       z     vdW  Elec       q    Type
REMARK                         _______ _______ _______ _____ _____    ______ ____
ROOT
ATOM      1  C   UNL     1       3.841  -1.122   8.701  0.00  0.00    +0.269 C 
ENDROOT
BRANCH   1   2
ATOM      2  C   UNL     1       4.640  -0.277   9.659  0.00  0.00    +0.007 A 
ATOM      3  C   UNL     1       4.075   0.825  10.268  0.00  0.00    +0.095 A 
ATOM      4  C   UNL     1       4.827   1.592  11.147  0.00  0.00    +0.285 A 
ATOM      5  O   UNL     1       6.100   1.287  11.423  0.00  0.00    -0.425 OA
ATOM      6  C   UNL     1       6.701   0.221  10.855  0.00  0.00    +0.141 A 
ATOM      7  C   UNL     1       5.981  -0.598   9.957  0.00  0.00    +0.024 A 
ATOM      8  C   UNL     1       6.603  -1.712   9.367  0.00  0.00    +0.014 A 
ATOM      9  C   UNL     1       7.896  -2.005   9.666  0.00  0.00    +0.024 A 
ATOM     10  C   UNL     1       8.618  -1.199  10.564  0.00  0.00    +0.037 A 
ATOM     11  C   UNL     1       8.019  -0.082  11.149  0.00  0.00    +0.070 A 
ATOM     12  N   UNL     1       9.913  -1.502  10.855  0.00  0.00    -0.286 N 
ATOM     13  C   UNL     1      10.496  -0.962  11.908  0.00  0.00    +0.214 C 
ATOM     14  O   UNL     1       9.844  -0.289  12.687  0.00  0.00    -0.276 OA
ATOM     15  C   UNL     1      11.969  -1.177  12.146  0.00  0.00    +0.109 C 
ATOM     16  H   UNL     1      10.406  -2.117  10.290  0.00  0.00    +0.155 HD
BRANCH   4  17
ATOM     17  O   UNL     1       4.263   2.664  11.735  0.00  0.00    -0.480 OA
ATOM     18  H   UNL     1       4.856   3.142  12.332  0.00  0.00    +0.295 HD
ENDBRANCH   4  17
ENDBRANCH   1   2
BRANCH   1  19
ATOM     19  O   UNL     1       3.313  -0.295   7.662  0.00  0.00    -0.456 OA
BRANCH  19  20
ATOM     20  C   UNL     1       2.485  -0.881   6.775  0.00  0.00    +0.340 C 
ATOM     21  O   UNL     1       2.145  -2.037   6.933  0.00  0.00    -0.245 OA
BRANCH  20  25
ATOM     22  C   UNL     1       1.063   1.319   3.429  0.00  0.00    +0.180 A 
ATOM     23  C   UNL     1       0.757  -0.036   3.550  0.00  0.00    +0.164 A 
ATOM     24  C   UNL     1       1.218  -0.754   4.636  0.00  0.00    +0.064 A 
ATOM     25  C   UNL     1       1.991  -0.119   5.613  0.00  0.00    +0.064 A 
ATOM     26  C   UNL     1       2.294   1.239   5.486  0.00  0.00    +0.039 A 
ATOM     27  C   UNL     1       1.835   1.949   4.396  0.00  0.00    +0.087 A 
ATOM     28 CL   UNL     1       2.218   3.634   4.236  0.00  0.00    -0.080 Cl
BRANCH  23  29
ATOM     29  O   UNL     1       0.005  -0.651   2.598  0.00  0.00    -0.491 OA
ATOM     30  C   UNL     1      -0.269  -2.041   2.786  0.00  0.00    +0.277 C 
ENDBRANCH  23  29
BRANCH  22  31
ATOM     31  O   UNL     1       0.609   2.022   2.360  0.00  0.00    -0.487 OA
BRANCH  31  32
ATOM     32  C   UNL     1       1.447   2.058   1.203  0.00  0.00    +0.232 C 
BRANCH  32  34
ATOM     33  C   UNL     1       0.662   4.345   0.575  0.00  0.00    +0.010 C 
ATOM     34  C   UNL     1       0.773   2.892   0.111  0.00  0.00    +0.020 C 
ATOM     35  C   UNL     1       1.610   2.827  -1.169  0.00  0.00    +0.010 C 
ENDBRANCH  32  34
ENDBRANCH  31  32
ENDBRANCH  22  31
ENDBRANCH  20  25
ENDBRANCH  19  20
ENDBRANCH   1  19
TORSDOF 9
