REMARK  Name = ZINC39911613
REMARK  12 active torsions:
REMARK  status: ('A' for Active; 'I' for Inactive)
REMARK    1  A    between atoms: C_1  and  C_2
REMARK    2  A    between atoms: C_4  and  C_38
REMARK    3  A    between atoms: C_5  and  O_37
REMARK    4  A    between atoms: C_6  and  C_8
REMARK    5  A    between atoms: N_16  and  C_33
REMARK    6  A    between atoms: C_17  and  C_19
REMARK    7  A    between atoms: C_22  and  O_25
REMARK    8  A    between atoms: O_25  and  C_26
REMARK    9  A    between atoms: C_26  and  C_27
REMARK   10  A    between atoms: C_33  and  C_34
REMARK   11  A    between atoms: C_34  and  O_35
REMARK   12  A    between atoms: O_35  and  C_36
REMARK                            x       y       z     vdW  Elec       q    Type
REMARK                         _______ _______ _______ _____ _____    ______ ____
ROOT
ATOM      1  C   UNL     1      -0.236  -3.140   2.817  0.00  0.00    +0.102 A 
ATOM      2  C   UNL     1       0.018  -2.401   3.977  0.00  0.00    +0.035 A 
ATOM      3  C   UNL     1       0.077  -3.322   5.005  0.00  0.00    +0.126 A 
ATOM      4  N   UNL     1      -0.138  -4.544   4.433  0.00  0.00    -0.272 N 
ATOM      5  H   UNL     1      -0.154  -5.388   4.911  0.00  0.00    +0.189 HD
ATOM      6  N   UNL     1      -0.321  -4.408   3.168  0.00  0.00    -0.173 NA
ATOM      7  C   UNL     1       0.342  -2.606   6.258  0.00  0.00    +0.266 C 
ATOM      8  O   UNL     1       0.452  -3.133   7.348  0.00  0.00    -0.268 OA
ATOM      9  N   UNL     1       0.446  -1.285   6.029  0.00  0.00    -0.283 N 
ATOM     10  C   UNL     1       0.253  -1.049   4.593  0.00  0.00    +0.141 C 
ENDROOT
BRANCH   1  16
ATOM     11  C   UNL     1       1.353  -0.135  -0.839  0.00  0.00    +0.044 C 
ATOM     12  C   UNL     1       0.373  -1.153  -0.317  0.00  0.00    -0.049 A 
ATOM     13  C   UNL     1      -0.670  -1.580  -1.119  0.00  0.00    +0.010 A 
ATOM     14  C   UNL     1      -1.575  -2.513  -0.649  0.00  0.00    -0.008 A 
ATOM     15  C   UNL     1      -1.440  -3.026   0.631  0.00  0.00    +0.129 A 
ATOM     16  C   UNL     1      -0.387  -2.597   1.444  0.00  0.00    +0.044 A 
ATOM     17  C   UNL     1       0.522  -1.660   0.958  0.00  0.00    +0.017 A 
ATOM     18  C   UNL     1      -2.708  -2.973  -1.529  0.00  0.00    +0.047 C 
BRANCH  15  19
ATOM     19  O   UNL     1      -2.329  -3.943   1.095  0.00  0.00    -0.506 OA
ATOM     20  H   UNL     1      -2.078  -4.860   0.915  0.00  0.00    +0.292 HD
ENDBRANCH  15  19
ENDBRANCH   1  16
BRANCH  10  21
ATOM     21  C   UNL     1      -0.944  -0.162   4.369  0.00  0.00    -0.022 A 
ATOM     22  C   UNL     1      -2.104  -0.372   5.091  0.00  0.00    +0.009 A 
ATOM     23  C   UNL     1      -3.203   0.440   4.887  0.00  0.00    +0.046 A 
ATOM     24  C   UNL     1      -3.143   1.467   3.957  0.00  0.00    +0.121 A 
ATOM     25  C   UNL     1      -1.977   1.676   3.234  0.00  0.00    +0.046 A 
ATOM     26  C   UNL     1      -0.879   0.865   3.445  0.00  0.00    +0.009 A 
BRANCH  24  27
ATOM     27  O   UNL     1      -4.223   2.267   3.755  0.00  0.00    -0.487 OA
BRANCH  27  28
ATOM     28  C   UNL     1      -4.088   3.304   2.781  0.00  0.00    +0.264 C 
BRANCH  28  29
ATOM     29  C   UNL     1      -5.376   4.081   2.694  0.00  0.00    -0.010 A 
ATOM     30  C   UNL     1      -6.362   3.688   1.809  0.00  0.00    +0.007 A 
ATOM     31  C   UNL     1      -7.544   4.401   1.729  0.00  0.00    +0.000 A 
ATOM     32  C   UNL     1      -7.739   5.507   2.535  0.00  0.00    +0.000 A 
ATOM     33  C   UNL     1      -6.754   5.900   3.421  0.00  0.00    +0.000 A 
ATOM     34  C   UNL     1      -5.574   5.184   3.504  0.00  0.00    +0.007 A 
ENDBRANCH  28  29
ENDBRANCH  27  28
ENDBRANCH  24  27
ENDBRANCH  10  21
BRANCH   9  35
ATOM     35  C   UNL     1       0.708  -0.257   7.040  0.00  0.00    +0.137 C 
BRANCH  35  36
ATOM     36  C   UNL     1       2.217  -0.048   7.176  0.00  0.00    +0.178 C 
BRANCH  36  37
ATOM     37  O   UNL     1       2.737   0.482   5.955  0.00  0.00    -0.381 OA
ATOM     38  C   UNL     1       4.146   0.716   5.976  0.00  0.00    +0.194 C 
ENDBRANCH  36  37
ENDBRANCH  35  36
ENDBRANCH   9  35
TORSDOF 9
