REMARK  Name = ZINC58210553
REMARK  5 active torsions:
REMARK  status: ('A' for Active; 'I' for Inactive)
REMARK    1  A    between atoms: C_1  and  C_2
REMARK    2  A    between atoms: N_5  and  C_11
REMARK    3  A    between atoms: C_7  and  C_10
REMARK    4  A    between atoms: C_11  and  C_12
REMARK    5  A    between atoms: N_20  and  C_21
REMARK                            x       y       z     vdW  Elec       q    Type
REMARK                         _______ _______ _______ _____ _____    ______ ____
ROOT
ATOM      1  C   UNL     1      -2.759  -4.086   0.159  0.00  0.00    +0.092 C 
ATOM      2  C   UNL     1      -4.197  -4.646   0.166  0.00  0.00    +0.025 C 
ATOM      3  C   UNL     1      -4.056  -5.955   0.988  0.00  0.00    +0.021 C 
ATOM      4  C   UNL     1      -2.992  -5.550   2.038  0.00  0.00    +0.110 C 
ATOM      5  N   UNL     1      -2.053  -4.675   1.306  0.00  0.00    -0.281 N 
ATOM      6  C   UNL     1      -0.764  -4.453   1.633  0.00  0.00    +0.303 C 
ATOM      7  O   UNL     1      -0.059  -3.782   0.904  0.00  0.00    -0.253 OA
ATOM      8  N   UNL     1      -0.258  -4.974   2.768  0.00  0.00    -0.296 N 
ATOM      9  H   UNL     1      -0.798  -5.567   3.313  0.00  0.00    +0.151 HD
ENDROOT
BRANCH   8  10
ATOM     10  C   UNL     1       1.109  -4.643   3.180  0.00  0.00    +0.074 C 
ATOM     11  C   UNL     1       2.099  -5.524   2.416  0.00  0.00    +0.022 C 
ATOM     12  C   UNL     1       3.526  -5.179   2.846  0.00  0.00    +0.002 C 
ATOM     13  C   UNL     1       3.680  -5.424   4.348  0.00  0.00    +0.000 C 
ATOM     14  C   UNL     1       2.690  -4.543   5.112  0.00  0.00    +0.002 C 
ATOM     15  C   UNL     1       1.262  -4.888   4.683  0.00  0.00    +0.022 C 
ENDBRANCH   8  10
BRANCH   1  16
ATOM     16  C   UNL     1      -2.794  -2.562   0.296  0.00  0.00    +0.107 C 
BRANCH  16  20
ATOM     17  C   UNL     1      -4.836   1.444  -1.705  0.00  0.00    +0.039 C 
ATOM     18  C   UNL     1      -4.490  -0.031  -1.919  0.00  0.00    +0.130 C 
ATOM     19  C   UNL     1      -3.805  -0.582  -0.665  0.00  0.00    +0.115 C 
ATOM     20  N   UNL     1      -3.406  -1.977  -0.904  0.00  0.00    -0.296 NA
ATOM     21  C   UNL     1      -2.497  -2.068  -2.057  0.00  0.00    +0.115 C 
ATOM     22  C   UNL     1      -3.195  -1.502  -3.296  0.00  0.00    +0.130 C 
ATOM     23  O   UNL     1      -3.605  -0.157  -3.035  0.00  0.00    -0.371 OA
ATOM     24  C   UNL     1      -4.422  -2.355  -3.626  0.00  0.00    +0.039 C 
ENDBRANCH  16  20
ENDBRANCH   1  16
TORSDOF 3
