REMARK  Name = ZINC14544565
REMARK  3 active torsions:
REMARK  status: ('A' for Active; 'I' for Inactive)
REMARK    1  A    between atoms: C_1  and  C_2
REMARK    2  A    between atoms: N_4  and  C_5
REMARK    3  A    between atoms: C_18  and  C_21
REMARK                            x       y       z     vdW  Elec       q    Type
REMARK                         _______ _______ _______ _____ _____    ______ ____
ROOT
ATOM      1  C   UNL     1      -3.177   9.413  -1.483  0.00  0.00    +0.034 A 
ATOM      2  C   UNL     1      -3.179   9.441  -0.095  0.00  0.00    +0.025 A 
ATOM      3  C   UNL     1      -2.152   8.835   0.601  0.00  0.00    +0.025 A 
ATOM      4  C   UNL     1      -1.125   8.200  -0.087  0.00  0.00    +0.031 A 
ATOM      5  C   UNL     1      -1.114   8.172  -1.470  0.00  0.00    -0.018 A 
ATOM      6  C   UNL     1      -2.149   8.783  -2.166  0.00  0.00    +0.029 A 
ATOM      7  C   UNL     1      -0.024   7.507  -2.267  0.00  0.00    +0.049 C 
ATOM      8  C   UNL     1       0.617   8.575  -3.144  0.00  0.00    -0.023 C 
ATOM      9  C   UNL     1       1.696   9.047  -2.573  0.00  0.00    -0.030 C 
ATOM     10  C   UNL     1       1.935   8.363  -1.239  0.00  0.00    +0.033 C 
ATOM     11  C   UNL     1       1.147   7.039  -1.384  0.00  0.00    +0.029 C 
ATOM     12  C   UNL     1       0.679   6.534  -0.032  0.00  0.00    +0.107 C 
ATOM     13  N   UNL     1      -0.098   7.580   0.640  0.00  0.00    -0.336 N 
ATOM     14  H   UNL     1       0.091   7.835   1.557  0.00  0.00    +0.147 HD
ENDROOT
BRANCH  12  15
ATOM     15  C   UNL     1      -0.183   5.313  -0.224  0.00  0.00    -0.002 A 
ATOM     16  C   UNL     1      -1.523   5.285  -0.299  0.00  0.00    +0.089 A 
ATOM     17  N   UNL     1      -1.954   3.998  -0.474  0.00  0.00    -0.360 N 
ATOM     18  H   UNL     1      -2.882   3.728  -0.557  0.00  0.00    +0.165 HD
ATOM     19  C   UNL     1      -0.874   3.145  -0.517  0.00  0.00    +0.047 A 
ATOM     20  C   UNL     1       0.282   3.930  -0.362  0.00  0.00    +0.005 A 
ATOM     21  C   UNL     1       1.541   3.326  -0.366  0.00  0.00    +0.010 A 
ATOM     22  C   UNL     1       1.643   1.972  -0.521  0.00  0.00    +0.001 A 
ATOM     23  C   UNL     1       0.505   1.192  -0.674  0.00  0.00    +0.002 A 
ATOM     24  C   UNL     1      -0.747   1.769  -0.679  0.00  0.00    +0.026 A 
ENDBRANCH  12  15
BRANCH   1  28
ATOM     25  C   UNL     1      -6.000  11.726  -2.413  0.00  0.00    +0.109 C 
ATOM     26  C   UNL     1      -4.805  11.136  -1.710  0.00  0.00    +0.214 C 
ATOM     27  O   UNL     1      -4.372  11.662  -0.706  0.00  0.00    -0.276 OA
ATOM     28  N   UNL     1      -4.217  10.025  -2.196  0.00  0.00    -0.286 N 
ATOM     29  H   UNL     1      -4.514   9.649  -3.039  0.00  0.00    +0.155 HD
ENDBRANCH   1  28
TORSDOF 2
