REMARK  Name = ZINC37393508
REMARK  4 active torsions:
REMARK  status: ('A' for Active; 'I' for Inactive)
REMARK    1  A    between atoms: C_1  and  C_2
REMARK    2  A    between atoms: C_2  and  C_3
REMARK    3  A    between atoms: N_7  and  C_8
REMARK    4  A    between atoms: C_11  and  C_15
REMARK                            x       y       z     vdW  Elec       q    Type
REMARK                         _______ _______ _______ _____ _____    ______ ____
ROOT
ATOM      1  C   UNL     1       3.031  -0.602  -0.377  0.00  0.00    +0.052 A 
ATOM      2  C   UNL     1       3.325   0.658   0.134  0.00  0.00    +0.027 A 
ATOM      3  C   UNL     1       4.292   0.801   1.105  0.00  0.00    +0.022 A 
ATOM      4  C   UNL     1       4.978  -0.321   1.576  0.00  0.00    +0.070 A 
ATOM      5  C   UNL     1       4.680  -1.586   1.060  0.00  0.00    +0.060 A 
ATOM      6  C   UNL     1       3.707  -1.721   0.091  0.00  0.00    +0.047 A 
ATOM      7 CL   UNL     1       5.529  -2.985   1.640  0.00  0.00    -0.082 Cl
ENDROOT
BRANCH   1  12
ATOM      8  C   UNL     1       0.707  -0.490  -1.238  0.00  0.00    +0.138 A 
ATOM      9  N   UNL     1       0.156  -0.743  -2.391  0.00  0.00    -0.133 NA
ATOM     10  N   UNL     1       1.046  -1.140  -3.230  0.00  0.00    -0.121 NA
ATOM     11  C   UNL     1       2.225  -1.162  -2.654  0.00  0.00    +0.207 A 
ATOM     12  N   UNL     1       2.048  -0.742  -1.363  0.00  0.00    -0.273 N 
ATOM     13  S   UNL     1       3.748  -1.637  -3.402  0.00  0.00    -0.009 SA
BRANCH   8  15
ATOM     14  C   UNL     1      -0.019   1.526   0.010  0.00  0.00    +0.012 C 
ATOM     15  C   UNL     1       0.002  -0.004   0.002  0.00  0.00    +0.073 C 
ENDBRANCH   8  15
ENDBRANCH   1  12
BRANCH   4  16
ATOM     16  C   UNL     1       5.984  -0.176   2.585  0.00  0.00    +0.101 C 
ATOM     17  N   UNL     1       6.782  -0.061   3.385  0.00  0.00    -0.191 NA
ENDBRANCH   4  16
TORSDOF 3
