REMARK  Name = ZINC63686535
REMARK  10 active torsions:
REMARK  status: ('A' for Active; 'I' for Inactive)
REMARK    1  A    between atoms: C_1  and  C_2
REMARK    2  A    between atoms: C_9  and  C_13
REMARK    3  A    between atoms: C_13  and  S_14
REMARK    4  A    between atoms: S_14  and  C_15
REMARK    5  A    between atoms: C_19  and  C_23
REMARK    6  A    between atoms: N_21  and  C_22
REMARK    7  A    between atoms: C_23  and  O_24
REMARK    8  A    between atoms: O_24  and  C_25
REMARK    9  A    between atoms: C_28  and  C_32
REMARK   10  A    between atoms: C_29  and  C_31
REMARK                            x       y       z     vdW  Elec       q    Type
REMARK                         _______ _______ _______ _____ _____    ______ ____
ROOT
ATOM      1  C   UNL     1       1.548   1.512   6.707  0.00  0.00    +0.200 C 
ATOM      2  N   UNL     1       0.567   2.619   6.623  0.00  0.00    -0.229 NA
ATOM      3  N   UNL     1      -0.068   2.647   7.950  0.00  0.00    -0.234 NA
ATOM      4  C   UNL     1      -0.177   1.207   8.301  0.00  0.00    +0.178 C 
ATOM      5  N   UNL     1       1.074   0.609   7.776  0.00  0.00    -0.261 NA
ATOM      6  C   UNL     1       2.081   0.477   8.838  0.00  0.00    +0.109 C 
ATOM      7  H   UNL     1       1.027   3.494   6.424  0.00  0.00    +0.143 HD
ATOM      8  H   UNL     1       0.507   3.139   8.616  0.00  0.00    +0.142 HD
ENDROOT
BRANCH   1   9
ATOM      9  S   UNL     1       1.616   0.622   5.127  0.00  0.00    -0.119 S 
BRANCH   9  10
ATOM     10  C   UNL     1      -0.090   0.066   4.862  0.00  0.00    +0.125 C 
BRANCH  10  19
ATOM     11  C   UNL     1      -0.057   1.575   0.015  0.00  0.00    +0.046 C 
ATOM     12  C   UNL     1      -0.176   0.073  -0.010  0.00  0.00    -0.026 A 
ATOM     13  C   UNL     1      -0.244  -0.596  -1.212  0.00  0.00    +0.005 A 
ATOM     14  C   UNL     1      -0.353  -1.979  -1.249  0.00  0.00    +0.001 A 
ATOM     15  C   UNL     1      -0.396  -2.704  -0.090  0.00  0.00    +0.014 A 
ATOM     16  C   UNL     1      -0.329  -2.046   1.138  0.00  0.00    +0.045 A 
ATOM     17  C   UNL     1      -0.212  -0.645   1.182  0.00  0.00    +0.053 A 
ATOM     18  N   UNL     1      -0.141  -0.008   2.400  0.00  0.00    -0.357 N 
ATOM     19  C   UNL     1      -0.174  -0.698   3.566  0.00  0.00    +0.030 A 
ATOM     20  C   UNL     1      -0.280  -2.042   3.611  0.00  0.00    +0.073 A 
ATOM     21  C   UNL     1      -0.372  -2.787   2.411  0.00  0.00    +0.190 A 
ATOM     22  O   UNL     1      -0.468  -4.003   2.430  0.00  0.00    -0.287 OA
ATOM     23  H   UNL     1      -0.064   0.959   2.424  0.00  0.00    +0.166 HD
ENDBRANCH  10  19
ENDBRANCH   9  10
ENDBRANCH   1   9
BRANCH   4  24
ATOM     24  C   UNL     1      -0.261   1.031   9.819  0.00  0.00    +0.265 C 
BRANCH  24  25
ATOM     25  O   UNL     1      -1.479   1.604  10.297  0.00  0.00    -0.489 OA
BRANCH  25  26
ATOM     26  C   UNL     1      -1.711   1.532  11.635  0.00  0.00    +0.121 A 
ATOM     27  C   UNL     1      -0.783   0.927  12.470  0.00  0.00    +0.046 A 
ATOM     28  C   UNL     1      -1.020   0.855  13.828  0.00  0.00    +0.007 A 
ATOM     29  C   UNL     1      -2.183   1.386  14.357  0.00  0.00    -0.047 A 
ATOM     30  C   UNL     1      -3.110   1.989  13.527  0.00  0.00    -0.044 A 
ATOM     31  C   UNL     1      -2.874   2.068  12.168  0.00  0.00    +0.049 A 
ATOM     32  C   UNL     1      -4.376   2.566  14.106  0.00  0.00    +0.044 C 
ATOM     33  C   UNL     1      -2.440   1.307  15.839  0.00  0.00    +0.044 C 
ENDBRANCH  25  26
ENDBRANCH  24  25
ENDBRANCH   4  24
TORSDOF 6
