REMARK  Name = ZINC62875443
REMARK  2 active torsions:
REMARK  status: ('A' for Active; 'I' for Inactive)
REMARK    1  A    between atoms: C_1  and  C_2
REMARK    2  A    between atoms: C_2  and  C_19
REMARK                            x       y       z     vdW  Elec       q    Type
REMARK                         _______ _______ _______ _____ _____    ______ ____
ROOT
ATOM      1  C   UNL     1      -0.149   1.328   0.105  0.00  0.00    +0.024 C 
ATOM      2  C   UNL     1      -0.029  -0.198   0.104  0.00  0.00    +0.085 C 
ATOM      3  C   UNL     1       0.677  -0.653  -1.175  0.00  0.00    +0.021 C 
ATOM      4  C   UNL     1       2.061  -0.005  -1.255  0.00  0.00    +0.020 C 
ATOM      5  C   UNL     1       2.900  -0.452  -0.054  0.00  0.00    +0.109 C 
ATOM      6  N   UNL     1       2.162  -0.147   1.179  0.00  0.00    -0.284 N 
ATOM      7  C   UNL     1       0.787  -0.647   1.321  0.00  0.00    +0.127 C 
ATOM      8  C   UNL     1       2.734   0.576   2.161  0.00  0.00    +0.305 C 
ATOM      9  O   UNL     1       2.062   0.976   3.093  0.00  0.00    -0.252 OA
ATOM     10  N   UNL     1       4.051   0.857   2.111  0.00  0.00    -0.282 N 
ATOM     11  C   UNL     1       4.968   0.591   0.983  0.00  0.00    +0.113 C 
ATOM     12  C   UNL     1       6.366   1.089   1.465  0.00  0.00    +0.008 C 
ATOM     13  C   UNL     1       6.232   2.644   1.467  0.00  0.00    +0.007 C 
ATOM     14  C   UNL     1       5.214   2.933   2.595  0.00  0.00    +0.023 C 
ATOM     15  C   UNL     1       4.865   1.503   3.181  0.00  0.00    +0.078 C 
ATOM     16  C   UNL     1       6.242   0.766   2.997  0.00  0.00    +0.027 C 
ENDROOT
BRANCH   2  17
ATOM     17  C   UNL     1      -1.404  -0.811   0.167  0.00  0.00    +0.363 C 
ATOM     18  O   UNL     1      -2.215  -0.579  -0.713  0.00  0.00    -0.246 OA
ATOM     19  O   UNL     1      -1.705  -1.538   1.098  0.00  0.00    -0.246 OA
ENDBRANCH   2  17
TORSDOF 1
