REMARK  Name = ZINC19315981
REMARK  10 active torsions:
REMARK  status: ('A' for Active; 'I' for Inactive)
REMARK    1  A    between atoms: C_1  and  C_2
REMARK    2  A    between atoms: C_2  and  N_3
REMARK    3  A    between atoms: N_3  and  C_4
REMARK    4  A    between atoms: C_4  and  C_5
REMARK    5  A    between atoms: N_7  and  C_8
REMARK    6  A    between atoms: C_8  and  C_9
REMARK    7  A    between atoms: C_14  and  C_16
REMARK    8  A    between atoms: C_16  and  S_17
REMARK    9  A    between atoms: S_17  and  C_18
REMARK   10  A    between atoms: C_28  and  C_32
REMARK                            x       y       z     vdW  Elec       q    Type
REMARK                         _______ _______ _______ _____ _____    ______ ____
ROOT
ATOM      1  S   UNL     1       6.363   3.141   2.877  0.00  0.00    -0.077 S 
ENDROOT
BRANCH   1   2
ATOM      2  C   UNL     1       7.277   4.614   2.561  0.00  0.00    +0.191 A 
ATOM      3  N   UNL     1       7.600   4.924   1.310  0.00  0.00    -0.207 NA
ATOM      4  C   UNL     1       8.280   6.018   1.011  0.00  0.00    +0.129 A 
ATOM      5  C   UNL     1       8.692   6.889   2.059  0.00  0.00    +0.051 A 
ATOM      6  C   UNL     1       9.450   8.139   1.964  0.00  0.00    -0.025 A 
ATOM      7  C   UNL     1       9.715   8.782   3.118  0.00  0.00    -0.004 A 
ATOM      8  S   UNL     1       8.985   7.780   4.385  0.00  0.00    -0.073 S 
ATOM      9  C   UNL     1       8.321   6.494   3.359  0.00  0.00    +0.115 A 
ATOM     10  N   UNL     1       7.636   5.388   3.576  0.00  0.00    -0.214 NA
ATOM     11  C   UNL     1      10.467  10.067   3.289  0.00  0.00    +0.046 C 
ATOM     12  C   UNL     1      10.579  10.749   1.919  0.00  0.00    -0.009 C 
ATOM     13  C   UNL     1      11.045   9.713   0.891  0.00  0.00    +0.008 C 
ATOM     14  C   UNL     1       9.927   8.704   0.629  0.00  0.00    +0.037 C 
ATOM     15  C   UNL     1      11.596  11.890   1.995  0.00  0.00    +0.008 C 
ATOM     16  N   UNL     1       8.591   6.310  -0.304  0.00  0.00    -0.343 N 
ATOM     17  H   UNL     1       9.157   7.221  -0.546  0.00  0.00    +0.144 HD
ATOM     18  H   UNL     1       8.273   5.630  -1.109  0.00  0.00    +0.144 HD
ENDBRANCH   1   2
BRANCH   1  19
ATOM     19  C   UNL     1       6.168   2.523   1.187  0.00  0.00    +0.173 C 
BRANCH  19  21
ATOM     20  N   UNL     1       5.124   0.585   0.059  0.00  0.00    -0.292 N 
ATOM     21  C   UNL     1       5.392   1.231   1.211  0.00  0.00    +0.226 C 
ATOM     22  O   UNL     1       5.008   0.774   2.267  0.00  0.00    -0.275 OA
BRANCH  20  24
ATOM     23  C   UNL     1       4.516   2.068  -1.788  0.00  0.00    +0.024 C 
ATOM     24  C   UNL     1       5.588   1.137  -1.216  0.00  0.00    +0.105 C 
ENDBRANCH  20  24
BRANCH  20  25
ATOM     25  C   UNL     1       4.369  -0.671   0.083  0.00  0.00    +0.203 C 
BRANCH  25  26
ATOM     26  C   UNL     1       2.897  -0.374  -0.036  0.00  0.00    +0.231 C 
ATOM     27  O   UNL     1       2.515   0.773  -0.130  0.00  0.00    -0.274 OA
ATOM     28  N   UNL     1       2.004  -1.384  -0.036  0.00  0.00    -0.309 N 
ATOM     29  H   UNL     1       2.350  -2.424   0.054  0.00  0.00    +0.149 HD
BRANCH  28  30
ATOM     30  C   UNL     1       0.573  -1.095  -0.158  0.00  0.00    +0.146 C 
BRANCH  30  31
ATOM     31  C   UNL     1      -0.203  -2.387  -0.139  0.00  0.00    +0.007 A 
ATOM     32  C   UNL     1      -0.714  -3.061   0.920  0.00  0.00    +0.013 A 
ATOM     33  C   UNL     1      -1.402  -4.239   0.697  0.00  0.00    +0.008 A 
ATOM     34  C   UNL     1      -1.536  -4.692  -0.574  0.00  0.00    +0.045 A 
ATOM     35  S   UNL     1      -0.681  -3.432  -1.506  0.00  0.00    -0.100 S 
ENDBRANCH  30  31
ENDBRANCH  28  30
ENDBRANCH  25  26
ENDBRANCH  20  25
ENDBRANCH  19  21
ENDBRANCH   1  19
TORSDOF 8
