REMARK  Name = ZINC20763355
REMARK  10 active torsions:
REMARK  status: ('A' for Active; 'I' for Inactive)
REMARK    1  A    between atoms: C_1  and  C_2
REMARK    2  A    between atoms: C_2  and  C_3
REMARK    3  A    between atoms: C_6  and  C_9
REMARK    4  A    between atoms: C_11  and  C_25
REMARK    5  A    between atoms: C_14  and  C_17
REMARK    6  A    between atoms: C_22  and  O_23
REMARK    7  A    between atoms: C_28  and  O_33
REMARK    8  A    between atoms: C_29  and  O_31
REMARK    9  A    between atoms: O_31  and  C_32
REMARK   10  A    between atoms: O_33  and  C_34
REMARK                            x       y       z     vdW  Elec       q    Type
REMARK                         _______ _______ _______ _____ _____    ______ ____
ROOT
ATOM      1  C   UNL     1       4.272  -4.283   4.194  0.00  0.00    +0.040 C 
ATOM      2  N   UNL     1       3.119  -3.831   3.871  0.00  0.00    -0.299 NA
ATOM      3  C   UNL     1       2.590  -2.548   4.315  0.00  0.00    +0.081 C 
ATOM      4  N   UNL     1       3.670  -1.683   4.806  0.00  0.00    +0.401 N 
ATOM      5  C   UNL     1       4.488  -2.404   5.796  0.00  0.00    -0.028 C 
ATOM      6  C   UNL     1       5.233  -3.530   5.072  0.00  0.00    +0.044 C 
ATOM      7  H   UNL     1       4.309  -1.380   3.963  0.00  0.00    -0.081 HD
ATOM      8  H   UNL     1       3.238  -0.789   5.279  0.00  0.00    -0.081 HD
ENDROOT
BRANCH   5   9
ATOM      9  C   UNL     1       5.481  -1.458   6.421  0.00  0.00    -0.018 A 
ATOM     10  C   UNL     1       5.810  -0.279   5.781  0.00  0.00    +0.020 A 
ATOM     11  C   UNL     1       6.721   0.590   6.354  0.00  0.00    +0.018 A 
ATOM     12  C   UNL     1       7.305   0.280   7.570  0.00  0.00    +0.019 A 
ATOM     13  C   UNL     1       6.979  -0.898   8.213  0.00  0.00    +0.047 A 
ATOM     14  C   UNL     1       6.061  -1.768   7.643  0.00  0.00    +0.119 A 
ATOM     15 BR   UNL     1       7.169   2.203   5.476  0.00  0.00    -0.050 Br
BRANCH  14  16
ATOM     16  O   UNL     1       5.734  -2.925   8.277  0.00  0.00    -0.507 OA
ATOM     17  H   UNL     1       6.194  -3.170   9.246  0.00  0.00    +0.292 HD
ENDBRANCH  14  16
ENDBRANCH   5   9
BRANCH   1  21
ATOM     18  C   UNL     1       5.439  -8.088   2.716  0.00  0.00    -0.048 A 
ATOM     19  C   UNL     1       4.199  -7.572   2.385  0.00  0.00    +0.004 A 
ATOM     20  C   UNL     1       3.813  -6.336   2.862  0.00  0.00    +0.010 A 
ATOM     21  C   UNL     1       4.678  -5.606   3.680  0.00  0.00    -0.004 A 
ATOM     22  C   UNL     1       5.930  -6.131   4.006  0.00  0.00    +0.010 A 
ATOM     23  C   UNL     1       6.300  -7.371   3.527  0.00  0.00    +0.004 A 
BRANCH  18  25
ATOM     24  C   UNL     1       6.566  -9.269   0.849  0.00  0.00    +0.009 C 
ATOM     25  C   UNL     1       5.853  -9.439   2.192  0.00  0.00    +0.032 C 
ENDBRANCH  18  25
ENDBRANCH   1  21
BRANCH   3  26
ATOM     26  C   UNL     1       1.897  -1.870   3.161  0.00  0.00    -0.037 A 
ATOM     27  C   UNL     1       1.841  -0.490   3.105  0.00  0.00    +0.007 A 
ATOM     28  C   UNL     1       1.212   0.137   2.045  0.00  0.00    +0.049 A 
ATOM     29  C   UNL     1       0.626  -0.619   1.042  0.00  0.00    +0.161 A 
ATOM     30  C   UNL     1       0.683  -2.008   1.099  0.00  0.00    +0.162 A 
ATOM     31  C   UNL     1       1.320  -2.630   2.161  0.00  0.00    +0.053 A 
BRANCH  30  32
ATOM     32  O   UNL     1       0.115  -2.754   0.114  0.00  0.00    -0.491 OA
ATOM     33  C   UNL     1       0.212  -4.174   0.238  0.00  0.00    +0.277 C 
ENDBRANCH  30  32
BRANCH  29  34
ATOM     34  O   UNL     1       0.002  -0.004   0.002  0.00  0.00    -0.491 OA
ATOM     35  C   UNL     1      -0.017   1.425   0.010  0.00  0.00    +0.277 C 
ENDBRANCH  29  34
ENDBRANCH   3  26
TORSDOF 7
