REMARK  Name = ZINC08594561
REMARK  13 active torsions:
REMARK  status: ('A' for Active; 'I' for Inactive)
REMARK    1  A    between atoms: C_1  and  C_2
REMARK    2  A    between atoms: C_2  and  O_3
REMARK    3  A    between atoms: O_3  and  C_4
REMARK    4  A    between atoms: C_6  and  C_16
REMARK    5  A    between atoms: C_8  and  O_13
REMARK    6  A    between atoms: C_9  and  O_10
REMARK    7  A    between atoms: O_10  and  C_11
REMARK    8  A    between atoms: C_11  and  C_12
REMARK    9  A    between atoms: O_13  and  C_14
REMARK   10  A    between atoms: C_14  and  C_15
REMARK   11  A    between atoms: N_18  and  C_19
REMARK   12  A    between atoms: C_28  and  O_29
REMARK   13  A    between atoms: N_30  and  C_31
REMARK                            x       y       z     vdW  Elec       q    Type
REMARK                         _______ _______ _______ _____ _____    ______ ____
ROOT
ATOM      1  C   UNL     1       0.688  -4.896  -0.224  0.00  0.00    +0.249 C 
ATOM      2  O   UNL     1       1.811  -4.450  -0.364  0.00  0.00    -0.270 OA
ATOM      3  N   UNL     1       0.506  -6.221  -0.057  0.00  0.00    -0.274 N 
ATOM      4  H   UNL     1      -0.380  -6.569   0.130  0.00  0.00    +0.155 HD
ENDROOT
BRANCH   3   5
ATOM      5  C   UNL     1       1.601  -7.101  -0.154  0.00  0.00    +0.139 A 
ATOM      6  C   UNL     1       2.663  -7.102   0.865  0.00  0.00    +0.074 A 
ATOM      7  C   UNL     1       3.896  -7.850   0.519  0.00  0.00    +0.042 A 
ATOM      8  C   UNL     1       5.059  -7.718   1.269  0.00  0.00    +0.013 A 
ATOM      9  C   UNL     1       6.184  -8.429   0.908  0.00  0.00    +0.001 A 
ATOM     10  C   UNL     1       6.155  -9.267  -0.196  0.00  0.00    +0.004 A 
ATOM     11  C   UNL     1       5.005  -9.405  -0.945  0.00  0.00    +0.047 A 
ATOM     12  C   UNL     1       3.860  -8.699  -0.596  0.00  0.00    +0.141 A 
ATOM     13  O   UNL     1       2.725  -8.833  -1.313  0.00  0.00    -0.424 OA
ATOM     14  C   UNL     1       1.705  -7.974  -1.189  0.00  0.00    +0.309 A 
ATOM     15  N   UNL     1       2.526  -6.478   2.016  0.00  0.00    -0.385 N 
ATOM     16  C   UNL     1       1.236  -5.887   2.380  0.00  0.00    +0.139 C 
ATOM     17  H   UNL     1       3.279  -6.409   2.623  0.00  0.00    +0.159 HD
BRANCH  14  18
ATOM     18  O   UNL     1       0.739  -7.973  -2.137  0.00  0.00    -0.479 OA
ATOM     19  H   UNL     1       0.879  -8.620  -2.841  0.00  0.00    +0.295 HD
ENDBRANCH  14  18
ENDBRANCH   3   5
BRANCH   1  22
ATOM     20  C   UNL     1      -1.377  -1.764  -0.420  0.00  0.00    +0.166 A 
ATOM     21  C   UNL     1      -0.286  -2.614  -0.409  0.00  0.00    +0.062 A 
ATOM     22  C   UNL     1      -0.474  -3.987  -0.236  0.00  0.00    +0.044 A 
ATOM     23  C   UNL     1      -1.764  -4.498  -0.075  0.00  0.00    +0.062 A 
ATOM     24  C   UNL     1      -2.851  -3.645  -0.087  0.00  0.00    +0.166 A 
ATOM     25  C   UNL     1      -2.661  -2.276  -0.255  0.00  0.00    +0.204 A 
BRANCH  20  26
ATOM     26  O   UNL     1      -1.195  -0.427  -0.588  0.00  0.00    -0.488 OA
BRANCH  26  28
ATOM     27  C   UNL     1       0.155   1.549  -0.926  0.00  0.00    +0.048 C 
ATOM     28  C   UNL     1       0.149   0.029  -0.752  0.00  0.00    +0.226 C 
ENDBRANCH  26  28
ENDBRANCH  20  26
BRANCH  25  29
ATOM     29  O   UNL     1      -3.731  -1.438  -0.261  0.00  0.00    -0.485 OA
BRANCH  29  30
ATOM     30  C   UNL     1      -4.347  -1.182  -1.524  0.00  0.00    +0.226 C 
ATOM     31  C   UNL     1      -5.525  -0.224  -1.333  0.00  0.00    +0.048 C 
ENDBRANCH  29  30
ENDBRANCH  25  29
BRANCH  24  32
ATOM     32  O   UNL     1      -4.108  -4.142   0.069  0.00  0.00    -0.488 OA
BRANCH  32  33
ATOM     33  C   UNL     1      -4.229  -5.555   0.240  0.00  0.00    +0.226 C 
ATOM     34  C   UNL     1      -5.705  -5.925   0.399  0.00  0.00    +0.048 C 
ENDBRANCH  32  33
ENDBRANCH  24  32
ENDBRANCH   1  22
TORSDOF 9
