REMARK  Name = ZINC64337959
REMARK  11 active torsions:
REMARK  status: ('A' for Active; 'I' for Inactive)
REMARK    1  A    between atoms: C_1  and  C_2
REMARK    2  A    between atoms: C_2  and  O_3
REMARK    3  A    between atoms: O_3  and  C_4
REMARK    4  A    between atoms: C_7  and  N_10
REMARK    5  A    between atoms: C_11  and  C_27
REMARK    6  A    between atoms: C_14  and  S_15
REMARK    7  A    between atoms: S_15  and  C_16
REMARK    8  A    between atoms: C_16  and  C_18
REMARK    9  A    between atoms: C_16  and  C_21
REMARK   10  A    between atoms: C_18  and  C_19
REMARK   11  A    between atoms: C_18  and  C_20
REMARK                            x       y       z     vdW  Elec       q    Type
REMARK                         _______ _______ _______ _____ _____    ______ ____
ROOT
ATOM      1  N   UNL     1       1.110  -6.020  -1.721  0.00  0.00    -0.270 N 
ATOM      2  C   UNL     1       2.222  -6.809  -1.476  0.00  0.00    +0.168 A 
ATOM      3  N   UNL     1       1.817  -8.071  -1.524  0.00  0.00    -0.128 NA
ATOM      4  N   UNL     1       0.558  -8.114  -1.777  0.00  0.00    -0.122 NA
ATOM      5  C   UNL     1       0.074  -6.887  -1.900  0.00  0.00    +0.197 A 
ENDROOT
BRANCH   2   6
ATOM      6  C   UNL     1       3.527  -6.359  -1.226  0.00  0.00    +0.025 C 
ATOM      7  C   UNL     1       4.657  -7.141  -0.984  0.00  0.00    +0.006 A 
ATOM      8  C   UNL     1       4.853  -8.537  -0.915  0.00  0.00    +0.010 A 
ATOM      9  C   UNL     1       6.091  -9.032  -0.658  0.00  0.00    +0.001 A 
ATOM     10  C   UNL     1       7.187  -8.190  -0.457  0.00  0.00    +0.002 A 
ATOM     11  C   UNL     1       7.072  -6.840  -0.509  0.00  0.00    +0.026 A 
ATOM     12  C   UNL     1       5.809  -6.250  -0.774  0.00  0.00    +0.043 A 
ATOM     13  N   UNL     1       5.440  -4.988  -0.875  0.00  0.00    -0.380 N 
ATOM     14  C   UNL     1       4.005  -4.925  -1.169  0.00  0.00    +0.152 C 
ATOM     15  H   UNL     1       6.027  -4.222  -0.774  0.00  0.00    +0.160 HD
ENDBRANCH   2   6
BRANCH   1  19
ATOM     16  C   UNL     1       0.962  -1.854  -1.861  0.00  0.00    +0.121 A 
ATOM     17  C   UNL     1       0.278  -2.539  -0.867  0.00  0.00    +0.047 A 
ATOM     18  C   UNL     1       0.327  -3.918  -0.820  0.00  0.00    +0.030 A 
ATOM     19  C   UNL     1       1.060  -4.619  -1.768  0.00  0.00    +0.051 A 
ATOM     20  C   UNL     1       1.743  -3.933  -2.763  0.00  0.00    +0.030 A 
ATOM     21  C   UNL     1       1.690  -2.554  -2.812  0.00  0.00    +0.047 A 
BRANCH  16  22
ATOM     22  O   UNL     1       0.913  -0.496  -1.906  0.00  0.00    -0.492 OA
BRANCH  22  24
ATOM     23  C   UNL     1       0.208   1.674  -1.109  0.00  0.00    +0.048 C 
ATOM     24  C   UNL     1       0.145   0.160  -0.896  0.00  0.00    +0.225 C 
ENDBRANCH  22  24
ENDBRANCH  16  22
ENDBRANCH   1  19
BRANCH   5  25
ATOM     25  S   UNL     1      -1.600  -6.455  -2.239  0.00  0.00    -0.073 S 
BRANCH  25  26
ATOM     26  C   UNL     1      -2.418  -8.051  -2.515  0.00  0.00    +0.143 C 
BRANCH  26  27
ATOM     27  C   UNL     1      -1.900  -8.667  -3.789  0.00  0.00    +0.234 C 
ATOM     28  O   UNL     1      -1.360  -7.972  -4.623  0.00  0.00    -0.274 OA
ATOM     29  N   UNL     1      -2.037  -9.991  -4.002  0.00  0.00    -0.239 N 
ATOM     30  C   UNL     1      -1.574 -10.542  -5.142  0.00  0.00    +0.303 C 
ATOM     31  O   UNL     1      -1.032  -9.845  -5.978  0.00  0.00    -0.253 OA
ATOM     32  N   UNL     1      -1.711 -11.865  -5.355  0.00  0.00    -0.313 N 
ATOM     33  H   UNL     1      -2.469 -10.547  -3.336  0.00  0.00    +0.159 HD
ATOM     34  H   UNL     1      -2.143 -12.422  -4.688  0.00  0.00    +0.146 HD
ATOM     35  H   UNL     1      -1.377 -12.262  -6.175  0.00  0.00    +0.146 HD
ENDBRANCH  26  27
BRANCH  26  36
ATOM     36  C   UNL     1      -3.928  -7.837  -2.630  0.00  0.00    +0.005 C 
ATOM     37  C   UNL     1      -4.617  -9.182  -2.869  0.00  0.00    +0.009 C 
ATOM     38  C   UNL     1      -4.455  -7.218  -1.333  0.00  0.00    +0.009 C 
ENDBRANCH  26  36
ENDBRANCH  25  26
ENDBRANCH   5  25
TORSDOF 8
