REMARK  Name = ZINC61917202
REMARK  5 active torsions:
REMARK  status: ('A' for Active; 'I' for Inactive)
REMARK    1  A    between atoms: C_1  and  C_2
REMARK    2  A    between atoms: C_2  and  N_3
REMARK    3  A    between atoms: N_3  and  C_4
REMARK    4  A    between atoms: C_10  and  N_12
REMARK    5  A    between atoms: C_17  and  C_20
REMARK                            x       y       z     vdW  Elec       q    Type
REMARK                         _______ _______ _______ _____ _____    ______ ____
ROOT
ATOM      1  C   UNL     1      -1.288  -2.295  -0.164  0.00  0.00    -0.054 C 
ATOM      2  C   UNL     1      -0.548  -2.802   1.076  0.00  0.00    -0.009 C 
ATOM      3  C   UNL     1      -1.028  -2.031   2.307  0.00  0.00    +0.063 C 
ATOM      4  C   UNL     1      -2.533  -2.240   2.484  0.00  0.00    +0.171 C 
ATOM      5  C   UNL     1      -3.275  -1.739   1.244  0.00  0.00    +0.082 C 
ATOM      6  C   UNL     1      -2.792  -2.511   0.015  0.00  0.00    +0.048 C 
ATOM      7  O   UNL     1      -2.985  -1.513   3.638  0.00  0.00    -0.346 OA
ATOM      8  C   UNL     1      -4.012  -2.349   4.223  0.00  0.00    +0.191 C 
ATOM      9  C   UNL     1      -3.449  -3.769   3.962  0.00  0.00    +0.191 C 
ATOM     10  O   UNL     1      -2.806  -3.634   2.678  0.00  0.00    -0.346 OA
ENDROOT
BRANCH   6  11
ATOM     11  N   UNL     1      -3.501  -2.027  -1.177  0.00  0.00    -0.298 NA
ATOM     12  C   UNL     1      -4.956  -2.244  -1.052  0.00  0.00    +0.087 C 
ATOM     13  C   UNL     1      -5.674  -1.217  -1.893  0.00  0.00    +0.043 C 
ATOM     14  C   UNL     1      -5.930  -1.730  -3.319  0.00  0.00    +0.161 C 
ATOM     15  O   UNL     1      -4.804  -2.448  -3.858  0.00  0.00    -0.376 OA
ATOM     16  C   UNL     1      -3.530  -1.904  -3.614  0.00  0.00    +0.129 C 
ATOM     17  C   UNL     1      -2.936  -2.556  -2.349  0.00  0.00    +0.116 C 
ATOM     18  C   UNL     1      -2.618  -2.179  -4.811  0.00  0.00    +0.039 C 
ENDBRANCH   6  11
BRANCH   1  19
ATOM     19  N   UNL     1      -1.016  -0.862  -0.344  0.00  0.00    +0.382 N 
ATOM     20  H   UNL     1      -1.245  -0.368   0.506  0.00  0.00    -0.085 HD
ATOM     21  H   UNL     1      -1.579  -0.506  -1.102  0.00  0.00    -0.085 HD
BRANCH  19  23
ATOM     22  C   UNL     1       0.688   0.824  -0.843  0.00  0.00    -0.017 C 
ATOM     23  C   UNL     1       0.406  -0.668  -0.656  0.00  0.00    -0.086 C 
ENDBRANCH  19  23
ENDBRANCH   1  19
TORSDOF 3
