REMARK  Name = ZINC13494826
REMARK  13 active torsions:
REMARK  status: ('A' for Active; 'I' for Inactive)
REMARK    1  A    between atoms: C_1  and  C_2
REMARK    2  A    between atoms: C_2  and  C_3
REMARK    3  A    between atoms: C_3  and  C_5
REMARK    4  A    between atoms: C_3  and  N_18
REMARK    5  A    between atoms: N_9  and  C_10
REMARK    6  A    between atoms: C_10  and  C_11
REMARK    7  A    between atoms: N_18  and  C_19
REMARK    8  A    between atoms: N_18  and  C_27
REMARK    9  A    between atoms: C_19  and  C_20
REMARK   10  A    between atoms: C_23  and  C_26
REMARK   11  A    between atoms: C_27  and  C_28
REMARK   12  A    between atoms: C_32  and  C_41
REMARK   13  A    between atoms: C_34  and  C_40
REMARK                            x       y       z     vdW  Elec       q    Type
REMARK                         _______ _______ _______ _____ _____    ______ ____
ROOT
ATOM      1  N   UNL     1      -2.066  -0.278   1.407  0.00  0.00    -0.284 NA
ENDROOT
BRANCH   1   2
ATOM      2  C   UNL     1      -1.734  -0.600   0.012  0.00  0.00    +0.127 C 
BRANCH   2   3
ATOM      3  C   UNL     1      -2.940  -0.359  -0.860  0.00  0.00    +0.169 A 
ATOM      4  N   UNL     1      -4.175  -0.716  -0.603  0.00  0.00    -0.112 NA
ATOM      5  N   UNL     1      -4.912  -0.332  -1.587  0.00  0.00    -0.023 NA
ATOM      6  N   UNL     1      -4.180   0.261  -2.465  0.00  0.00    -0.044 NA
ATOM      7  N   UNL     1      -2.958   0.269  -2.050  0.00  0.00    -0.223 N 
BRANCH   7   8
ATOM      8  C   UNL     1      -1.807   0.849  -2.745  0.00  0.00    +0.182 C 
BRANCH   8   9
ATOM      9  C   UNL     1      -1.185  -0.191  -3.641  0.00  0.00    -0.026 A 
ATOM     10  C   UNL     1      -0.188  -1.016  -3.154  0.00  0.00    +0.008 A 
ATOM     11  C   UNL     1       0.383  -1.970  -3.974  0.00  0.00    +0.038 A 
ATOM     12  C   UNL     1      -0.044  -2.100  -5.285  0.00  0.00    +0.123 A 
ATOM     13  C   UNL     1      -1.042  -1.273  -5.772  0.00  0.00    +0.038 A 
ATOM     14  C   UNL     1      -1.615  -0.323  -4.948  0.00  0.00    +0.008 A 
ATOM     15  F   UNL     1       0.514  -3.032  -6.088  0.00  0.00    -0.205 F 
ENDBRANCH   8   9
ENDBRANCH   7   8
ENDBRANCH   2   3
BRANCH   2  17
ATOM     16  C   UNL     1      -0.027  -2.289   0.704  0.00  0.00    +0.006 C 
ATOM     17  C   UNL     1      -1.319  -2.070  -0.087  0.00  0.00    +0.023 C 
ENDBRANCH   2  17
ENDBRANCH   1   2
BRANCH   1  18
ATOM     18  C   UNL     1      -3.275  -0.991   1.838  0.00  0.00    +0.120 C 
BRANCH  18  19
ATOM     19  C   UNL     1      -3.361  -0.969   3.343  0.00  0.00    -0.033 A 
ATOM     20  C   UNL     1      -2.679  -1.913   4.088  0.00  0.00    +0.005 A 
ATOM     21  C   UNL     1      -2.758  -1.893   5.468  0.00  0.00    +0.003 A 
ATOM     22  C   UNL     1      -3.518  -0.929   6.103  0.00  0.00    -0.050 A 
ATOM     23  C   UNL     1      -4.200   0.015   5.358  0.00  0.00    +0.003 A 
ATOM     24  C   UNL     1      -4.117  -0.002   3.978  0.00  0.00    +0.005 A 
ATOM     25  C   UNL     1      -3.605  -0.908   7.607  0.00  0.00    +0.044 C 
ENDBRANCH  18  19
ENDBRANCH   1  18
BRANCH   1  26
ATOM     26  C   UNL     1      -2.215   1.172   1.590  0.00  0.00    +0.126 C 
BRANCH  26  27
ATOM     27  C   UNL     1      -0.854   1.817   1.624  0.00  0.00    +0.031 A 
ATOM     28  C   UNL     1      -0.348   2.387   0.502  0.00  0.00    +0.020 A 
ATOM     29  C   UNL     1       0.977   3.006   0.568  0.00  0.00    -0.001 A 
ATOM     30  C   UNL     1       1.550   3.609  -0.557  0.00  0.00    +0.013 A 
ATOM     31  C   UNL     1       2.788   4.178  -0.462  0.00  0.00    -0.050 A 
ATOM     32  C   UNL     1       3.483   4.162   0.740  0.00  0.00    +0.008 A 
ATOM     33  C   UNL     1       2.938   3.573   1.860  0.00  0.00    -0.026 A 
ATOM     34  C   UNL     1       1.678   2.988   1.788  0.00  0.00    +0.052 A 
ATOM     35  N   UNL     1       1.109   2.392   2.893  0.00  0.00    -0.322 N 
ATOM     36  H   UNL     1       1.593   2.381   3.733  0.00  0.00    +0.169 HD
ATOM     37  C   UNL     1      -0.111   1.831   2.824  0.00  0.00    +0.254 A 
ATOM     38  O   UNL     1      -0.586   1.317   3.822  0.00  0.00    -0.268 OA
ATOM     39  C   UNL     1       3.704   3.562   3.157  0.00  0.00    +0.046 C 
ATOM     40  C   UNL     1       3.406   4.829  -1.673  0.00  0.00    +0.044 C 
ENDBRANCH  26  27
ENDBRANCH   1  26
TORSDOF 9
