REMARK  Name = ZINC24959066
REMARK  3 active torsions:
REMARK  status: ('A' for Active; 'I' for Inactive)
REMARK    1  A    between atoms: C_6  and  N_7
REMARK    2  A    between atoms: C_10  and  C_12
REMARK    3  A    between atoms: N_14  and  C_15
REMARK                            x       y       z     vdW  Elec       q    Type
REMARK                         _______ _______ _______ _____ _____    ______ ____
ROOT
ATOM      1  N   UNL     1      -2.429   1.038   0.019  0.00  0.00    -0.236 N 
ATOM      2  C   UNL     1      -3.563   1.422   0.666  0.00  0.00    +0.049 A 
ATOM      3  C   UNL     1      -4.494   0.474   0.425  0.00  0.00    +0.006 A 
ATOM      4  C   UNL     1      -3.861  -0.490  -0.394  0.00  0.00    +0.151 A 
ATOM      5  N   UNL     1      -2.626  -0.073  -0.595  0.00  0.00    -0.161 NA
ATOM      6  C   UNL     1      -5.793   0.823   1.110  0.00  0.00    +0.040 C 
ATOM      7  C   UNL     1      -5.672   2.324   1.455  0.00  0.00    +0.011 C 
ATOM      8  C   UNL     1      -4.141   2.510   1.542  0.00  0.00    +0.056 C 
ENDROOT
BRANCH   1  14
ATOM      9  C   UNL     1      -0.013   1.076   0.008  0.00  0.00    +0.030 A 
ATOM     10  C   UNL     1       1.173   1.783   0.000  0.00  0.00    +0.040 A 
ATOM     11  C   UNL     1       1.155   3.168   0.008  0.00  0.00    +0.124 A 
ATOM     12  C   UNL     1      -0.052   3.846   0.023  0.00  0.00    +0.040 A 
ATOM     13  C   UNL     1      -1.240   3.143   0.031  0.00  0.00    +0.030 A 
ATOM     14  C   UNL     1      -1.224   1.754   0.017  0.00  0.00    +0.066 A 
ATOM     15  F   UNL     1       2.317   3.858  -0.001  0.00  0.00    -0.205 F 
ENDBRANCH   1  14
BRANCH   4  16
ATOM     16  C   UNL     1      -4.469  -1.725  -0.928  0.00  0.00    +0.265 C 
ATOM     17  O   UNL     1      -5.627  -1.992  -0.671  0.00  0.00    -0.268 OA
ATOM     18  N   UNL     1      -3.741  -2.555  -1.700  0.00  0.00    -0.307 N 
ATOM     19  H   UNL     1      -2.693  -2.313  -1.932  0.00  0.00    +0.149 HD
BRANCH  18  20
ATOM     20  C   UNL     1      -4.345  -3.781  -2.230  0.00  0.00    +0.079 C 
ATOM     21  C   UNL     1      -4.238  -4.894  -1.186  0.00  0.00    +0.010 C 
ATOM     22  C   UNL     1      -4.868  -6.174  -1.739  0.00  0.00    +0.009 C 
ATOM     23  C   UNL     1      -4.132  -6.596  -3.013  0.00  0.00    -0.010 C 
ATOM     24  C   UNL     1      -2.658  -6.852  -2.689  0.00  0.00    +0.007 C 
ATOM     25  C   UNL     1      -2.028  -5.572  -2.135  0.00  0.00    -0.010 C 
ATOM     26  C   UNL     1      -2.764  -5.150  -0.862  0.00  0.00    +0.009 C 
ATOM     27  C   UNL     1      -2.135  -4.458  -3.179  0.00  0.00    +0.009 C 
ATOM     28  C   UNL     1      -3.608  -4.202  -3.503  0.00  0.00    +0.010 C 
ATOM     29  C   UNL     1      -4.239  -5.482  -4.056  0.00  0.00    +0.009 C 
ENDBRANCH  18  20
ENDBRANCH   4  16
TORSDOF 3
