REMARK  Name = ZINC20704995
REMARK  3 active torsions:
REMARK  status: ('A' for Active; 'I' for Inactive)
REMARK    1  A    between atoms: C_3  and  C_10
REMARK    2  A    between atoms: C_5  and  N_7
REMARK    3  A    between atoms: C_21  and  C_26
REMARK                            x       y       z     vdW  Elec       q    Type
REMARK                         _______ _______ _______ _____ _____    ______ ____
ROOT
ATOM      1  C   UNL     1       1.268   1.708  -0.001  0.00  0.00    +0.105 C 
ATOM      2  C   UNL     1       1.461   2.901  -0.920  0.00  0.00    +0.029 C 
ATOM      3  C   UNL     1       2.845   3.564  -0.925  0.00  0.00    +0.033 C 
ATOM      4  C   UNL     1       2.492   5.011  -1.276  0.00  0.00    -0.030 C 
ATOM      5  C   UNL     1       1.246   5.278  -0.902  0.00  0.00    -0.023 C 
ATOM      6  C   UNL     1       0.677   4.070  -0.251  0.00  0.00    +0.049 C 
ATOM      7  C   UNL     1      -0.765   3.748  -0.319  0.00  0.00    -0.018 A 
ATOM      8  C   UNL     1      -1.727   4.714  -0.486  0.00  0.00    +0.025 A 
ATOM      9  C   UNL     1      -3.079   4.360  -0.528  0.00  0.00    +0.052 A 
ATOM     10  C   UNL     1      -3.447   3.017  -0.398  0.00  0.00    +0.020 A 
ATOM     11  C   UNL     1      -2.481   2.053  -0.238  0.00  0.00    +0.024 A 
ATOM     12  C   UNL     1      -1.132   2.399  -0.207  0.00  0.00    +0.031 A 
ATOM     13  N   UNL     1      -0.176   1.394  -0.054  0.00  0.00    -0.336 N 
ATOM     14  H   UNL     1      -0.515   0.350   0.029  0.00  0.00    +0.147 HD
ENDROOT
BRANCH   1  17
ATOM     15  C   UNL     1       3.348   2.204   3.111  0.00  0.00    +0.003 A 
ATOM     16  C   UNL     1       2.976   1.873   1.821  0.00  0.00    +0.005 A 
ATOM     17  C   UNL     1       1.672   2.065   1.407  0.00  0.00    -0.025 A 
ATOM     18  C   UNL     1       0.736   2.580   2.285  0.00  0.00    +0.038 A 
ATOM     19  C   UNL     1       1.106   2.907   3.575  0.00  0.00    +0.127 A 
ATOM     20  C   UNL     1       2.412   2.719   3.989  0.00  0.00    +0.033 A 
BRANCH  19  21
ATOM     21  N   UNL     1       0.105   3.458   4.516  0.00  0.00    +0.056 N 
ATOM     22  O   UNL     1      -1.046   3.624   4.152  0.00  0.00    -0.126 OA
ATOM     23  O   UNL     1       0.431   3.747   5.653  0.00  0.00    -0.126 OA
ENDBRANCH  19  21
ENDBRANCH   1  17
BRANCH   9  24
ATOM     24  C   UNL     1      -4.081   5.367  -0.704  0.00  0.00    +0.099 C 
ATOM     25  N   UNL     1      -4.877   6.167  -0.842  0.00  0.00    -0.191 NA
ENDBRANCH   9  24
TORSDOF 3
