REMARK  Name = ZINC14021278
REMARK  4 active torsions:
REMARK  status: ('A' for Active; 'I' for Inactive)
REMARK    1  A    between atoms: C_1  and  C_2
REMARK    2  A    between atoms: C_3  and  C_24
REMARK    3  A    between atoms: C_7  and  N_16
REMARK    4  A    between atoms: C_9  and  C_11
REMARK                            x       y       z     vdW  Elec       q    Type
REMARK                         _______ _______ _______ _____ _____    ______ ____
ROOT
ATOM      1  C   UNL     1       0.981  -2.697  -0.011  0.00  0.00    +0.045 C 
ATOM      2  C   UNL     1      -0.447  -2.995  -0.387  0.00  0.00    -0.028 A 
ATOM      3  C   UNL     1      -0.796  -4.219  -0.809  0.00  0.00    -0.008 A 
ATOM      4  S   UNL     1      -2.545  -4.069  -1.122  0.00  0.00    -0.073 S 
ATOM      5  C   UNL     1      -2.760  -2.366  -0.677  0.00  0.00    +0.114 A 
ATOM      6  C   UNL     1      -1.462  -1.959  -0.296  0.00  0.00    +0.051 A 
ATOM      7  C   UNL     1      -1.339  -0.603   0.118  0.00  0.00    +0.134 A 
ATOM      8  N   UNL     1      -2.410   0.171   0.127  0.00  0.00    -0.211 NA
ATOM      9  C   UNL     1      -3.607  -0.276  -0.250  0.00  0.00    +0.169 A 
ATOM     10  N   UNL     1      -3.780  -1.533  -0.645  0.00  0.00    -0.219 NA
ATOM     11  C   UNL     1       0.081  -5.432  -0.979  0.00  0.00    +0.052 C 
ENDROOT
BRANCH   7  12
ATOM     12  N   UNL     1      -0.112  -0.101   0.512  0.00  0.00    -0.313 N 
ATOM     13  C   UNL     1       0.329   0.961  -0.382  0.00  0.00    +0.116 C 
ATOM     14  C   UNL     1       1.824   1.236  -0.198  0.00  0.00    +0.114 C 
ATOM     15  C   UNL     1       1.995   2.189   0.967  0.00  0.00    +0.215 C 
ATOM     16  O   UNL     1       2.355   3.331   0.770  0.00  0.00    -0.276 OA
ATOM     17  N   UNL     1       1.749   1.771   2.212  0.00  0.00    -0.314 N 
ATOM     18  C   UNL     1       1.319   0.383   2.453  0.00  0.00    +0.123 C 
ATOM     19  C   UNL     1      -0.111   0.219   1.932  0.00  0.00    +0.125 C 
ATOM     20  H   UNL     1       1.855   2.382   2.958  0.00  0.00    +0.149 HD
ENDBRANCH   7  12
BRANCH   9  21
ATOM     21  C   UNL     1      -4.763   0.640  -0.222  0.00  0.00    +0.056 A 
ATOM     22  C   UNL     1      -6.068   0.395  -0.564  0.00  0.00    +0.019 A 
ATOM     23  C   UNL     1      -6.984   1.416  -0.453  0.00  0.00    +0.008 A 
ATOM     24  C   UNL     1      -6.568   2.635  -0.019  0.00  0.00    +0.046 A 
ATOM     25  S   UNL     1      -4.826   2.359   0.257  0.00  0.00    -0.094 S 
ENDBRANCH   9  21
TORSDOF 2
