REMARK  Name = ZINC39672724
REMARK  5 active torsions:
REMARK  status: ('A' for Active; 'I' for Inactive)
REMARK    1  A    between atoms: C_3  and  C_9
REMARK    2  A    between atoms: C_13  and  C_22
REMARK    3  A    between atoms: N_24  and  C_25
REMARK    4  A    between atoms: C_25  and  C_26
REMARK    5  A    between atoms: C_26  and  N_32
REMARK                            x       y       z     vdW  Elec       q    Type
REMARK                         _______ _______ _______ _____ _____    ______ ____
ROOT
ATOM      1  C   UNL     1       5.501   2.285   1.514  0.00  0.00    +0.248 C 
ATOM      2  O   UNL     1       6.704   2.231   1.683  0.00  0.00    -0.270 OA
ATOM      3  N   UNL     1       4.940   3.406   1.018  0.00  0.00    -0.296 N 
ATOM      4  C   UNL     1       3.502   3.675   0.785  0.00  0.00    +0.121 C 
ATOM      5  C   UNL     1       3.308   5.150   1.202  0.00  0.00    +0.100 C 
ATOM      6  C   UNL     1       4.703   5.783   1.065  0.00  0.00    -0.004 C 
ATOM      7  C   UNL     1       5.622   4.649   0.587  0.00  0.00    +0.115 C 
ATOM      8  C   UNL     1       4.673   6.909   0.036  0.00  0.00    -0.010 C 
ATOM      9  C   UNL     1       6.056   7.561  -0.040  0.00  0.00    -0.082 C 
ATOM     10  N   UNL     1       6.426   8.086   1.280  0.00  0.00    +0.379 N 
ATOM     11  C   UNL     1       6.543   6.984   2.243  0.00  0.00    -0.082 C 
ATOM     12  C   UNL     1       5.179   6.308   2.416  0.00  0.00    -0.010 C 
ATOM     13  H   UNL     1       7.309   8.569   1.213  0.00  0.00    -0.086 HD
ATOM     14  H   UNL     1       5.716   8.732   1.594  0.00  0.00    -0.086 HD
ENDROOT
BRANCH   1  17
ATOM     15  C   UNL     1       2.623  -0.126   1.565  0.00  0.00    +0.021 A 
ATOM     16  C   UNL     1       3.409   0.961   1.244  0.00  0.00    +0.016 A 
ATOM     17  C   UNL     1       4.654   1.123   1.854  0.00  0.00    +0.055 A 
ATOM     18  C   UNL     1       5.096   0.182   2.788  0.00  0.00    +0.054 A 
ATOM     19  C   UNL     1       4.300  -0.901   3.101  0.00  0.00    +0.040 A 
ATOM     20  C   UNL     1       3.066  -1.056   2.491  0.00  0.00    +0.042 A 
ATOM     21 CL   UNL     1       2.070  -2.421   2.889  0.00  0.00    -0.083 Cl
ATOM     22 CL   UNL     1       6.643   0.375   3.553  0.00  0.00    -0.083 Cl
ENDBRANCH   1  17
BRANCH   5  23
ATOM     23  C   UNL     1       2.829   5.233   2.629  0.00  0.00    +0.218 C 
ATOM     24  O   UNL     1       3.157   4.383   3.429  0.00  0.00    -0.275 OA
ATOM     25  N   UNL     1       2.037   6.252   3.015  0.00  0.00    -0.313 N 
ATOM     26  H   UNL     1       1.841   6.975   2.399  0.00  0.00    +0.149 HD
BRANCH  25  27
ATOM     27  C   UNL     1       1.472   6.269   4.367  0.00  0.00    +0.126 C 
BRANCH  27  28
ATOM     28  C   UNL     1       0.470   7.419   4.487  0.00  0.00    +0.038 C 
ATOM     29  C   UNL     1       1.152   8.732   4.096  0.00  0.00    +0.024 C 
ATOM     30  C   UNL     1       2.338   8.988   5.028  0.00  0.00    +0.002 C 
ATOM     31  C   UNL     1       1.840   9.083   6.472  0.00  0.00    +0.000 C 
ATOM     32  C   UNL     1       1.158   7.770   6.863  0.00  0.00    +0.002 C 
ATOM     33  C   UNL     1      -0.028   7.513   5.931  0.00  0.00    +0.024 C 
BRANCH  28  34
ATOM     34  N   UNL     1      -0.668   7.173   3.592  0.00  0.00    -0.291 NA
ATOM     35  C   UNL     1      -1.363   5.929   3.953  0.00  0.00    +0.113 C 
ATOM     36  C   UNL     1      -2.575   5.742   3.035  0.00  0.00    +0.175 C 
ATOM     37  O   UNL     1      -2.139   5.743   1.673  0.00  0.00    -0.377 OA
ATOM     38  C   UNL     1      -1.458   6.940   1.287  0.00  0.00    +0.175 C 
ATOM     39  C   UNL     1      -0.236   7.138   2.187  0.00  0.00    +0.113 C 
ENDBRANCH  28  34
ENDBRANCH  27  28
ENDBRANCH  25  27
ENDBRANCH   5  23
TORSDOF 5
