REMARK  Name = ZINC63070809
REMARK  8 active torsions:
REMARK  status: ('A' for Active; 'I' for Inactive)
REMARK    1  A    between atoms: C_1  and  O_2
REMARK    2  A    between atoms: O_2  and  C_3
REMARK    3  A    between atoms: C_6  and  C_9
REMARK    4  A    between atoms: C_12  and  C_35
REMARK    5  A    between atoms: C_17  and  C_20
REMARK    6  A    between atoms: N_22  and  C_23
REMARK    7  A    between atoms: C_23  and  C_24
REMARK    8  A    between atoms: C_24  and  C_25
REMARK                            x       y       z     vdW  Elec       q    Type
REMARK                         _______ _______ _______ _____ _____    ______ ____
ROOT
ATOM      1  C   UNL     1       2.505  -2.503  -4.381  0.00  0.00    +0.112 C 
ATOM      2  C   UNL     1       3.915  -2.940  -3.979  0.00  0.00    +0.062 C 
ATOM      3  C   UNL     1       4.580  -3.669  -5.155  0.00  0.00    +0.198 C 
ATOM      4  N   UNL     1       3.660  -4.738  -5.587  0.00  0.00    -0.243 N 
ATOM      5  C   UNL     1       2.305  -4.670  -5.352  0.00  0.00    +0.087 C 
ATOM      6  C   UNL     1       1.680  -5.950  -5.857  0.00  0.00    +0.100 C 
ATOM      7  C   UNL     1       2.913  -6.863  -6.062  0.00  0.00    +0.165 C 
ATOM      8  N   UNL     1       4.006  -5.880  -6.243  0.00  0.00    -0.226 NA
ATOM      9  N   UNL     1       1.715  -3.670  -4.792  0.00  0.00    -0.369 N 
ATOM     10  H   UNL     1       4.172  -5.699  -7.222  0.00  0.00    +0.145 HD
ATOM     11  H   UNL     1       0.756  -3.688  -4.645  0.00  0.00    +0.161 HD
ENDROOT
BRANCH   1  15
ATOM     12  C   UNL     1       0.606  -0.607  -1.056  0.00  0.00    +0.120 A 
ATOM     13  C   UNL     1       1.173   0.161  -2.062  0.00  0.00    +0.046 A 
ATOM     14  C   UNL     1       1.786  -0.455  -3.136  0.00  0.00    +0.009 A 
ATOM     15  C   UNL     1       1.835  -1.835  -3.209  0.00  0.00    -0.025 A 
ATOM     16  C   UNL     1       1.270  -2.602  -2.207  0.00  0.00    +0.009 A 
ATOM     17  C   UNL     1       0.661  -1.992  -1.128  0.00  0.00    +0.046 A 
BRANCH  12  19
ATOM     18  C   UNL     1      -0.017   1.425   0.010  0.00  0.00    +0.277 C 
ATOM     19  O   UNL     1       0.002  -0.004   0.002  0.00  0.00    -0.495 OA
ENDBRANCH  12  19
ENDBRANCH   1  15
BRANCH   7  20
ATOM     20  C   UNL     1       3.153  -7.722  -4.847  0.00  0.00    +0.232 C 
ATOM     21  O   UNL     1       4.005  -7.408  -4.042  0.00  0.00    -0.274 OA
ATOM     22  N   UNL     1       2.422  -8.838  -4.655  0.00  0.00    -0.314 N 
ATOM     23  H   UNL     1       1.742  -9.088  -5.299  0.00  0.00    +0.149 HD
BRANCH  22  24
ATOM     24  C   UNL     1       2.656  -9.672  -3.474  0.00  0.00    +0.108 C 
BRANCH  24  25
ATOM     25  C   UNL     1       1.701 -10.867  -3.497  0.00  0.00    +0.052 C 
BRANCH  25  26
ATOM     26  C   UNL     1       1.941 -11.726  -2.282  0.00  0.00    -0.040 C 
ATOM     27  C   UNL     1       1.271 -11.679  -1.108  0.00  0.00    -0.001 A 
ATOM     28  C   UNL     1       0.160 -10.848  -0.630  0.00  0.00    +0.010 A 
ATOM     29  C   UNL     1      -0.309 -11.038   0.624  0.00  0.00    +0.001 A 
ATOM     30  C   UNL     1       0.238 -12.007   1.477  0.00  0.00    +0.002 A 
ATOM     31  C   UNL     1       1.259 -12.809   1.109  0.00  0.00    +0.026 A 
ATOM     32  C   UNL     1       1.830 -12.696  -0.189  0.00  0.00    +0.043 A 
ATOM     33  N   UNL     1       2.809 -13.345  -0.771  0.00  0.00    -0.380 N 
ATOM     34  C   UNL     1       2.977 -12.817  -2.130  0.00  0.00    +0.144 C 
ATOM     35  H   UNL     1       3.332 -14.058  -0.372  0.00  0.00    +0.160 HD
ENDBRANCH  25  26
ENDBRANCH  24  25
ENDBRANCH  22  24
ENDBRANCH   7  20
BRANCH   3  36
ATOM     36  C   UNL     1       5.911  -4.275  -4.706  0.00  0.00    +0.409 C 
ATOM     37  F   UNL     1       5.682  -5.186  -3.669  0.00  0.00    -0.169 F 
ATOM     38  F   UNL     1       6.509  -4.937  -5.784  0.00  0.00    -0.169 F 
ATOM     39  F   UNL     1       6.758  -3.257  -4.256  0.00  0.00    -0.169 F 
ENDBRANCH   3  36
TORSDOF 7
