REMARK  Name = ZINC10391666
REMARK  4 active torsions:
REMARK  status: ('A' for Active; 'I' for Inactive)
REMARK    1  A    between atoms: C_9  and  N_21
REMARK    2  A    between atoms: C_11  and  C_13
REMARK    3  A    between atoms: C_13  and  S_14
REMARK    4  A    between atoms: S_14  and  C_15
REMARK                            x       y       z     vdW  Elec       q    Type
REMARK                         _______ _______ _______ _____ _____    ______ ____
ROOT
ATOM      1  C   UNL     1      -0.150  -3.132   1.200  0.00  0.00    +0.001 C 
ATOM      2  C   UNL     1       0.675  -2.711  -0.015  0.00  0.00    +0.005 C 
ATOM      3  C   UNL     1       1.807  -1.782   0.406  0.00  0.00    +0.037 C 
ATOM      4  C   UNL     1       1.337  -0.331   0.367  0.00  0.00    -0.025 A 
ATOM      5  C   UNL     1       0.041   0.010   0.522  0.00  0.00    -0.004 A 
ATOM      6  S   UNL     1       0.008   1.781   0.415  0.00  0.00    -0.073 S 
ATOM      7  C   UNL     1       1.739   2.066   0.156  0.00  0.00    +0.114 A 
ATOM      8  C   UNL     1       2.287   0.769   0.161  0.00  0.00    +0.051 A 
ATOM      9  C   UNL     1       3.694   0.698  -0.034  0.00  0.00    +0.128 A 
ATOM     10  N   UNL     1       4.377   1.820  -0.199  0.00  0.00    -0.216 NA
ATOM     11  C   UNL     1       3.796   3.006  -0.190  0.00  0.00    +0.143 A 
ATOM     12  N   UNL     1       2.494   3.133  -0.016  0.00  0.00    -0.224 NA
ATOM     13  C   UNL     1      -1.128  -0.902   0.726  0.00  0.00    +0.043 C 
ATOM     14  C   UNL     1      -0.800  -1.908   1.838  0.00  0.00    +0.005 C 
ENDROOT
BRANCH   9  15
ATOM     15  N   UNL     1       4.339  -0.525  -0.050  0.00  0.00    -0.343 N 
ATOM     16  H   UNL     1       5.168  -0.629  -0.543  0.00  0.00    +0.144 HD
ATOM     17  H   UNL     1       3.963  -1.278   0.431  0.00  0.00    +0.144 HD
ENDBRANCH   9  15
BRANCH  11  18
ATOM     18  C   UNL     1       4.637   4.240  -0.384  0.00  0.00    +0.152 C 
BRANCH  18  19
ATOM     19  S   UNL     1       4.738   4.633  -2.152  0.00  0.00    -0.089 S 
BRANCH  19  20
ATOM     20  C   UNL     1       5.741   6.080  -2.211  0.00  0.00    +0.160 A 
ATOM     21  N   UNL     1       6.304   6.748  -1.223  0.00  0.00    -0.133 NA
ATOM     22  N   UNL     1       7.058   7.866  -1.495  0.00  0.00    -0.125 NA
ATOM     23  C   UNL     1       7.214   8.265  -2.742  0.00  0.00    +0.180 A 
ATOM     24  S   UNL     1       6.274   7.031  -3.627  0.00  0.00    -0.025 S 
ATOM     25  N   UNL     1       7.925   9.353  -3.236  0.00  0.00    -0.336 N 
ATOM     26  H   UNL     1       8.396   9.942  -2.626  0.00  0.00    +0.144 HD
ATOM     27  H   UNL     1       7.950   9.522  -4.191  0.00  0.00    +0.144 HD
ENDBRANCH  19  20
ENDBRANCH  18  19
ENDBRANCH  11  18
TORSDOF 4
