REMARK  Name = ZINC59005334
REMARK  9 active torsions:
REMARK  status: ('A' for Active; 'I' for Inactive)
REMARK    1  A    between atoms: C_1  and  N_2
REMARK    2  A    between atoms: N_2  and  C_3
REMARK    3  A    between atoms: N_2  and  C_4
REMARK    4  A    between atoms: C_7  and  C_10
REMARK    5  A    between atoms: N_11  and  N_12
REMARK    6  A    between atoms: C_15  and  S_18
REMARK    7  A    between atoms: S_18  and  C_19
REMARK    8  A    between atoms: C_19  and  C_20
REMARK    9  A    between atoms: N_22  and  C_23
REMARK                            x       y       z     vdW  Elec       q    Type
REMARK                         _______ _______ _______ _____ _____    ______ ____
ROOT
ATOM      1  N   UNL     1      -7.182  -2.975   0.023  0.00  0.00    -0.205 N 
ATOM      2  C   UNL     1      -8.388  -2.300   0.035  0.00  0.00    +0.232 A 
ATOM      3  N   UNL     1      -8.544  -0.992   0.042  0.00  0.00    -0.186 NA
ATOM      4  C   UNL     1      -9.848  -0.695   0.053  0.00  0.00    +0.211 A 
ATOM      5  N   UNL     1     -10.540  -1.809   0.053  0.00  0.00    -0.144 NA
ATOM      6  N   UNL     1      -9.614  -2.865   0.037  0.00  0.00    -0.245 N 
ATOM      7  H   UNL     1      -7.169  -3.945   0.014  0.00  0.00    +0.177 HD
ATOM      8  H   UNL     1      -9.816  -3.814   0.030  0.00  0.00    +0.192 HD
ENDROOT
BRANCH   1  10
ATOM      9  C   UNL     1      -4.845  -2.892   0.011  0.00  0.00    +0.138 C 
ATOM     10  N   UNL     1      -5.978  -2.258   0.023  0.00  0.00    -0.188 NA
BRANCH   9  14
ATOM     11  C   UNL     1      -1.197  -0.720   0.010  0.00  0.00    +0.029 A 
ATOM     12  C   UNL     1      -1.176  -2.110  -0.002  0.00  0.00    +0.024 A 
ATOM     13  C   UNL     1      -2.358  -2.818  -0.001  0.00  0.00    +0.011 A 
ATOM     14  C   UNL     1      -3.579  -2.138   0.011  0.00  0.00    -0.005 A 
ATOM     15  C   UNL     1      -3.595  -0.740   0.023  0.00  0.00    +0.011 A 
ATOM     16  C   UNL     1      -2.410  -0.039   0.029  0.00  0.00    +0.024 A 
BRANCH  11  18
ATOM     17  C   UNL     1      -0.018   1.459   0.029  0.00  0.00    +0.129 C 
ATOM     18  N   UNL     1       0.002  -0.006   0.010  0.00  0.00    -0.336 N 
ATOM     19  C   UNL     1       1.280  -0.721  -0.009  0.00  0.00    +0.129 C 
ENDBRANCH  11  18
ENDBRANCH   9  14
ENDBRANCH   1  10
BRANCH   4  20
ATOM     20  S   UNL     1     -10.526   0.932   0.066  0.00  0.00    -0.075 S 
BRANCH  20  21
ATOM     21  C   UNL     1     -12.319   0.659   0.077  0.00  0.00    +0.173 C 
BRANCH  21  22
ATOM     22  C   UNL     1     -13.030   1.988   0.089  0.00  0.00    +0.227 C 
ATOM     23  O   UNL     1     -12.389   3.018   0.089  0.00  0.00    -0.275 OA
ATOM     24  N   UNL     1     -14.377   2.032   0.099  0.00  0.00    -0.285 N 
ATOM     25  H   UNL     1     -14.889   1.212   0.031  0.00  0.00    +0.155 HD
BRANCH  24  26
ATOM     26  C   UNL     1     -15.035   3.262   0.207  0.00  0.00    +0.036 A 
ATOM     27  C   UNL     1     -16.224   3.354   0.918  0.00  0.00    +0.043 A 
ATOM     28  C   UNL     1     -16.873   4.570   1.024  0.00  0.00    +0.044 A 
ATOM     29  C   UNL     1     -16.338   5.695   0.422  0.00  0.00    +0.040 A 
ATOM     30  C   UNL     1     -15.154   5.606  -0.288  0.00  0.00    +0.044 A 
ATOM     31  C   UNL     1     -14.498   4.394  -0.392  0.00  0.00    +0.043 A 
ATOM     32 CL   UNL     1     -14.487   7.020  -1.043  0.00  0.00    -0.083 Cl
ATOM     33 CL   UNL     1     -18.360   4.685   1.913  0.00  0.00    -0.083 Cl
ENDBRANCH  24  26
ENDBRANCH  21  22
ENDBRANCH  20  21
ENDBRANCH   4  20
TORSDOF 7
