REMARK  Name = ZINC16607243
REMARK  11 active torsions:
REMARK  status: ('A' for Active; 'I' for Inactive)
REMARK    1  A    between atoms: C_1  and  C_2
REMARK    2  A    between atoms: C_2  and  C_3
REMARK    3  A    between atoms: C_3  and  C_5
REMARK    4  A    between atoms: C_3  and  C_6
REMARK    5  A    between atoms: C_6  and  C_8
REMARK    6  A    between atoms: C_6  and  N_25
REMARK    7  A    between atoms: C_14  and  C_16
REMARK    8  A    between atoms: C_19  and  N_22
REMARK    9  A    between atoms: N_22  and  C_23
REMARK   10  A    between atoms: N_22  and  C_24
REMARK   11  A    between atoms: N_28  and  C_29
REMARK                            x       y       z     vdW  Elec       q    Type
REMARK                         _______ _______ _______ _____ _____    ______ ____
ROOT
ATOM      1  C   UNL     1       3.926   6.385  -0.054  0.00  0.00    +0.163 C 
ENDROOT
BRANCH   1   2
ATOM      2  C   UNL     1       3.831   7.859   0.243  0.00  0.00    +0.239 C 
ATOM      3  O   UNL     1       2.849   8.304   0.799  0.00  0.00    -0.273 OA
ATOM      4  N   UNL     1       4.837   8.684  -0.108  0.00  0.00    -0.262 N 
ATOM      5  C   UNL     1       4.797  10.025   0.255  0.00  0.00    +0.188 A 
ATOM      6  N   UNL     1       3.875  10.696   0.933  0.00  0.00    -0.125 NA
ATOM      7  N   UNL     1       3.997  11.926   1.185  0.00  0.00    -0.140 NA
ATOM      8  C   UNL     1       5.049  12.625   0.776  0.00  0.00    +0.134 A 
ATOM      9  S   UNL     1       5.969  11.339  -0.065  0.00  0.00    -0.030 S 
ATOM     10  H   UNL     1       5.590   8.341  -0.616  0.00  0.00    +0.157 HD
BRANCH   8  11
ATOM     11  C   UNL     1       5.369  14.056   0.961  0.00  0.00    +0.009 A 
ATOM     12  C   UNL     1       6.553  14.581   0.439  0.00  0.00    +0.012 A 
ATOM     13  C   UNL     1       6.846  15.917   0.609  0.00  0.00    +0.024 A 
ATOM     14  C   UNL     1       5.969  16.739   1.307  0.00  0.00    +0.029 A 
ATOM     15  C   UNL     1       4.792  16.218   1.832  0.00  0.00    +0.024 A 
ATOM     16  C   UNL     1       4.490  14.884   1.662  0.00  0.00    +0.012 A 
BRANCH  14  17
ATOM     17  N   UNL     1       6.271  18.090   1.482  0.00  0.00    -0.336 N 
ATOM     18  C   UNL     1       5.413  18.930   2.321  0.00  0.00    +0.129 C 
ATOM     19  C   UNL     1       7.447  18.668   0.827  0.00  0.00    +0.129 C 
ENDBRANCH  14  17
ENDBRANCH   8  11
ENDBRANCH   1   2
BRANCH   1  20
ATOM     20  N   UNL     1       2.735   5.705   0.463  0.00  0.00    -0.288 N 
ATOM     21  C   UNL     1       2.826   4.439   0.916  0.00  0.00    +0.304 C 
ATOM     22  O   UNL     1       3.908   3.887   0.966  0.00  0.00    -0.252 OA
ATOM     23  N   UNL     1       1.716   3.784   1.312  0.00  0.00    -0.269 N 
ATOM     24  H   UNL     1       1.882   6.166   0.479  0.00  0.00    +0.151 HD
ATOM     25  H   UNL     1       0.845   4.199   1.209  0.00  0.00    +0.156 HD
BRANCH  23  26
ATOM     26  C   UNL     1       1.821   2.506   1.874  0.00  0.00    +0.035 A 
ATOM     27  C   UNL     1       2.931   2.170   2.636  0.00  0.00    +0.025 A 
ATOM     28  C   UNL     1       3.032   0.908   3.189  0.00  0.00    +0.022 A 
ATOM     29  C   UNL     1       2.027  -0.021   2.983  0.00  0.00    +0.041 A 
ATOM     30  C   UNL     1       0.919   0.312   2.224  0.00  0.00    +0.022 A 
ATOM     31  C   UNL     1       0.814   1.572   1.668  0.00  0.00    +0.025 A 
ATOM     32 CL   UNL     1       2.157  -1.606   3.679  0.00  0.00    -0.084 Cl
ENDBRANCH  23  26
ENDBRANCH   1  20
BRANCH   1  33
ATOM     33  C   UNL     1       4.017   6.174  -1.566  0.00  0.00    +0.015 C 
ATOM     34  C   UNL     1       4.286   4.697  -1.860  0.00  0.00    +0.010 C 
BRANCH  33  36
ATOM     35  C   UNL     1       2.530   8.109  -2.103  0.00  0.00    +0.004 C 
ATOM     36  C   UNL     1       2.699   6.593  -2.220  0.00  0.00    +0.002 C 
ENDBRANCH  33  36
ENDBRANCH   1  33
TORSDOF 7
