REMARK  Name = ZINC11910717
REMARK  8 active torsions:
REMARK  status: ('A' for Active; 'I' for Inactive)
REMARK    1  A    between atoms: C_4  and  O_33
REMARK    2  A    between atoms: C_5  and  C_7
REMARK    3  A    between atoms: C_7  and  N_62
REMARK    4  A    between atoms: C_10  and  C_13
REMARK    5  A    between atoms: C_13  and  C_27
REMARK    6  A    between atoms: N_16  and  C_20
REMARK    7  A    between atoms: C_20  and  C_21
REMARK    8  A    between atoms: C_21  and  C_22
REMARK                            x       y       z     vdW  Elec       q    Type
REMARK                         _______ _______ _______ _____ _____    ______ ____
ROOT
ATOM      1  C   UNL     1      -2.909   1.604   2.491  0.00  0.00    +0.157 C 
ATOM      2  C   UNL     1      -2.224   1.155   3.766  0.00  0.00    +0.253 C 
ATOM      3  O   UNL     1      -1.092   1.409   4.118  0.00  0.00    -0.272 OA
ATOM      4  N   UNL     1      -3.135   0.414   4.428  0.00  0.00    -0.224 N 
ATOM      5  C   UNL     1      -4.288   0.333   3.754  0.00  0.00    +0.310 C 
ATOM      6  O   UNL     1      -5.259  -0.281   4.149  0.00  0.00    -0.252 OA
ATOM      7  N   UNL     1      -4.252   1.008   2.591  0.00  0.00    -0.280 N 
ATOM      8  H   UNL     1      -4.971   1.086   1.944  0.00  0.00    +0.152 HD
ENDROOT
BRANCH   1  11
ATOM      9  C   UNL     1      -0.013   1.086   0.008  0.00  0.00    -0.078 C 
ATOM     10  C   UNL     1      -0.729   1.579   1.267  0.00  0.00    -0.012 C 
ATOM     11  C   UNL     1      -2.170   1.064   1.264  0.00  0.00    +0.024 C 
ATOM     12  C   UNL     1      -2.873   1.544  -0.009  0.00  0.00    -0.012 C 
ATOM     13  C   UNL     1      -2.095   1.052  -1.231  0.00  0.00    -0.078 C 
ATOM     14  N   UNL     1      -0.724   1.602  -1.181  0.00  0.00    +0.382 N 
ATOM     15  H   UNL     1      -0.778   2.626  -1.119  0.00  0.00    -0.081 HD
BRANCH  14  16
ATOM     16  C   UNL     1       0.013   1.235  -2.408  0.00  0.00    -0.039 C 
BRANCH  16  21
ATOM     17  C   UNL     1      -2.040   1.940  -5.497  0.00  0.00    +0.000 A 
ATOM     18  C   UNL     1      -1.747   3.271  -5.730  0.00  0.00    +0.004 A 
ATOM     19  C   UNL     1      -0.883   3.946  -4.889  0.00  0.00    +0.045 A 
ATOM     20  C   UNL     1      -0.315   3.289  -3.807  0.00  0.00    +0.118 A 
ATOM     21  C   UNL     1      -0.607   1.953  -3.579  0.00  0.00    -0.022 A 
ATOM     22  C   UNL     1      -1.471   1.282  -4.423  0.00  0.00    +0.005 A 
BRANCH  20  23
ATOM     23  O   UNL     1       0.530   3.953  -2.975  0.00  0.00    -0.507 OA
ATOM     24  H   UNL     1       1.459   3.909  -3.241  0.00  0.00    +0.292 HD
ENDBRANCH  20  23
ENDBRANCH  16  21
ENDBRANCH  14  16
ENDBRANCH   1  11
BRANCH   1  25
ATOM     25  C   UNL     1      -2.999   3.107   2.434  0.00  0.00    +0.074 A 
ATOM     26  C   UNL     1      -4.239   3.717   2.413  0.00  0.00    +0.026 A 
ATOM     27  C   UNL     1      -4.311   5.101   2.366  0.00  0.00    +0.003 A 
ATOM     28  C   UNL     1      -3.127   5.822   2.331  0.00  0.00    +0.020 A 
ATOM     29  C   UNL     1      -1.924   5.143   2.349  0.00  0.00    +0.111 A 
ATOM     30  N   UNL     1      -1.894   3.825   2.399  0.00  0.00    -0.257 NA
ENDBRANCH   1  25
BRANCH   4  31
ATOM     31  C   UNL     1      -2.892  -0.225   5.723  0.00  0.00    +0.123 C 
BRANCH  31  32
ATOM     32  C   UNL     1      -2.332  -1.631   5.502  0.00  0.00    +0.062 C 
BRANCH  32  33
ATOM     33  C   UNL     1      -2.082  -2.288   6.835  0.00  0.00    -0.009 A 
ATOM     34  C   UNL     1      -2.919  -3.049   7.582  0.00  0.00    +0.011 A 
ATOM     35  C   UNL     1      -2.470  -3.554   8.787  0.00  0.00    +0.008 A 
ATOM     36  C   UNL     1      -1.205  -3.274   9.187  0.00  0.00    +0.045 A 
ATOM     37  S   UNL     1      -0.604  -2.273   7.836  0.00  0.00    -0.102 S 
ENDBRANCH  32  33
ENDBRANCH  31  32
ENDBRANCH   4  31
TORSDOF 8
