REMARK  Name = ZINC29334559
REMARK  5 active torsions:
REMARK  status: ('A' for Active; 'I' for Inactive)
REMARK    1  A    between atoms: C_3  and  C_6
REMARK    2  A    between atoms: C_9  and  C_19
REMARK    3  A    between atoms: C_12  and  C_14
REMARK    4  A    between atoms: C_14  and  S_15
REMARK    5  A    between atoms: S_15  and  C_16
REMARK                            x       y       z     vdW  Elec       q    Type
REMARK                         _______ _______ _______ _____ _____    ______ ____
ROOT
ATOM      1  C   UNL     1       2.491   1.308  -0.015  0.00  0.00    +0.173 C 
ATOM      2  C   UNL     1       3.424   2.536  -0.018  0.00  0.00    +0.090 C 
ATOM      3  C   UNL     1       2.475   3.713  -0.003  0.00  0.00    +0.069 C 
ATOM      4  N   UNL     1       1.260   3.287   0.002  0.00  0.00    -0.181 NA
ATOM      5  N   UNL     1       1.143   1.899   0.001  0.00  0.00    -0.181 N 
ATOM      6  C   UNL     1      -0.014   1.209   0.009  0.00  0.00    +0.246 C 
ATOM      7  O   UNL     1       0.002  -0.004   0.002  0.00  0.00    -0.273 OA
ENDROOT
BRANCH   3   8
ATOM      8  C   UNL     1       2.880   5.132  -0.000  0.00  0.00    -0.002 A 
ATOM      9  C   UNL     1       4.234   5.475  -0.006  0.00  0.00    +0.011 A 
ATOM     10  C   UNL     1       4.605   6.803  -0.010  0.00  0.00    +0.020 A 
ATOM     11  C   UNL     1       3.639   7.795   0.004  0.00  0.00    +0.041 A 
ATOM     12  C   UNL     1       2.295   7.462   0.017  0.00  0.00    +0.020 A 
ATOM     13  C   UNL     1       1.910   6.137   0.015  0.00  0.00    +0.011 A 
ATOM     14 CL   UNL     1       4.115   9.465   0.008  0.00  0.00    -0.084 Cl
ENDBRANCH   3   8
BRANCH   1  17
ATOM     15  C   UNL     1       3.301  -1.111  -2.675  0.00  0.00    +0.041 A 
ATOM     16  C   UNL     1       3.355  -0.688  -1.327  0.00  0.00    +0.046 A 
ATOM     17  C   UNL     1       2.694   0.482  -1.258  0.00  0.00    +0.128 A 
ATOM     18  O   UNL     1       2.239   0.785  -2.485  0.00  0.00    -0.466 OA
ATOM     19  C   UNL     1       2.609  -0.174  -3.350  0.00  0.00    +0.195 A 
ENDBRANCH   1  17
BRANCH   6  20
ATOM     20  C   UNL     1      -1.330   1.945   0.019  0.00  0.00    +0.174 C 
BRANCH  20  21
ATOM     21  S   UNL     1      -2.689   0.750   0.019  0.00  0.00    -0.084 S 
BRANCH  21  22
ATOM     22  C   UNL     1      -4.064   1.851   0.031  0.00  0.00    +0.123 C 
ATOM     23  N   UNL     1      -3.867   3.140   0.037  0.00  0.00    -0.382 N 
ATOM     24  N   UNL     1      -5.346   1.351   0.035  0.00  0.00    -0.340 N 
ATOM     25  H   UNL     1      -4.726   3.828   0.045  0.00  0.00    +0.158 HD
ATOM     26  H   UNL     1      -6.205   2.039   0.043  0.00  0.00    +0.144 HD
ATOM     27  H   UNL     1      -5.512   0.264   0.029  0.00  0.00    +0.144 HD
ATOM     28  H   UNL     1      -2.842   3.540   0.035  0.00  0.00    +0.158 HD
ENDBRANCH  21  22
ENDBRANCH  20  21
ENDBRANCH   6  20
TORSDOF 5
