REMARK  Name = ZINC38573849
REMARK  1 active torsions:
REMARK  status: ('A' for Active; 'I' for Inactive)
REMARK    1  A    between atoms: C_5  and  C_6
REMARK                            x       y       z     vdW  Elec       q    Type
REMARK                         _______ _______ _______ _____ _____    ______ ____
ROOT
ATOM      1  C   UNL     1      -1.172  -0.881   0.009  0.00  0.00    +0.282 C 
ATOM      2  O   UNL     1      -0.202  -0.159  -0.132  0.00  0.00    -0.267 OA
ATOM      3  N   UNL     1      -1.011  -2.216   0.102  0.00  0.00    -0.295 N 
ATOM      4  C   UNL     1       0.333  -2.803   0.203  0.00  0.00    +0.107 C 
ATOM      5  C   UNL     1       0.493  -3.859  -0.895  0.00  0.00    +0.009 C 
ATOM      6  C   UNL     1      -0.647  -4.873  -0.793  0.00  0.00    -0.037 C 
ATOM      7  C   UNL     1      -1.988  -4.166  -0.992  0.00  0.00    +0.009 C 
ATOM      8  C   UNL     1      -2.175  -3.112   0.110  0.00  0.00    +0.107 C 
ATOM      9  C   UNL     1      -0.472  -5.954  -1.860  0.00  0.00    +0.140 C 
ATOM     10  C   UNL     1      -1.565  -6.984  -1.590  0.00  0.00    +0.042 C 
ATOM     11  N   UNL     1      -2.226  -7.091  -2.675  0.00  0.00    -0.243 NA
ATOM     12  C   UNL     1      -1.795  -6.212  -3.613  0.00  0.00    +0.216 C 
ATOM     13  N   UNL     1      -0.777  -5.482  -3.211  0.00  0.00    -0.264 NA
ATOM     14  C   UNL     1      -1.773  -7.567  -0.215  0.00  0.00    +0.034 C 
ATOM     15  C   UNL     1      -1.788  -6.370   0.754  0.00  0.00    -0.076 C 
ATOM     16  N   UNL     1      -0.620  -5.516   0.529  0.00  0.00    +0.385 N 
ATOM     17  H   UNL     1       0.215  -6.078   0.603  0.00  0.00    -0.085 HD
ATOM     18  H   UNL     1      -0.595  -4.801   1.240  0.00  0.00    -0.085 HD
ENDROOT
BRANCH   1  23
ATOM     19  C   UNL     1      -2.835   1.010  -0.146  0.00  0.00    +0.056 A 
ATOM     20  C   UNL     1      -4.223   1.122   0.026  0.00  0.00    +0.058 A 
ATOM     21  C   UNL     1      -4.685  -0.109   0.343  0.00  0.00    +0.171 A 
ATOM     22  O   UNL     1      -3.653  -0.962   0.373  0.00  0.00    -0.444 OA
ATOM     23  C   UNL     1      -2.515  -0.299   0.078  0.00  0.00    +0.191 A 
ATOM     24 BR   UNL     1      -6.491  -0.552   0.688  0.00  0.00    -0.008 Br
ENDBRANCH   1  23
TORSDOF 1
