REMARK  Name = ZINC22148604
REMARK  9 active torsions:
REMARK  status: ('A' for Active; 'I' for Inactive)
REMARK    1  A    between atoms: C_1  and  C_2
REMARK    2  A    between atoms: C_15  and  C_17
REMARK    3  A    between atoms: C_17  and  C_19
REMARK    4  A    between atoms: C_17  and  S_20
REMARK    5  A    between atoms: S_20  and  C_21
REMARK    6  A    between atoms: C_24  and  C_27
REMARK    7  A    between atoms: N_25  and  N_26
REMARK    8  A    between atoms: C_32  and  O_33
REMARK    9  A    between atoms: O_33  and  C_34
REMARK                            x       y       z     vdW  Elec       q    Type
REMARK                         _______ _______ _______ _____ _____    ______ ____
ROOT
ATOM      1  C   UNL     1      -0.238  -8.185   2.216  0.00  0.00    +0.117 C 
ATOM      2  C   UNL     1      -0.908  -8.287   3.588  0.00  0.00    +0.027 C 
ENDROOT
BRANCH   1  16
ATOM      3  C   UNL     1      -0.043   1.346  -0.657  0.00  0.00    +0.008 C 
ATOM      4  C   UNL     1      -0.055  -0.181  -0.570  0.00  0.00    -0.009 C 
ATOM      5  C   UNL     1      -1.492  -0.674  -0.381  0.00  0.00    +0.008 C 
ATOM      6  C   UNL     1      -1.545  -2.193  -0.542  0.00  0.00    +0.037 C 
ATOM      7  C   UNL     1      -0.510  -2.825   0.385  0.00  0.00    -0.023 A 
ATOM      8  C   UNL     1       0.510  -2.086   0.882  0.00  0.00    -0.004 A 
ATOM      9  S   UNL     1       1.448  -3.207   1.889  0.00  0.00    -0.073 S 
ATOM     10  C   UNL     1       0.475  -4.659   1.643  0.00  0.00    +0.116 A 
ATOM     11  C   UNL     1      -0.554  -4.222   0.780  0.00  0.00    +0.075 A 
ATOM     12  C   UNL     1      -1.532  -5.196   0.385  0.00  0.00    +0.260 A 
ATOM     13  O   UNL     1      -2.460  -4.921  -0.356  0.00  0.00    -0.267 OA
ATOM     14  N   UNL     1      -1.357  -6.441   0.890  0.00  0.00    -0.309 N 
ATOM     15  H   UNL     1      -1.995  -7.131   0.649  0.00  0.00    +0.170 HD
ATOM     16  C   UNL     1      -0.334  -6.767   1.715  0.00  0.00    +0.124 A 
ATOM     17  N   UNL     1       0.581  -5.903   2.098  0.00  0.00    -0.225 NA
ATOM     18  C   UNL     1       0.787  -0.635   0.631  0.00  0.00    +0.046 C 
ENDBRANCH   1  16
BRANCH   1  19
ATOM     19  S   UNL     1       1.507  -8.660   2.359  0.00  0.00    -0.074 S 
BRANCH  19  20
ATOM     20  C   UNL     1       1.450 -10.363   2.806  0.00  0.00    +0.209 A 
ATOM     21  N   UNL     1       0.367 -11.088   2.979  0.00  0.00    -0.121 NA
ATOM     22  N   UNL     1       0.688 -12.290   3.300  0.00  0.00    -0.127 NA
ATOM     23  C   UNL     1       1.994 -12.408   3.351  0.00  0.00    +0.185 A 
ATOM     24  N   UNL     1       2.523 -11.178   3.031  0.00  0.00    -0.224 N 
BRANCH  23  25
ATOM     25  C   UNL     1       2.754 -13.631   3.685  0.00  0.00    +0.062 A 
ATOM     26  C   UNL     1       3.808 -13.574   4.598  0.00  0.00    +0.015 A 
ATOM     27  C   UNL     1       4.513 -14.719   4.905  0.00  0.00    +0.001 A 
ATOM     28  C   UNL     1       4.180 -15.924   4.311  0.00  0.00    +0.004 A 
ATOM     29  C   UNL     1       3.139 -15.992   3.405  0.00  0.00    +0.046 A 
ATOM     30  C   UNL     1       2.416 -14.853   3.091  0.00  0.00    +0.131 A 
BRANCH  30  31
ATOM     31  O   UNL     1       1.388 -14.920   2.205  0.00  0.00    -0.494 OA
ATOM     32  C   UNL     1       1.102 -16.200   1.639  0.00  0.00    +0.277 C 
ENDBRANCH  30  31
ENDBRANCH  23  25
BRANCH  24  33
ATOM     33  N   UNL     1       3.845 -10.842   2.956  0.00  0.00    -0.295 N 
ATOM     34  H   UNL     1       4.207 -10.595   3.865  0.00  0.00    +0.163 HD
ATOM     35  H   UNL     1       4.385 -11.588   2.542  0.00  0.00    +0.163 HD
ENDBRANCH  24  33
ENDBRANCH  19  20
ENDBRANCH   1  19
TORSDOF 6
