REMARK  Name = ZINC02191805
REMARK  14 active torsions:
REMARK  status: ('A' for Active; 'I' for Inactive)
REMARK    1  A    between atoms: C_1  and  C_2
REMARK    2  A    between atoms: C_2  and  O_3
REMARK    3  A    between atoms: O_3  and  C_4
REMARK    4  A    between atoms: C_4  and  C_6
REMARK    5  A    between atoms: C_6  and  C_7
REMARK    6  A    between atoms: C_6  and  N_11
REMARK    7  A    between atoms: C_6  and  N_28
REMARK    8  A    between atoms: N_11  and  C_12
REMARK    9  A    between atoms: C_13  and  C_26
REMARK   10  A    between atoms: C_18  and  C_22
REMARK   11  A    between atoms: C_22  and  C_23
REMARK   12  A    between atoms: C_22  and  C_24
REMARK   13  A    between atoms: C_22  and  C_25
REMARK   14  A    between atoms: C_29  and  C_31
REMARK                            x       y       z     vdW  Elec       q    Type
REMARK                         _______ _______ _______ _____ _____    ______ ____
ROOT
ATOM      1  C   UNL     1      -0.970   2.446   8.412  0.00  0.00    +0.296 C 
ENDROOT
BRANCH   1   2
ATOM      2  C   UNL     1       0.556   2.502   8.319  0.00  0.00    +0.438 C 
ATOM      3  F   UNL     1       0.981   3.830   8.421  0.00  0.00    -0.166 F 
ATOM      4  F   UNL     1       1.114   1.752   9.361  0.00  0.00    -0.166 F 
ATOM      5  F   UNL     1       0.969   1.973   7.092  0.00  0.00    -0.166 F 
ENDBRANCH   1   2
BRANCH   1   6
ATOM      6  N   UNL     1      -1.395   2.871   9.748  0.00  0.00    -0.274 N 
ATOM      7  C   UNL     1      -2.658   2.645  10.157  0.00  0.00    +0.246 C 
ATOM      8  O   UNL     1      -3.420   2.007   9.456  0.00  0.00    -0.270 OA
ATOM      9  H   UNL     1      -0.766   3.316  10.338  0.00  0.00    +0.152 HD
BRANCH   7  10
ATOM     10  C   UNL     1      -3.119   3.172  11.460  0.00  0.00    +0.037 A 
ATOM     11  C   UNL     1      -2.246   3.899  12.270  0.00  0.00    +0.013 A 
ATOM     12  C   UNL     1      -2.683   4.391  13.482  0.00  0.00    +0.001 A 
ATOM     13  C   UNL     1      -3.981   4.157  13.900  0.00  0.00    +0.000 A 
ATOM     14  C   UNL     1      -4.851   3.433  13.103  0.00  0.00    +0.001 A 
ATOM     15  C   UNL     1      -4.427   2.939  11.887  0.00  0.00    +0.013 A 
ENDBRANCH   7  10
ENDBRANCH   1   6
BRANCH   1  16
ATOM     16  C   UNL     1      -1.437   1.035   8.162  0.00  0.00    +0.359 C 
ATOM     17  O   UNL     1      -1.948   0.746   7.106  0.00  0.00    -0.246 OA
BRANCH  16  18
ATOM     18  O   UNL     1      -1.286   0.099   9.113  0.00  0.00    -0.462 OA
BRANCH  18  20
ATOM     19  C   UNL     1      -1.502  -2.159   9.998  0.00  0.00    +0.048 C 
ATOM     20  C   UNL     1      -1.758  -1.238   8.803  0.00  0.00    +0.229 C 
ENDBRANCH  18  20
ENDBRANCH  16  18
ENDBRANCH   1  16
BRANCH   1  21
ATOM     21  N   UNL     1      -1.553   3.338   7.407  0.00  0.00    -0.301 N 
ATOM     22  H   UNL     1      -2.048   4.124   7.685  0.00  0.00    +0.149 HD
BRANCH  21  23
ATOM     23  C   UNL     1      -1.397   3.059   6.060  0.00  0.00    +0.086 A 
ATOM     24  C   UNL     1      -1.918   3.745   4.971  0.00  0.00    +0.083 A 
ATOM     25  C   UNL     1      -1.601   3.241   3.646  0.00  0.00    -0.018 A 
ATOM     26  C   UNL     1      -0.821   2.138   3.622  0.00  0.00    -0.004 A 
ATOM     27  S   UNL     1      -0.505   1.769   5.324  0.00  0.00    -0.077 S 
ATOM     28  C   UNL     1      -0.337   1.401   2.411  0.00  0.00    +0.047 C 
ATOM     29  C   UNL     1      -1.165   1.860   1.202  0.00  0.00    -0.000 C 
ATOM     30  C   UNL     1      -1.226   3.390   1.195  0.00  0.00    +0.009 C 
ATOM     31  C   UNL     1      -2.094   3.882   2.354  0.00  0.00    +0.037 C 
BRANCH  29  32
ATOM     32  C   UNL     1      -0.505   1.368  -0.088  0.00  0.00    -0.035 C 
ATOM     33  C   UNL     1      -0.439  -0.161  -0.075  0.00  0.00    +0.011 C 
ATOM     34  C   UNL     1       0.911   1.939  -0.187  0.00  0.00    +0.011 C 
ATOM     35  C   UNL     1      -1.328   1.833  -1.291  0.00  0.00    +0.011 C 
ENDBRANCH  29  32
BRANCH  24  36
ATOM     36  C   UNL     1      -2.736   4.907   5.148  0.00  0.00    +0.102 C 
ATOM     37  N   UNL     1      -3.386   5.828   5.288  0.00  0.00    -0.191 NA
ENDBRANCH  24  36
ENDBRANCH  21  23
ENDBRANCH   1  21
TORSDOF 10
