REMARK  Name = ZINC18744285
REMARK  12 active torsions:
REMARK  status: ('A' for Active; 'I' for Inactive)
REMARK    1  A    between atoms: C_1  and  C_2
REMARK    2  A    between atoms: C_4  and  C_34
REMARK    3  A    between atoms: C_6  and  O_8
REMARK    4  A    between atoms: O_8  and  C_9
REMARK    5  A    between atoms: C_9  and  C_10
REMARK    6  A    between atoms: C_13  and  S_16
REMARK    7  A    between atoms: N_14  and  N_15
REMARK    8  A    between atoms: S_16  and  C_17
REMARK    9  A    between atoms: C_17  and  C_18
REMARK   10  A    between atoms: N_20  and  C_21
REMARK   11  A    between atoms: C_21  and  C_23
REMARK   12  A    between atoms: C_21  and  C_24
REMARK                            x       y       z     vdW  Elec       q    Type
REMARK                         _______ _______ _______ _____ _____    ______ ____
ROOT
ATOM      1  C   UNL     1       0.064  -2.932   4.751  0.00  0.00    +0.189 A 
ATOM      2  N   UNL     1      -0.976  -3.425   5.362  0.00  0.00    -0.128 NA
ATOM      3  N   UNL     1      -0.601  -4.177   6.334  0.00  0.00    -0.121 NA
ATOM      4  C   UNL     1       0.710  -4.205   6.397  0.00  0.00    +0.209 A 
ATOM      5  N   UNL     1       1.176  -3.415   5.385  0.00  0.00    -0.225 N 
ENDROOT
BRANCH   5   6
ATOM      6  N   UNL     1       2.481  -3.158   5.073  0.00  0.00    -0.295 N 
ATOM      7  H   UNL     1       2.818  -2.347   5.570  0.00  0.00    +0.163 HD
ATOM      8  H   UNL     1       3.061  -3.962   5.257  0.00  0.00    +0.163 HD
ENDBRANCH   5   6
BRANCH   1   9
ATOM      9  C   UNL     1       0.046  -2.005   3.563  0.00  0.00    +0.306 C 
BRANCH   9  10
ATOM     10  O   UNL     1       0.051  -2.775   2.359  0.00  0.00    -0.484 OA
BRANCH  10  16
ATOM     11  C   UNL     1      -0.018   1.503   0.010  0.00  0.00    +0.044 C 
ATOM     12  C   UNL     1       0.002  -0.004   0.002  0.00  0.00    -0.047 A 
ATOM     13  C   UNL     1       0.006  -0.688  -1.200  0.00  0.00    +0.007 A 
ATOM     14  C   UNL     1       0.025  -2.071  -1.210  0.00  0.00    -0.047 A 
ATOM     15  C   UNL     1       0.040  -2.772  -0.020  0.00  0.00    +0.049 A 
ATOM     16  C   UNL     1       0.036  -2.088   1.187  0.00  0.00    +0.122 A 
ATOM     17  C   UNL     1       0.023  -0.701   1.195  0.00  0.00    +0.049 A 
ATOM     18  C   UNL     1       0.029  -2.813  -2.522  0.00  0.00    +0.044 C 
ENDBRANCH  10  16
ENDBRANCH   9  10
ENDBRANCH   1   9
BRANCH   4  19
ATOM     19  S   UNL     1       1.685  -5.098   7.562  0.00  0.00    -0.075 S 
BRANCH  19  20
ATOM     20  C   UNL     1       0.461  -5.935   8.607  0.00  0.00    +0.173 C 
BRANCH  20  21
ATOM     21  C   UNL     1       1.171  -6.745   9.661  0.00  0.00    +0.224 C 
ATOM     22  O   UNL     1       2.383  -6.757   9.703  0.00  0.00    -0.275 OA
ATOM     23  N   UNL     1       0.459  -7.457  10.557  0.00  0.00    -0.308 N 
ATOM     24  H   UNL     1      -0.510  -7.447  10.524  0.00  0.00    +0.149 HD
BRANCH  23  25
ATOM     25  C   UNL     1       1.149  -8.245  11.582  0.00  0.00    +0.100 C 
ATOM     26  C   UNL     1       1.481  -7.349  12.777  0.00  0.00    +0.033 C 
BRANCH  25  27
ATOM     27  C   UNL     1       0.258  -9.373  12.032  0.00  0.00    -0.027 A 
ATOM     28  C   UNL     1      -1.107  -9.146  12.196  0.00  0.00    +0.006 A 
ATOM     29  C   UNL     1      -1.940 -10.144  12.602  0.00  0.00    +0.009 A 
ATOM     30  C   UNL     1      -1.418 -11.423  12.861  0.00  0.00    -0.018 A 
ATOM     31  C   UNL     1      -2.246 -12.478  13.281  0.00  0.00    +0.008 A 
ATOM     32  C   UNL     1      -1.705 -13.703  13.522  0.00  0.00    +0.001 A 
ATOM     33  C   UNL     1      -0.340 -13.930  13.357  0.00  0.00    +0.001 A 
ATOM     34  C   UNL     1       0.492 -12.933  12.952  0.00  0.00    +0.008 A 
ATOM     35  C   UNL     1      -0.029 -11.654  12.694  0.00  0.00    -0.018 A 
ATOM     36  C   UNL     1       0.798 -10.600  12.268  0.00  0.00    +0.014 A 
ENDBRANCH  25  27
ENDBRANCH  23  25
ENDBRANCH  20  21
ENDBRANCH  19  20
ENDBRANCH   4  19
TORSDOF 9
