REMARK  Name = ZINC09683482
REMARK  9 active torsions:
REMARK  status: ('A' for Active; 'I' for Inactive)
REMARK    1  A    between atoms: C_1  and  C_2
REMARK    2  A    between atoms: C_2  and  C_3
REMARK    3  A    between atoms: C_3  and  C_4
REMARK    4  A    between atoms: C_4  and  N_5
REMARK    5  A    between atoms: N_14  and  C_34
REMARK    6  A    between atoms: C_15  and  C_17
REMARK    7  A    between atoms: C_17  and  N_65
REMARK    8  A    between atoms: C_20  and  N_23
REMARK    9  A    between atoms: C_34  and  C_35
REMARK                            x       y       z     vdW  Elec       q    Type
REMARK                         _______ _______ _______ _____ _____    ______ ____
ROOT
ATOM      1  C   UNL     1      -4.754   6.294   0.101  0.00  0.00    -0.003 C 
ENDROOT
BRANCH   1  12
ATOM      2  N   UNL     1      -5.429   7.665   4.808  0.00  0.00    -0.277 N 
ATOM      3  C   UNL     1      -5.557   7.168   3.521  0.00  0.00    +0.168 A 
ATOM      4  C   UNL     1      -6.756   6.574   3.148  0.00  0.00    +0.151 A 
ATOM      5  C   UNL     1      -7.806   6.494   4.088  0.00  0.00    +0.280 A 
ATOM      6  O   UNL     1      -8.866   5.977   3.786  0.00  0.00    -0.265 OA
ATOM      7  N   UNL     1      -7.620   6.996   5.327  0.00  0.00    -0.273 N 
ATOM      8  H   UNL     1      -8.361   6.941   5.997  0.00  0.00    +0.173 HD
ATOM      9  C   UNL     1      -6.455   7.569   5.674  0.00  0.00    +0.331 A 
ATOM     10  O   UNL     1      -6.324   8.011   6.799  0.00  0.00    -0.246 OA
ATOM     11  N   UNL     1      -6.602   6.184   1.833  0.00  0.00    -0.324 N 
ATOM     12  C   UNL     1      -5.354   6.534   1.463  0.00  0.00    +0.096 A 
ATOM     13  N   UNL     1      -4.744   7.117   2.463  0.00  0.00    -0.216 NA
BRANCH  11  14
ATOM     14  C   UNL     1      -7.603   5.516   0.998  0.00  0.00    +0.120 C 
ATOM     15  C   UNL     1      -7.462   3.999   1.149  0.00  0.00    +0.027 C 
ENDBRANCH  11  14
BRANCH   2  16
ATOM     16  C   UNL     1      -4.175   8.296   5.227  0.00  0.00    +0.128 C 
BRANCH  16  17
ATOM     17  C   UNL     1      -4.234   9.795   4.928  0.00  0.00    +0.021 C 
BRANCH  17  19
ATOM     18  C   UNL     1      -2.983  11.954   5.068  0.00  0.00    +0.004 C 
ATOM     19  C   UNL     1      -2.924  10.454   5.366  0.00  0.00    -0.002 C 
ENDBRANCH  17  19
ENDBRANCH  16  17
ENDBRANCH   2  16
ENDBRANCH   1  12
BRANCH   1  25
ATOM     20  C   UNL     1      -3.288   4.819  -1.139  0.00  0.00    -0.076 C 
ATOM     21  C   UNL     1      -2.723   3.398  -1.190  0.00  0.00    +0.006 C 
ATOM     22  C   UNL     1      -1.852   3.155   0.045  0.00  0.00    +0.089 C 
ATOM     23  C   UNL     1      -2.689   3.384   1.306  0.00  0.00    +0.006 C 
ATOM     24  C   UNL     1      -3.256   4.805   1.284  0.00  0.00    -0.076 C 
ATOM     25  N   UNL     1      -4.105   4.967   0.085  0.00  0.00    +0.384 N 
ATOM     26  H   UNL     1      -4.831   4.241   0.090  0.00  0.00    -0.081 HD
BRANCH  22  27
ATOM     27  N   UNL     1      -1.355   1.776   0.030  0.00  0.00    -0.289 N 
ATOM     28  C   UNL     1      -0.017   1.392   0.010  0.00  0.00    +0.070 A 
ATOM     29  C   UNL     1       1.176   2.099   0.002  0.00  0.00    +0.028 A 
ATOM     30  C   UNL     1       2.378   1.419  -0.012  0.00  0.00    +0.002 A 
ATOM     31  C   UNL     1       2.397   0.035  -0.020  0.00  0.00    +0.002 A 
ATOM     32  C   UNL     1       1.214  -0.678  -0.013  0.00  0.00    +0.028 A 
ATOM     33  C   UNL     1       0.002  -0.004   0.002  0.00  0.00    +0.067 A 
ATOM     34  N   UNL     1      -1.326  -0.425   0.012  0.00  0.00    -0.306 N 
ATOM     35  H   UNL     1      -1.629  -1.346   0.011  0.00  0.00    +0.170 HD
ATOM     36  C   UNL     1      -2.116   0.665   0.026  0.00  0.00    +0.328 A 
ATOM     37  O   UNL     1      -3.333   0.649   0.037  0.00  0.00    -0.247 OA
ENDBRANCH  22  27
ENDBRANCH   1  25
TORSDOF 7
