REMARK  Name = ZINC39939351
REMARK  6 active torsions:
REMARK  status: ('A' for Active; 'I' for Inactive)
REMARK    1  A    between atoms: C_5  and  C_7
REMARK    2  A    between atoms: C_9  and  S_13
REMARK    3  A    between atoms: S_13  and  C_14
REMARK    4  A    between atoms: C_14  and  C_15
REMARK    5  A    between atoms: N_17  and  C_18
REMARK    6  A    between atoms: C_20  and  C_29
REMARK                            x       y       z     vdW  Elec       q    Type
REMARK                         _______ _______ _______ _____ _____    ______ ____
ROOT
ATOM      1  C   UNL     1      -3.199  -6.027  -0.021  0.00  0.00    +0.224 C 
ATOM      2  O   UNL     1      -2.835  -7.184  -0.029  0.00  0.00    -0.275 OA
ATOM      3  N   UNL     1      -4.514  -5.734  -0.012  0.00  0.00    -0.302 N 
ATOM      4  H   UNL     1      -4.805  -4.808  -0.005  0.00  0.00    +0.150 HD
ENDROOT
BRANCH   3   5
ATOM      5  C   UNL     1      -5.505  -6.813  -0.013  0.00  0.00    +0.151 C 
ATOM      6  C   UNL     1      -6.692  -6.495   0.929  0.00  0.00    +0.132 C 
ATOM      7  C   UNL     1      -7.820  -5.817   0.192  0.00  0.00    -0.046 C 
ATOM      8  C   UNL     1      -7.843  -5.926  -1.131  0.00  0.00    -0.013 C 
ATOM      9  S   UNL     1      -6.423  -6.886  -1.608  0.00  0.00    -0.106 S 
ATOM     10  C   UNL     1      -8.869  -5.351  -2.067  0.00  0.00    +0.042 C 
ATOM     11  C   UNL     1     -10.095  -4.920  -1.252  0.00  0.00    +0.005 C 
ATOM     12  C   UNL     1      -9.615  -4.109  -0.045  0.00  0.00    +0.005 C 
ATOM     13  C   UNL     1      -8.899  -5.034   0.938  0.00  0.00    +0.032 C 
BRANCH   6  14
ATOM     14  C   UNL     1      -7.201  -7.780   1.529  0.00  0.00    +0.220 C 
ATOM     15  O   UNL     1      -8.341  -8.138   1.319  0.00  0.00    -0.275 OA
ATOM     16  N   UNL     1      -6.390  -8.532   2.300  0.00  0.00    -0.329 N 
ATOM     17  H   UNL     1      -5.479  -8.245   2.468  0.00  0.00    +0.145 HD
ATOM     18  H   UNL     1      -6.718  -9.359   2.686  0.00  0.00    +0.145 HD
ENDBRANCH   6  14
ENDBRANCH   3   5
BRANCH   1  19
ATOM     19  C   UNL     1      -2.179  -4.917  -0.020  0.00  0.00    +0.173 C 
BRANCH  19  20
ATOM     20  S   UNL     1      -0.511  -5.628  -0.033  0.00  0.00    -0.077 S 
BRANCH  20  23
ATOM     21  C   UNL     1       1.246  -2.166  -0.022  0.00  0.00    +0.183 A 
ATOM     22  N   UNL     1       0.169  -2.965  -0.021  0.00  0.00    -0.201 NA
ATOM     23  C   UNL     1       0.552  -4.222  -0.030  0.00  0.00    +0.185 A 
ATOM     24  N   UNL     1       1.903  -4.249  -0.038  0.00  0.00    -0.253 N 
ATOM     25  H   UNL     1       2.468  -5.037  -0.046  0.00  0.00    +0.191 HD
ATOM     26  N   UNL     1       2.328  -2.910  -0.037  0.00  0.00    -0.152 NA
BRANCH  21  31
ATOM     27  C   UNL     1      -0.017   1.376   0.010  0.00  0.00    +0.001 A 
ATOM     28  C   UNL     1       1.170   2.087   0.002  0.00  0.00    +0.001 A 
ATOM     29  C   UNL     1       2.382   1.420  -0.013  0.00  0.00    +0.016 A 
ATOM     30  C   UNL     1       2.413   0.039  -0.021  0.00  0.00    +0.029 A 
ATOM     31  C   UNL     1       1.220  -0.682  -0.013  0.00  0.00    +0.035 A 
ATOM     32  C   UNL     1       0.002  -0.004   0.002  0.00  0.00    +0.013 A 
ATOM     33 BR   UNL     1       4.070  -0.871  -0.043  0.00  0.00    -0.050 Br
ENDBRANCH  21  31
ENDBRANCH  20  23
ENDBRANCH  19  20
ENDBRANCH   1  19
TORSDOF 6
