REMARK  Name = ZINC63296309
REMARK  4 active torsions:
REMARK  status: ('A' for Active; 'I' for Inactive)
REMARK    1  A    between atoms: C_4  and  N_7
REMARK    2  A    between atoms: C_13  and  C_15
REMARK    3  A    between atoms: C_15  and  C_16
REMARK    4  A    between atoms: C_16  and  N_17
REMARK                            x       y       z     vdW  Elec       q    Type
REMARK                         _______ _______ _______ _____ _____    ______ ____
ROOT
ATOM      1  N   UNL     1       8.503  -5.877   1.278  0.00  0.00    -0.299 N 
ATOM      2  C   UNL     1       9.680  -6.534   1.253  0.00  0.00    +0.302 C 
ATOM      3  O   UNL     1      10.724  -5.910   1.241  0.00  0.00    -0.253 OA
ATOM      4  N   UNL     1       9.700  -7.881   1.240  0.00  0.00    -0.283 N 
ATOM      5  C   UNL     1       8.441  -8.624   1.126  0.00  0.00    +0.114 C 
ATOM      6  C   UNL     1       8.497  -9.541  -0.110  0.00  0.00    +0.052 C 
ATOM      7  C   UNL     1       9.842 -10.224  -0.082  0.00  0.00    -0.036 C 
ATOM      8  C   UNL     1      10.177 -11.506  -0.162  0.00  0.00    -0.001 A 
ATOM      9  C   UNL     1       9.376 -12.714  -0.417  0.00  0.00    +0.010 A 
ATOM     10  C   UNL     1      10.052 -13.893  -0.412  0.00  0.00    +0.001 A 
ATOM     11  C   UNL     1      11.427 -13.991  -0.180  0.00  0.00    +0.002 A 
ATOM     12  C   UNL     1      12.242 -12.932   0.055  0.00  0.00    +0.026 A 
ATOM     13  C   UNL     1      11.649 -11.636   0.065  0.00  0.00    +0.043 A 
ATOM     14  N   UNL     1      12.187 -10.466   0.238  0.00  0.00    -0.376 N 
ATOM     15  C   UNL     1      11.145  -9.450   0.082  0.00  0.00    +0.124 C 
ATOM     16  C   UNL     1      10.986  -8.591   1.335  0.00  0.00    +0.138 C 
ATOM     17  H   UNL     1       7.674  -6.372   1.364  0.00  0.00    +0.150 HD
ATOM     18  H   UNL     1      13.121 -10.294   0.437  0.00  0.00    +0.160 HD
ENDROOT
BRANCH   1  19
ATOM     19  C   UNL     1       8.477  -4.416   1.175  0.00  0.00    +0.115 C 
BRANCH  19  20
ATOM     20  C   UNL     1       7.028  -3.927   1.229  0.00  0.00    +0.114 C 
BRANCH  20  27
ATOM     21  N   UNL     1       3.605  -0.656   0.005  0.00  0.00    -0.327 N 
ATOM     22  C   UNL     1       4.870   0.082  -0.124  0.00  0.00    +0.124 C 
ATOM     23  C   UNL     1       5.783  -0.302   1.046  0.00  0.00    +0.126 C 
ATOM     24  N   UNL     1       5.824  -1.768   1.149  0.00  0.00    -0.298 N 
ATOM     25  C   UNL     1       4.560  -2.505   1.278  0.00  0.00    +0.126 C 
ATOM     26  C   UNL     1       3.647  -2.121   0.113  0.00  0.00    +0.124 C 
ATOM     27  C   UNL     1       7.001  -2.424   1.123  0.00  0.00    +0.217 C 
ATOM     28  O   UNL     1       8.039  -1.805   1.015  0.00  0.00    -0.276 OA
BRANCH  21  32
ATOM     29  C   UNL     1      -0.031   1.372   0.085  0.00  0.00    +0.000 A 
ATOM     30  C   UNL     1      -0.013  -0.011   0.073  0.00  0.00    +0.002 A 
ATOM     31  C   UNL     1       1.192  -0.686   0.047  0.00  0.00    +0.023 A 
ATOM     32  C   UNL     1       2.385   0.025   0.032  0.00  0.00    +0.030 A 
ATOM     33  C   UNL     1       2.363   1.413   0.043  0.00  0.00    +0.023 A 
ATOM     34  C   UNL     1       1.155   2.083   0.070  0.00  0.00    +0.002 A 
ENDBRANCH  21  32
ENDBRANCH  20  27
ENDBRANCH  19  20
ENDBRANCH   1  19
TORSDOF 4
