REMARK  Name = ZINC09113713
REMARK  11 active torsions:
REMARK  status: ('A' for Active; 'I' for Inactive)
REMARK    1  A    between atoms: C_1  and  C_2
REMARK    2  A    between atoms: C_2  and  C_3
REMARK    3  A    between atoms: C_3  and  C_28
REMARK    4  A    between atoms: N_4  and  N_5
REMARK    5  A    between atoms: C_6  and  C_8
REMARK    6  A    between atoms: C_8  and  S_9
REMARK    7  A    between atoms: S_9  and  C_10
REMARK    8  A    between atoms: C_13  and  C_21
REMARK    9  A    between atoms: N_14  and  C_15
REMARK   10  A    between atoms: C_24  and  C_27
REMARK   11  A    between atoms: C_31  and  O_34
REMARK                            x       y       z     vdW  Elec       q    Type
REMARK                         _______ _______ _______ _____ _____    ______ ____
ROOT
ATOM      1  S   UNL     1      -2.454  -0.855  -6.168  0.00  0.00    -0.076 S 
ENDROOT
BRANCH   1   2
ATOM      2  C   UNL     1      -1.508  -0.493  -7.610  0.00  0.00    +0.197 A 
ATOM      3  N   UNL     1      -0.273  -0.044  -7.641  0.00  0.00    -0.122 NA
ATOM      4  N   UNL     1       0.111   0.111  -8.857  0.00  0.00    -0.128 NA
ATOM      5  C   UNL     1      -0.853  -0.230  -9.680  0.00  0.00    +0.169 A 
ATOM      6  N   UNL     1      -1.920  -0.634  -8.907  0.00  0.00    -0.270 N 
BRANCH   5   7
ATOM      7  C   UNL     1      -0.802  -0.193 -11.157  0.00  0.00    +0.020 A 
ATOM      8  C   UNL     1      -1.980  -0.273 -11.901  0.00  0.00    +0.012 A 
ATOM      9  C   UNL     1      -1.926  -0.237 -13.279  0.00  0.00    +0.004 A 
ATOM     10  C   UNL     1      -0.707  -0.122 -13.923  0.00  0.00    -0.050 A 
ATOM     11  C   UNL     1       0.465  -0.042 -13.192  0.00  0.00    +0.004 A 
ATOM     12  C   UNL     1       0.424  -0.071 -11.813  0.00  0.00    +0.012 A 
ATOM     13  C   UNL     1      -0.655  -0.084 -15.429  0.00  0.00    +0.044 C 
ENDBRANCH   5   7
BRANCH   6  14
ATOM     14  C   UNL     1      -3.167  -1.090  -9.356  0.00  0.00    +0.051 A 
ATOM     15  C   UNL     1      -3.259  -2.281 -10.063  0.00  0.00    +0.026 A 
ATOM     16  C   UNL     1      -4.489  -2.728 -10.504  0.00  0.00    +0.002 A 
ATOM     17  C   UNL     1      -5.629  -1.990 -10.241  0.00  0.00    +0.000 A 
ATOM     18  C   UNL     1      -5.541  -0.803  -9.537  0.00  0.00    +0.002 A 
ATOM     19  C   UNL     1      -4.314  -0.354  -9.089  0.00  0.00    +0.026 A 
ENDBRANCH   6  14
ENDBRANCH   1   2
BRANCH   1  20
ATOM     20  C   UNL     1      -1.335  -0.454  -4.798  0.00  0.00    +0.174 C 
BRANCH  20  22
ATOM     21  N   UNL     1      -1.386  -0.495  -2.325  0.00  0.00    -0.206 N 
ATOM     22  C   UNL     1      -2.029  -0.722  -3.487  0.00  0.00    +0.242 C 
ATOM     23  O   UNL     1      -3.167  -1.142  -3.478  0.00  0.00    -0.273 OA
ATOM     24  H   UNL     1      -0.476  -0.160  -2.332  0.00  0.00    +0.177 HD
BRANCH  21  26
ATOM     25  C   UNL     1      -1.412  -0.526   0.013  0.00  0.00    +0.066 C 
ATOM     26  N   UNL     1      -2.031  -0.744  -1.107  0.00  0.00    -0.184 NA
BRANCH  25  27
ATOM     27  C   UNL     1      -2.091  -0.788   1.295  0.00  0.00    -0.002 A 
ATOM     28  C   UNL     1      -1.428  -0.548   2.501  0.00  0.00    +0.013 A 
ATOM     29  C   UNL     1      -2.067  -0.794   3.697  0.00  0.00    +0.046 A 
ATOM     30  C   UNL     1      -3.368  -1.280   3.704  0.00  0.00    +0.117 A 
ATOM     31  C   UNL     1      -4.031  -1.521   2.507  0.00  0.00    +0.046 A 
ATOM     32  C   UNL     1      -3.402  -1.271   1.307  0.00  0.00    +0.013 A 
BRANCH  30  33
ATOM     33  O   UNL     1      -3.994  -1.522   4.885  0.00  0.00    -0.507 OA
ATOM     34  H   UNL     1      -4.484  -0.764   5.233  0.00  0.00    +0.292 HD
ENDBRANCH  30  33
ENDBRANCH  25  27
BRANCH  25  36
ATOM     35  C   UNL     1      -0.019   1.526   0.010  0.00  0.00    +0.010 C 
ATOM     36  C   UNL     1       0.002  -0.004   0.002  0.00  0.00    +0.054 C 
ENDBRANCH  25  36
ENDBRANCH  21  26
ENDBRANCH  20  22
ENDBRANCH   1  20
TORSDOF 9
