REMARK  Name = ZINC39666604
REMARK  7 active torsions:
REMARK  status: ('A' for Active; 'I' for Inactive)
REMARK    1  A    between atoms: C_1  and  C_2
REMARK    2  A    between atoms: C_2  and  C_4
REMARK    3  A    between atoms: C_2  and  O_28
REMARK    4  A    between atoms: C_4  and  N_5
REMARK    5  A    between atoms: C_6  and  C_8
REMARK    6  A    between atoms: C_19  and  C_21
REMARK    7  A    between atoms: O_28  and  C_29
REMARK                            x       y       z     vdW  Elec       q    Type
REMARK                         _______ _______ _______ _____ _____    ______ ____
ROOT
ATOM      1  C   UNL     1       1.586  -4.150   2.542  0.00  0.00    +0.100 C 
ATOM      2  C   UNL     1       2.579  -4.760   1.527  0.00  0.00    +0.121 C 
ATOM      3  N   UNL     1       3.873  -4.801   2.248  0.00  0.00    -0.300 N 
ATOM      4  C   UNL     1       3.512  -5.199   3.630  0.00  0.00    +0.115 C 
ATOM      5  C   UNL     1       2.200  -4.444   3.921  0.00  0.00    -0.004 C 
ATOM      6  C   UNL     1       1.259  -5.318   4.743  0.00  0.00    -0.010 C 
ATOM      7  C   UNL     1       1.865  -5.548   6.131  0.00  0.00    -0.082 C 
ATOM      8  N   UNL     1       2.072  -4.256   6.796  0.00  0.00    +0.379 N 
ATOM      9  C   UNL     1       3.051  -3.459   6.047  0.00  0.00    -0.082 C 
ATOM     10  C   UNL     1       2.495  -3.140   4.656  0.00  0.00    -0.010 C 
ATOM     11  C   UNL     1       5.100  -4.538   1.758  0.00  0.00    +0.219 C 
ATOM     12  O   UNL     1       5.225  -4.124   0.624  0.00  0.00    -0.275 OA
ATOM     13  H   UNL     1       1.196  -3.757   6.840  0.00  0.00    -0.086 HD
ATOM     14  H   UNL     1       2.414  -4.413   7.733  0.00  0.00    -0.086 HD
ENDROOT
BRANCH  11  15
ATOM     15  C   UNL     1       6.318  -4.756   2.618  0.00  0.00    +0.079 C 
ATOM     16  C   UNL     1       7.564  -4.232   1.892  0.00  0.00    +0.017 C 
ATOM     17  C   UNL     1       8.751  -4.303   2.854  0.00  0.00    +0.027 C 
ATOM     18  C   UNL     1       8.823  -5.662   3.487  0.00  0.00    -0.031 C 
ATOM     19  C   UNL     1       7.844  -6.508   3.501  0.00  0.00    -0.030 C 
ATOM     20  C   UNL     1       6.500  -6.253   2.881  0.00  0.00    +0.039 C 
ENDBRANCH  11  15
BRANCH   1  22
ATOM     21  N   UNL     1       0.377  -2.005   2.777  0.00  0.00    -0.312 N 
ATOM     22  C   UNL     1       1.464  -2.663   2.328  0.00  0.00    +0.218 C 
ATOM     23  O   UNL     1       2.343  -2.059   1.751  0.00  0.00    -0.275 OA
ATOM     24  H   UNL     1      -0.359  -2.497   3.172  0.00  0.00    +0.149 HD
BRANCH  21  25
ATOM     25  C   UNL     1       0.308  -0.546   2.669  0.00  0.00    +0.148 C 
BRANCH  25  27
ATOM     26  C   UNL     1      -0.970   1.488   3.358  0.00  0.00    +0.053 C 
ATOM     27  C   UNL     1      -0.962  -0.043   3.358  0.00  0.00    +0.187 C 
BRANCH  27  28
ATOM     28  O   UNL     1      -2.108  -0.525   2.656  0.00  0.00    -0.486 OA
BRANCH  28  29
ATOM     29  C   UNL     1      -3.264  -0.637   3.363  0.00  0.00    +0.139 A 
ATOM     30  C   UNL     1      -3.325  -0.177   4.670  0.00  0.00    +0.047 A 
ATOM     31  C   UNL     1      -4.501  -0.291   5.387  0.00  0.00    +0.004 A 
ATOM     32  C   UNL     1      -5.616  -0.864   4.803  0.00  0.00    +0.002 A 
ATOM     33  C   UNL     1      -5.558  -1.324   3.501  0.00  0.00    +0.023 A 
ATOM     34  C   UNL     1      -4.386  -1.207   2.777  0.00  0.00    +0.083 A 
ATOM     35 CL   UNL     1      -4.315  -1.778   1.139  0.00  0.00    -0.080 Cl
ENDBRANCH  28  29
ENDBRANCH  27  28
ENDBRANCH  25  27
ENDBRANCH  21  25
ENDBRANCH   1  22
TORSDOF 6
