REMARK  Name = ZINC19970210
REMARK  6 active torsions:
REMARK  status: ('A' for Active; 'I' for Inactive)
REMARK    1  A    between atoms: C_1  and  C_2
REMARK    2  A    between atoms: C_2  and  C_3
REMARK    3  A    between atoms: C_6  and  N_19
REMARK    4  A    between atoms: C_8  and  C_9
REMARK    5  A    between atoms: C_9  and  C_11
REMARK    6  A    between atoms: C_9  and  N_18
REMARK                            x       y       z     vdW  Elec       q    Type
REMARK                         _______ _______ _______ _____ _____    ______ ____
ROOT
ATOM      1  C   UNL     1       1.662   2.925   2.173  0.00  0.00    -0.013 C 
ENDROOT
BRANCH   1   2
ATOM      2  C   UNL     1       1.040   4.176   2.739  0.00  0.00    -0.057 A 
ATOM      3  C   UNL     1      -0.092   4.711   2.153  0.00  0.00    +0.002 A 
ATOM      4  C   UNL     1      -0.663   5.858   2.671  0.00  0.00    +0.001 A 
ATOM      5  C   UNL     1      -0.102   6.471   3.777  0.00  0.00    +0.015 A 
ATOM      6  C   UNL     1       1.030   5.935   4.364  0.00  0.00    +0.018 A 
ATOM      7  C   UNL     1       1.598   4.784   3.847  0.00  0.00    +0.017 A 
ATOM      8 BR   UNL     1       1.797   6.772   5.876  0.00  0.00    -0.050 Br
ENDBRANCH   1   2
BRANCH   1  14
ATOM      9  C   UNL     1       0.279   1.018   3.018  0.00  0.00    -0.046 A 
ATOM     10  C   UNL     1       0.069  -0.040   3.883  0.00  0.00    +0.006 A 
ATOM     11  C   UNL     1       1.007  -0.336   4.854  0.00  0.00    +0.033 A 
ATOM     12  C   UNL     1       2.155   0.427   4.960  0.00  0.00    +0.126 A 
ATOM     13  C   UNL     1       2.365   1.484   4.095  0.00  0.00    +0.035 A 
ATOM     14  C   UNL     1       1.430   1.776   3.120  0.00  0.00    -0.052 A 
BRANCH  12  15
ATOM     15  N   UNL     1       3.159   0.111   6.000  0.00  0.00    +0.056 N 
ATOM     16  O   UNL     1       2.974  -0.821   6.763  0.00  0.00    -0.126 OA
ATOM     17  O   UNL     1       4.171   0.782   6.094  0.00  0.00    -0.126 OA
ENDBRANCH  12  15
BRANCH   9  19
ATOM     18  C   UNL     1      -0.364   0.638   0.653  0.00  0.00    +0.009 C 
ATOM     19  C   UNL     1      -0.744   1.339   1.959  0.00  0.00    +0.032 C 
ENDBRANCH   9  19
ENDBRANCH   1  14
BRANCH   1  20
ATOM     20  N   UNL     1       3.105   3.132   1.999  0.00  0.00    +0.385 N 
ATOM     21  H   UNL     1       3.275   3.971   1.307  0.00  0.00    -0.089 HD
ATOM     22  H   UNL     1       3.559   2.219   1.586  0.00  0.00    -0.089 HD
ATOM     23  H   UNL     1       3.563   3.361   2.972  0.00  0.00    -0.089 HD
ENDBRANCH   1  20
TORSDOF 5
