REMARK  Name = ZINC39248309
REMARK  7 active torsions:
REMARK  status: ('A' for Active; 'I' for Inactive)
REMARK    1  A    between atoms: C_1  and  C_2
REMARK    2  A    between atoms: C_2  and  C_30
REMARK    3  A    between atoms: N_3  and  O_4
REMARK    4  A    between atoms: O_4  and  C_5
REMARK    5  A    between atoms: C_5  and  C_6
REMARK    6  A    between atoms: N_17  and  N_18
REMARK    7  A    between atoms: C_19  and  C_20
REMARK                            x       y       z     vdW  Elec       q    Type
REMARK                         _______ _______ _______ _____ _____    ______ ____
ROOT
ATOM      1  C   UNL     1      -0.022   0.198   5.011  0.00  0.00    +0.225 C 
ATOM      2  N   UNL     1      -1.158   1.129   4.997  0.00  0.00    -0.321 N 
ATOM      3  C   UNL     1      -1.204   2.104   4.007  0.00  0.00    +0.041 A 
ATOM      4  C   UNL     1      -2.402   2.602   3.524  0.00  0.00    +0.024 A 
ATOM      5  C   UNL     1      -2.392   3.568   2.535  0.00  0.00    +0.002 A 
ATOM      6  C   UNL     1      -1.193   4.040   2.024  0.00  0.00    +0.001 A 
ATOM      7  C   UNL     1       0.009   3.556   2.495  0.00  0.00    +0.015 A 
ATOM      8  C   UNL     1       0.014   2.585   3.494  0.00  0.00    +0.059 A 
ATOM      9  C   UNL     1       1.270   2.041   4.041  0.00  0.00    +0.269 C 
ATOM     10  O   UNL     1       2.329   2.593   3.816  0.00  0.00    -0.268 OA
ATOM     11  N   UNL     1       1.228   0.925   4.793  0.00  0.00    -0.165 N 
ATOM     12  H   UNL     1      -1.860   1.065   5.662  0.00  0.00    +0.148 HD
ENDROOT
BRANCH  11  13
ATOM     13  N   UNL     1       2.410   0.451   5.377  0.00  0.00    -0.185 NA
ATOM     14  C   UNL     1       2.412  -0.665   6.003  0.00  0.00    +0.132 C 
BRANCH  14  15
ATOM     15  C   UNL     1       3.643  -1.108   6.751  0.00  0.00    +0.146 C 
ATOM     16  C   UNL     1       3.311  -1.346   8.207  0.00  0.00    +0.013 C 
ATOM     17  C   UNL     1       3.582  -2.650   8.445  0.00  0.00    -0.004 A 
ATOM     18  C   UNL     1       3.473  -3.485   9.647  0.00  0.00    +0.010 A 
ATOM     19  C   UNL     1       3.828  -4.788   9.575  0.00  0.00    +0.001 A 
ATOM     20  C   UNL     1       4.297  -5.359   8.384  0.00  0.00    +0.002 A 
ATOM     21  C   UNL     1       4.425  -4.656   7.239  0.00  0.00    +0.026 A 
ATOM     22  C   UNL     1       4.080  -3.277   7.200  0.00  0.00    +0.043 A 
ATOM     23  N   UNL     1       4.116  -2.395   6.229  0.00  0.00    -0.373 N 
ATOM     24  H   UNL     1       4.406  -2.564   5.319  0.00  0.00    +0.161 HD
ENDBRANCH  14  15
ENDBRANCH  11  13
BRANCH   1  25
ATOM     25  C   UNL     1      -0.205  -0.841   3.903  0.00  0.00    +0.306 C 
BRANCH  25  26
ATOM     26  O   UNL     1      -0.258  -0.181   2.636  0.00  0.00    -0.390 OA
BRANCH  26  29
ATOM     27  C   UNL     1      -0.384   0.902   0.105  0.00  0.00    +0.069 C 
ATOM     28  C   UNL     1      -0.489  -0.584   0.335  0.00  0.00    +0.084 C 
ATOM     29  N   UNL     1      -0.426  -1.058   1.537  0.00  0.00    -0.089 NA
BRANCH  28  30
ATOM     30  C   UNL     1      -0.664  -1.498  -0.811  0.00  0.00    -0.001 A 
ATOM     31  C   UNL     1      -0.727  -0.990  -2.110  0.00  0.00    +0.010 A 
ATOM     32  C   UNL     1      -0.891  -1.850  -3.176  0.00  0.00    +0.001 A 
ATOM     33  C   UNL     1      -0.993  -3.213  -2.960  0.00  0.00    +0.000 A 
ATOM     34  C   UNL     1      -0.932  -3.723  -1.676  0.00  0.00    +0.001 A 
ATOM     35  C   UNL     1      -0.762  -2.875  -0.601  0.00  0.00    +0.010 A 
ENDBRANCH  28  30
ENDBRANCH  26  29
ENDBRANCH  25  26
ENDBRANCH   1  25
TORSDOF 6
