REMARK  Name = ZINC39930895
REMARK  3 active torsions:
REMARK  status: ('A' for Active; 'I' for Inactive)
REMARK    1  A    between atoms: C_4  and  C_7
REMARK    2  A    between atoms: C_16  and  S_23
REMARK    3  A    between atoms: S_23  and  N_26
REMARK                            x       y       z     vdW  Elec       q    Type
REMARK                         _______ _______ _______ _____ _____    ______ ____
ROOT
ATOM      1  C   UNL     1       3.711  -0.707  -0.038  0.00  0.00    +0.188 C 
ATOM      2  N   UNL     1       4.776   0.097   0.630  0.00  0.00    -0.230 NA
ATOM      3  N   UNL     1       5.775  -0.911   1.018  0.00  0.00    -0.227 NA
ATOM      4  C   UNL     1       5.013  -2.137   1.312  0.00  0.00    +0.245 C 
ATOM      5  N   UNL     1       3.643  -1.910   0.790  0.00  0.00    -0.283 N 
ATOM      6  C   UNL     1       2.574  -2.713   1.170  0.00  0.00    +0.056 A 
ATOM      7  C   UNL     1       1.494  -2.985   0.360  0.00  0.00    +0.053 A 
ATOM      8  C   UNL     1       0.483  -3.813   0.821  0.00  0.00    +0.107 A 
ATOM      9  C   UNL     1       0.561  -4.363   2.088  0.00  0.00    +0.030 A 
ATOM     10  C   UNL     1       1.640  -4.087   2.909  0.00  0.00    +0.027 A 
ATOM     11  C   UNL     1       2.651  -3.255   2.463  0.00  0.00    +0.055 A 
ATOM     12  N   UNL     1       3.736  -2.921   3.282  0.00  0.00    -0.281 N 
ATOM     13  C   UNL     1       4.896  -2.389   2.793  0.00  0.00    +0.254 C 
ATOM     14  O   UNL     1       5.819  -2.117   3.531  0.00  0.00    -0.272 OA
ATOM     15  H   UNL     1       5.172   0.773  -0.006  0.00  0.00    +0.143 HD
ATOM     16  H   UNL     1       6.300  -0.609   1.825  0.00  0.00    +0.143 HD
ATOM     17  H   UNL     1       3.666  -3.076   4.237  0.00  0.00    +0.155 HD
ENDROOT
BRANCH   1  21
ATOM     18  C   UNL     1      -0.015   1.380   0.011  0.00  0.00    +0.000 A 
ATOM     19  C   UNL     1       0.701   1.218   1.182  0.00  0.00    +0.000 A 
ATOM     20  C   UNL     1       1.907   0.542   1.166  0.00  0.00    +0.007 A 
ATOM     21  C   UNL     1       2.396   0.029  -0.020  0.00  0.00    -0.012 A 
ATOM     22  C   UNL     1       1.679   0.190  -1.191  0.00  0.00    +0.007 A 
ATOM     23  C   UNL     1       0.473   0.867  -1.175  0.00  0.00    +0.000 A 
ENDBRANCH   1  21
BRANCH   8  24
ATOM     24  S   UNL     1      -0.903  -4.167  -0.208  0.00  0.00    +0.056 S 
ATOM     25  O   UNL     1      -1.970  -4.527   0.658  0.00  0.00    -0.153 OA
ATOM     26  O   UNL     1      -1.003  -3.096  -1.137  0.00  0.00    -0.153 OA
BRANCH  24  27
ATOM     27  N   UNL     1      -0.529  -5.521  -1.085  0.00  0.00    -0.204 NA
ATOM     28  H   UNL     1      -1.232  -6.127  -1.365  0.00  0.00    +0.144 HD
ATOM     29  H   UNL     1       0.394  -5.707  -1.319  0.00  0.00    +0.144 HD
ENDBRANCH  24  27
ENDBRANCH   8  24
TORSDOF 3
