REMARK  Name = ZINC06019649
REMARK  3 active torsions:
REMARK  status: ('A' for Active; 'I' for Inactive)
REMARK    1  A    between atoms: C_1  and  S_2
REMARK    2  A    between atoms: S_2  and  C_3
REMARK    3  A    between atoms: C_4  and  C_5
REMARK                            x       y       z     vdW  Elec       q    Type
REMARK                         _______ _______ _______ _____ _____    ______ ____
ROOT
ATOM      1  C   UNL     1       0.018  -1.178  -0.004  0.00  0.00    -0.029 C 
ATOM      2  C   UNL     1       0.002  -0.004   0.002  0.00  0.00    -0.063 C 
ENDROOT
BRANCH   1   4
ATOM      3  C   UNL     1      -1.736  -3.326   0.001  0.00  0.00    +0.099 C 
ATOM      4  S   UNL     1       0.043  -2.988  -0.014  0.00  0.00    -0.077 S 
ENDBRANCH   1   4
BRANCH   2   5
ATOM      5  C   UNL     1      -0.017   1.428   0.010  0.00  0.00    +0.053 C 
ATOM      6  C   UNL     1      -1.180   2.078   0.019  0.00  0.00    +0.018 C 
ENDBRANCH   2   5
TORSDOF 2
