REMARK  Name = ZINC10000589
REMARK  11 active torsions:
REMARK  status: ('A' for Active; 'I' for Inactive)
REMARK    1  A    between atoms: C_1  and  C_2
REMARK    2  A    between atoms: C_2  and  C_3
REMARK    3  A    between atoms: C_2  and  C_4
REMARK    4  A    between atoms: C_4  and  C_6
REMARK    5  A    between atoms: C_4  and  N_25
REMARK    6  A    between atoms: N_8  and  N_9
REMARK    7  A    between atoms: C_10  and  C_11
REMARK    8  A    between atoms: C_14  and  O_17
REMARK    9  A    between atoms: O_17  and  C_18
REMARK   10  A    between atoms: C_18  and  C_19
REMARK   11  A    between atoms: C_26  and  C_28
REMARK                            x       y       z     vdW  Elec       q    Type
REMARK                         _______ _______ _______ _____ _____    ______ ____
ROOT
ATOM      1  C   UNL     1      -0.233   1.665   0.214  0.00  0.00    +0.253 C 
ATOM      2  O   UNL     1      -0.552   0.495   0.179  0.00  0.00    -0.272 OA
ATOM      3  N   UNL     1      -1.180   2.618   0.324  0.00  0.00    -0.205 N 
ATOM      4  H   UNL     1      -0.933   3.554   0.278  0.00  0.00    +0.177 HD
ENDROOT
BRANCH   3   5
ATOM      5  N   UNL     1      -2.521   2.255   0.505  0.00  0.00    -0.188 NA
ATOM      6  C   UNL     1      -3.433   3.173   0.611  0.00  0.00    +0.138 C 
BRANCH   6   7
ATOM      7  C   UNL     1      -4.844   2.792   0.801  0.00  0.00    -0.005 A 
ATOM      8  C   UNL     1      -5.203   1.443   0.862  0.00  0.00    +0.013 A 
ATOM      9  C   UNL     1      -6.523   1.091   1.046  0.00  0.00    +0.046 A 
ATOM     10  C   UNL     1      -7.497   2.075   1.160  0.00  0.00    +0.121 A 
ATOM     11  C   UNL     1      -7.145   3.417   1.094  0.00  0.00    +0.046 A 
ATOM     12  C   UNL     1      -5.827   3.778   0.916  0.00  0.00    +0.013 A 
BRANCH  10  13
ATOM     13  O   UNL     1      -8.797   1.724   1.335  0.00  0.00    -0.487 OA
BRANCH  13  14
ATOM     14  C   UNL     1      -9.089   0.326   1.394  0.00  0.00    +0.264 C 
BRANCH  14  15
ATOM     15  C   UNL     1     -10.570   0.130   1.591  0.00  0.00    -0.010 A 
ATOM     16  C   UNL     1     -11.094   0.052   2.868  0.00  0.00    +0.007 A 
ATOM     17  C   UNL     1     -12.453  -0.122   3.049  0.00  0.00    +0.000 A 
ATOM     18  C   UNL     1     -13.288  -0.229   1.952  0.00  0.00    +0.000 A 
ATOM     19  C   UNL     1     -12.764  -0.157   0.675  0.00  0.00    +0.000 A 
ATOM     20  C   UNL     1     -11.405   0.023   0.494  0.00  0.00    +0.007 A 
ENDBRANCH  14  15
ENDBRANCH  13  14
ENDBRANCH  10  13
ENDBRANCH   6   7
ENDBRANCH   3   5
BRANCH   1  21
ATOM     21  C   UNL     1       1.220   2.053   0.127  0.00  0.00    +0.163 C 
BRANCH  21  22
ATOM     22  N   UNL     1       2.056   0.892   0.445  0.00  0.00    -0.300 N 
ATOM     23  C   UNL     1       3.303   1.071   0.922  0.00  0.00    +0.246 C 
ATOM     24  O   UNL     1       3.736   2.195   1.089  0.00  0.00    -0.270 OA
ATOM     25  H   UNL     1       1.711  -0.005   0.313  0.00  0.00    +0.150 HD
BRANCH  23  26
ATOM     26  C   UNL     1       4.146  -0.100   1.244  0.00  0.00    +0.055 A 
ATOM     27  C   UNL     1       3.652  -1.392   1.054  0.00  0.00    +0.016 A 
ATOM     28  C   UNL     1       4.442  -2.481   1.355  0.00  0.00    +0.021 A 
ATOM     29  C   UNL     1       5.725  -2.295   1.846  0.00  0.00    +0.042 A 
ATOM     30  C   UNL     1       6.221  -1.017   2.037  0.00  0.00    +0.040 A 
ATOM     31  C   UNL     1       5.442   0.082   1.733  0.00  0.00    +0.054 A 
ATOM     32 CL   UNL     1       6.068   1.684   1.965  0.00  0.00    -0.083 Cl
ATOM     33 CL   UNL     1       6.714  -3.671   2.223  0.00  0.00    -0.083 Cl
ENDBRANCH  23  26
ENDBRANCH  21  22
BRANCH  21  35
ATOM     34  C   UNL     1       2.978   3.043  -1.347  0.00  0.00    +0.009 C 
ATOM     35  C   UNL     1       1.536   2.535  -1.290  0.00  0.00    +0.012 C 
ATOM     36  C   UNL     1       1.365   1.375  -2.273  0.00  0.00    +0.009 C 
ENDBRANCH  21  35
ENDBRANCH   1  21
TORSDOF 9
