REMARK  Name = ZINC63686266
REMARK  8 active torsions:
REMARK  status: ('A' for Active; 'I' for Inactive)
REMARK    1  A    between atoms: C_4  and  N_7
REMARK    2  A    between atoms: C_8  and  C_10
REMARK    3  A    between atoms: C_14  and  C_17
REMARK    4  A    between atoms: C_17  and  C_18
REMARK    5  A    between atoms: C_18  and  C_19
REMARK    6  A    between atoms: N_21  and  C_22
REMARK    7  A    between atoms: C_22  and  C_23
REMARK    8  A    between atoms: C_23  and  C_24
REMARK                            x       y       z     vdW  Elec       q    Type
REMARK                         _______ _______ _______ _____ _____    ______ ____
ROOT
ATOM      1  C   UNL     1       5.920  -6.226  -1.476  0.00  0.00    +0.040 C 
ENDROOT
BRANCH   1   5
ATOM      2  C   UNL     1       4.962  -2.721   0.153  0.00  0.00    +0.214 C 
ATOM      3  N   UNL     1       5.667  -2.757  -1.165  0.00  0.00    -0.234 NA
ATOM      4  N   UNL     1       6.610  -3.852  -1.253  0.00  0.00    -0.242 NA
ATOM      5  C   UNL     1       6.236  -5.081  -0.512  0.00  0.00    +0.129 C 
ATOM      6  S   UNL     1       4.720  -4.539   0.389  0.00  0.00    -0.112 S 
ATOM      7  H   UNL     1       5.006  -2.787  -1.928  0.00  0.00    +0.142 HD
ATOM      8  H   UNL     1       7.540  -3.549  -1.005  0.00  0.00    +0.142 HD
BRANCH   2  10
ATOM      9  N   UNL     1       3.622  -0.651  -0.037  0.00  0.00    -0.283 N 
ATOM     10  C   UNL     1       3.645  -1.995   0.057  0.00  0.00    +0.246 C 
ATOM     11  O   UNL     1       2.606  -2.620   0.064  0.00  0.00    -0.273 OA
ATOM     12  H   UNL     1       4.452  -0.156  -0.121  0.00  0.00    +0.155 HD
BRANCH   9  16
ATOM     13  C   UNL     1      -0.015   1.381   0.029  0.00  0.00    +0.000 A 
ATOM     14  C   UNL     1       0.140   0.218   0.763  0.00  0.00    +0.002 A 
ATOM     15  C   UNL     1       1.344  -0.457   0.743  0.00  0.00    +0.023 A 
ATOM     16  C   UNL     1       2.400   0.031  -0.015  0.00  0.00    +0.033 A 
ATOM     17  C   UNL     1       2.241   1.198  -0.751  0.00  0.00    +0.023 A 
ATOM     18  C   UNL     1       1.034   1.870  -0.727  0.00  0.00    +0.002 A 
ENDBRANCH   9  16
ENDBRANCH   2  10
ENDBRANCH   1   5
BRANCH   1  19
ATOM     19  C   UNL     1       5.539  -7.474  -0.678  0.00  0.00    +0.098 C 
BRANCH  19  20
ATOM     20  C   UNL     1       5.228  -8.602  -1.628  0.00  0.00    +0.213 C 
ATOM     21  O   UNL     1       5.304  -8.425  -2.825  0.00  0.00    -0.276 OA
ATOM     22  N   UNL     1       4.866  -9.808  -1.146  0.00  0.00    -0.315 N 
ATOM     23  H   UNL     1       4.806  -9.950  -0.189  0.00  0.00    +0.149 HD
BRANCH  22  24
ATOM     24  C   UNL     1       4.564 -10.905  -2.070  0.00  0.00    +0.108 C 
BRANCH  24  25
ATOM     25  C   UNL     1       4.183 -12.153  -1.271  0.00  0.00    +0.052 C 
BRANCH  25  26
ATOM     26  C   UNL     1       3.872 -13.281  -2.221  0.00  0.00    -0.040 C 
ATOM     27  C   UNL     1       4.718 -14.252  -2.635  0.00  0.00    +0.000 A 
ATOM     28  C   UNL     1       6.127 -14.536  -2.338  0.00  0.00    +0.030 A 
ATOM     29  C   UNL     1       6.717 -15.606  -2.919  0.00  0.00    +0.042 A 
ATOM     30  C   UNL     1       6.018 -16.447  -3.797  0.00  0.00    +0.022 A 
ATOM     31  C   UNL     1       4.722 -16.250  -4.119  0.00  0.00    +0.027 A 
ATOM     32  C   UNL     1       4.002 -15.155  -3.565  0.00  0.00    +0.043 A 
ATOM     33  N   UNL     1       2.762 -14.758  -3.719  0.00  0.00    -0.380 N 
ATOM     34  C   UNL     1       2.549 -13.561  -2.898  0.00  0.00    +0.144 C 
ATOM     35 CL   UNL     1       8.383 -15.946  -2.570  0.00  0.00    -0.084 Cl
ATOM     36  H   UNL     1       2.096 -15.187  -4.278  0.00  0.00    +0.160 HD
ENDBRANCH  25  26
ENDBRANCH  24  25
ENDBRANCH  22  24
ENDBRANCH  19  20
ENDBRANCH   1  19
TORSDOF 8
