REMARK  Name = ZINC39923282
REMARK  4 active torsions:
REMARK  status: ('A' for Active; 'I' for Inactive)
REMARK    1  A    between atoms: C_4  and  C_7
REMARK    2  A    between atoms: C_9  and  C_18
REMARK    3  A    between atoms: C_11  and  C_12
REMARK    4  A    between atoms: C_23  and  O_24
REMARK                            x       y       z     vdW  Elec       q    Type
REMARK                         _______ _______ _______ _____ _____    ______ ____
ROOT
ATOM      1  C   UNL     1       3.699  -0.717  -0.259  0.00  0.00    +0.094 C 
ATOM      2  N   UNL     1       4.866  -0.147  -0.290  0.00  0.00    -0.250 NA
ATOM      3  C   UNL     1       5.867  -1.182  -0.000  0.00  0.00    +0.256 C 
ATOM      4  N   UNL     1       5.121  -2.430   0.203  0.00  0.00    -0.250 NA
ATOM      5  C   UNL     1       3.860  -2.156   0.059  0.00  0.00    +0.094 C 
ENDROOT
BRANCH   1   9
ATOM      6  C   UNL     1      -0.008   1.245  -0.944  0.00  0.00    +0.000 A 
ATOM      7  C   UNL     1       1.014   1.911  -0.291  0.00  0.00    +0.001 A 
ATOM      8  C   UNL     1       2.220   1.280  -0.065  0.00  0.00    +0.010 A 
ATOM      9  C   UNL     1       2.408  -0.034  -0.497  0.00  0.00    +0.002 A 
ATOM     10  C   UNL     1       1.373  -0.700  -1.155  0.00  0.00    +0.010 A 
ATOM     11  C   UNL     1       0.172  -0.057  -1.375  0.00  0.00    +0.001 A 
ENDBRANCH   1   9
BRANCH   5  12
ATOM     12  C   UNL     1       2.753  -3.131   0.186  0.00  0.00    +0.002 A 
ATOM     13  C   UNL     1       2.927  -4.448  -0.241  0.00  0.00    +0.010 A 
ATOM     14  C   UNL     1       1.892  -5.353  -0.119  0.00  0.00    +0.001 A 
ATOM     15  C   UNL     1       0.684  -4.956   0.425  0.00  0.00    +0.000 A 
ATOM     16  C   UNL     1       0.504  -3.651   0.850  0.00  0.00    +0.001 A 
ATOM     17  C   UNL     1       1.533  -2.739   0.739  0.00  0.00    +0.010 A 
ENDBRANCH   5  12
BRANCH   3  18
ATOM     18  C   UNL     1       6.812  -1.328  -1.164  0.00  0.00    +0.040 A 
ATOM     19  C   UNL     1       7.016  -0.268  -2.027  0.00  0.00    +0.011 A 
ATOM     20  C   UNL     1       7.883  -0.401  -3.095  0.00  0.00    +0.001 A 
ATOM     21  C   UNL     1       8.549  -1.595  -3.303  0.00  0.00    +0.004 A 
ATOM     22  C   UNL     1       8.349  -2.657  -2.444  0.00  0.00    +0.046 A 
ATOM     23  C   UNL     1       7.484  -2.524  -1.368  0.00  0.00    +0.124 A 
BRANCH  23  24
ATOM     24  O   UNL     1       7.289  -3.567  -0.518  0.00  0.00    -0.506 OA
ATOM     25  H   UNL     1       6.567  -4.156  -0.776  0.00  0.00    +0.292 HD
ENDBRANCH  23  24
ENDBRANCH   3  18
TORSDOF 4
