REMARK  Name = ZINC67320925
REMARK  5 active torsions:
REMARK  status: ('A' for Active; 'I' for Inactive)
REMARK    1  A    between atoms: C_1  and  C_2
REMARK    2  A    between atoms: C_20  and  C_32
REMARK    3  A    between atoms: C_22  and  C_24
REMARK    4  A    between atoms: C_29  and  O_30
REMARK    5  A    between atoms: O_30  and  C_31
REMARK                            x       y       z     vdW  Elec       q    Type
REMARK                         _______ _______ _______ _____ _____    ______ ____
ROOT
ATOM      1  C   UNL     1       0.370   1.681   0.294  0.00  0.00    +0.009 C 
ATOM      2  C   UNL     1       0.174   0.166   0.207  0.00  0.00    +0.003 C 
ATOM      3  C   UNL     1       0.680  -0.338  -1.147  0.00  0.00    +0.006 C 
ATOM      4  C   UNL     1       0.454  -1.848  -1.249  0.00  0.00    +0.019 C 
ATOM      5  C   UNL     1       1.246  -2.554  -0.144  0.00  0.00    +0.108 C 
ATOM      6  N   UNL     1       0.869  -1.973   1.153  0.00  0.00    -0.301 N 
ATOM      7  C   UNL     1       0.962  -0.518   1.329  0.00  0.00    +0.111 C 
ATOM      8  C   UNL     1       0.440  -2.774   2.177  0.00  0.00    +0.200 A 
ATOM      9  N   UNL     1       0.479  -4.126   2.026  0.00  0.00    -0.295 N 
ATOM     10  H   UNL     1       0.796  -4.511   1.194  0.00  0.00    +0.172 HD
ATOM     11  C   UNL     1       0.076  -4.931   3.033  0.00  0.00    +0.258 A 
ATOM     12  O   UNL     1       0.122  -6.145   2.916  0.00  0.00    -0.267 OA
ATOM     13  C   UNL     1      -0.393  -4.344   4.213  0.00  0.00    +0.066 A 
ATOM     14  C   UNL     1      -0.433  -2.965   4.310  0.00  0.00    +0.138 A 
ATOM     15  N   UNL     1       0.004  -2.218   3.288  0.00  0.00    -0.200 NA
ATOM     16  N   UNL     1      -0.933  -2.360   5.449  0.00  0.00    -0.269 N 
ATOM     17  C   UNL     1      -1.621  -3.067   6.362  0.00  0.00    +0.236 C 
ATOM     18  O   UNL     1      -1.956  -2.540   7.401  0.00  0.00    -0.274 OA
ATOM     19  C   UNL     1      -1.981  -4.508   6.109  0.00  0.00    +0.189 C 
ATOM     20  C   UNL     1      -0.839  -5.202   5.365  0.00  0.00    +0.087 C 
ATOM     21  H   UNL     1      -0.786  -1.412   5.591  0.00  0.00    +0.156 HD
ENDROOT
BRANCH  20  22
ATOM     22  C   UNL     1       0.316  -5.417   6.309  0.00  0.00    +0.004 A 
ATOM     23  C   UNL     1       0.920  -4.334   6.919  0.00  0.00    +0.008 A 
ATOM     24  C   UNL     1       1.981  -4.530   7.784  0.00  0.00    +0.001 A 
ATOM     25  C   UNL     1       2.439  -5.809   8.041  0.00  0.00    +0.004 A 
ATOM     26  C   UNL     1       1.839  -6.894   7.434  0.00  0.00    +0.046 A 
ATOM     27  C   UNL     1       0.770  -6.701   6.569  0.00  0.00    +0.124 A 
BRANCH  27  28
ATOM     28  O   UNL     1       0.174  -7.768   5.975  0.00  0.00    -0.495 OA
ATOM     29  C   UNL     1       0.694  -9.061   6.290  0.00  0.00    +0.277 C 
ENDBRANCH  27  28
ENDBRANCH  20  22
BRANCH  19  30
ATOM     30  C   UNL     1      -2.213  -5.187   7.394  0.00  0.00    +0.076 C 
ATOM     31  N   UNL     1      -2.391  -5.712   8.386  0.00  0.00    -0.196 NA
ENDBRANCH  19  30
TORSDOF 3
