REMARK  Name = ZINC40915216
REMARK  9 active torsions:
REMARK  status: ('A' for Active; 'I' for Inactive)
REMARK    1  A    between atoms: C_1  and  C_2
REMARK    2  A    between atoms: C_2  and  O_3
REMARK    3  A    between atoms: O_3  and  C_4
REMARK    4  A    between atoms: C_6  and  C_19
REMARK    5  A    between atoms: C_9  and  O_10
REMARK    6  A    between atoms: O_10  and  C_11
REMARK    7  A    between atoms: C_11  and  C_12
REMARK    8  A    between atoms: C_21  and  C_30
REMARK    9  A    between atoms: C_22  and  C_29
REMARK                            x       y       z     vdW  Elec       q    Type
REMARK                         _______ _______ _______ _____ _____    ______ ____
ROOT
ATOM      1  C   UNL     1       0.752  -1.729  -1.085  0.00  0.00    +0.162 A 
ATOM      2  C   UNL     1       0.136  -2.640  -0.243  0.00  0.00    +0.055 A 
ATOM      3  C   UNL     1       0.334  -3.996  -0.428  0.00  0.00    -0.015 A 
ATOM      4  C   UNL     1       1.146  -4.446  -1.452  0.00  0.00    +0.010 A 
ATOM      5  C   UNL     1       1.765  -3.541  -2.295  0.00  0.00    +0.050 A 
ATOM      6  C   UNL     1       1.566  -2.182  -2.119  0.00  0.00    +0.162 A 
ENDROOT
BRANCH   3   7
ATOM      7  C   UNL     1      -0.338  -4.986   0.489  0.00  0.00    +0.177 C 
ATOM      8  C   UNL     1       0.709  -5.812   1.188  0.00  0.00    +0.060 C 
ATOM      9  C   UNL     1       0.939  -7.100   0.898  0.00  0.00    +0.018 C 
ATOM     10  N   UNL     1       0.224  -7.774  -0.061  0.00  0.00    -0.287 N 
ATOM     11  C   UNL     1      -0.926  -7.165  -0.545  0.00  0.00    +0.218 A 
ATOM     12  N   UNL     1      -1.206  -5.862  -0.293  0.00  0.00    -0.221 N 
ATOM     13  N   UNL     1      -2.423  -5.590  -0.915  0.00  0.00    -0.156 NA
ATOM     14  C   UNL     1      -2.806  -6.700  -1.498  0.00  0.00    +0.247 A 
ATOM     15  N   UNL     1      -1.894  -7.652  -1.272  0.00  0.00    -0.201 NA
ATOM     16  C   UNL     1       2.020  -7.834   1.650  0.00  0.00    +0.061 C 
ATOM     17  H   UNL     1       0.510  -8.642  -0.387  0.00  0.00    +0.155 HD
BRANCH   8  18
ATOM     18  C   UNL     1       1.486  -5.199   2.200  0.00  0.00    +0.241 C 
ATOM     19  O   UNL     1       1.036  -5.080   3.325  0.00  0.00    -0.271 OA
ATOM     20  N   UNL     1       2.724  -4.747   1.917  0.00  0.00    -0.325 N 
ATOM     21  H   UNL     1       3.082  -4.842   1.021  0.00  0.00    +0.145 HD
ATOM     22  H   UNL     1       3.256  -4.327   2.611  0.00  0.00    +0.145 HD
ENDBRANCH   8  18
ENDBRANCH   3   7
BRANCH   1  23
ATOM     23  O   UNL     1       0.558  -0.395  -0.904  0.00  0.00    -0.489 OA
BRANCH  23  25
ATOM     24  C   UNL     1      -0.387   1.523   0.223  0.00  0.00    +0.048 C 
ATOM     25  C   UNL     1      -0.289  -0.003   0.178  0.00  0.00    +0.226 C 
ENDBRANCH  23  25
ENDBRANCH   1  23
BRANCH   6  26
ATOM     26  O   UNL     1       2.168  -1.291  -2.951  0.00  0.00    -0.484 OA
BRANCH  26  27
ATOM     27  C   UNL     1       2.989  -1.827  -3.991  0.00  0.00    +0.264 C 
BRANCH  27  28
ATOM     28  C   UNL     1       3.569  -0.700  -4.806  0.00  0.00    -0.010 A 
ATOM     29  C   UNL     1       2.883  -0.218  -5.905  0.00  0.00    +0.008 A 
ATOM     30  C   UNL     1       3.414   0.816  -6.652  0.00  0.00    +0.015 A 
ATOM     31  C   UNL     1       4.632   1.369  -6.300  0.00  0.00    +0.018 A 
ATOM     32  C   UNL     1       5.318   0.887  -5.200  0.00  0.00    +0.015 A 
ATOM     33  C   UNL     1       4.784  -0.144  -4.450  0.00  0.00    +0.008 A 
ATOM     34 BR   UNL     1       5.359   2.784  -7.322  0.00  0.00    -0.050 Br
ENDBRANCH  27  28
ENDBRANCH  26  27
ENDBRANCH   6  26
TORSDOF 7
