REMARK  Name = ZINC17022864
REMARK  3 active torsions:
REMARK  status: ('A' for Active; 'I' for Inactive)
REMARK    1  A    between atoms: C_9  and  C_12
REMARK    2  A    between atoms: C_10  and  O_11
REMARK    3  A    between atoms: N_14  and  N_15
REMARK                            x       y       z     vdW  Elec       q    Type
REMARK                         _______ _______ _______ _____ _____    ______ ____
ROOT
ATOM      1  C   UNL     1       1.611  -8.550  -7.237  0.00  0.00    +0.001 A 
ATOM      2  C   UNL     1       2.584  -9.042  -6.370  0.00  0.00    +0.001 A 
ATOM      3  C   UNL     1       2.926  -8.359  -5.243  0.00  0.00    +0.012 A 
ATOM      4  C   UNL     1       2.291  -7.141  -4.948  0.00  0.00    +0.024 A 
ATOM      5  C   UNL     1       1.302  -6.641  -5.829  0.00  0.00    -0.014 A 
ATOM      6  C   UNL     1       0.975  -7.373  -6.982  0.00  0.00    +0.008 A 
ATOM      7  C   UNL     1       0.660  -5.420  -5.540  0.00  0.00    +0.009 A 
ATOM      8  C   UNL     1       0.984  -4.729  -4.419  0.00  0.00    +0.017 A 
ATOM      9  C   UNL     1       1.968  -5.206  -3.533  0.00  0.00    +0.080 A 
ATOM     10  C   UNL     1       2.622  -6.410  -3.789  0.00  0.00    +0.137 A 
ENDROOT
BRANCH   9  11
ATOM     11  C   UNL     1       2.303  -4.433  -2.326  0.00  0.00    +0.267 C 
ATOM     12  O   UNL     1       3.150  -4.845  -1.555  0.00  0.00    -0.268 OA
ATOM     13  N   UNL     1       1.673  -3.268  -2.074  0.00  0.00    -0.203 N 
ATOM     14  H   UNL     1       0.998  -2.940  -2.689  0.00  0.00    +0.178 HD
BRANCH  13  15
ATOM     15  N   UNL     1       1.992  -2.532  -0.926  0.00  0.00    -0.189 NA
ATOM     16  C   UNL     1       1.394  -1.426  -0.687  0.00  0.00    +0.041 C 
ATOM     17  C   UNL     1       0.323  -0.607  -1.376  0.00  0.00    +0.061 C 
ATOM     18  C   UNL     1       0.002  -0.004   0.002  0.00  0.00    +0.026 C 
ATOM     19  C   UNL     1       1.454  -0.379   0.404  0.00  0.00    +0.046 C 
ATOM     20  C   UNL     1       2.224   0.893  -0.015  0.00  0.00    +0.037 C 
ATOM     21  C   UNL     1       1.191   1.995   0.001  0.00  0.00    -0.030 C 
ATOM     22  C   UNL     1      -0.018   1.506   0.010  0.00  0.00    -0.027 C 
ENDBRANCH  13  15
ENDBRANCH   9  11
BRANCH  10  23
ATOM     23  O   UNL     1       3.565  -6.872  -2.933  0.00  0.00    -0.505 OA
ATOM     24  H   UNL     1       3.216  -7.441  -2.233  0.00  0.00    +0.292 HD
ENDBRANCH  10  23
TORSDOF 3
