REMARK  Name = ZINC25499806
REMARK  7 active torsions:
REMARK  status: ('A' for Active; 'I' for Inactive)
REMARK    1  A    between atoms: C_1  and  C_2
REMARK    2  A    between atoms: C_3  and  C_22
REMARK    3  A    between atoms: N_8  and  C_9
REMARK    4  A    between atoms: C_12  and  C_15
REMARK    5  A    between atoms: C_22  and  C_23
REMARK    6  A    between atoms: C_25  and  N_30
REMARK    7  A    between atoms: C_28  and  O_29
REMARK                            x       y       z     vdW  Elec       q    Type
REMARK                         _______ _______ _______ _____ _____    ______ ____
ROOT
ATOM      1  C   UNL     1       0.015   1.444  -0.892  0.00  0.00    +0.066 C 
ATOM      2  C   UNL     1      -0.076  -0.042  -0.662  0.00  0.00    +0.050 A 
ATOM      3  C   UNL     1      -1.294  -0.631  -0.485  0.00  0.00    +0.042 A 
ATOM      4  C   UNL     1      -1.353  -2.020  -0.272  0.00  0.00    +0.256 A 
ATOM      5  N   UNL     1      -0.200  -2.723  -0.250  0.00  0.00    -0.295 N 
ATOM      6  C   UNL     1       0.986  -2.080  -0.432  0.00  0.00    +0.200 A 
ATOM      7  N   UNL     1       1.032  -0.779  -0.637  0.00  0.00    -0.221 NA
ATOM      8  N   UNL     1       2.152  -2.800  -0.409  0.00  0.00    -0.285 N 
ATOM      9  O   UNL     1      -2.425  -2.579  -0.110  0.00  0.00    -0.267 OA
ATOM     10  H   UNL     1       2.124  -3.767  -0.333  0.00  0.00    +0.155 HD
ATOM     11  H   UNL     1      -0.217  -3.681  -0.104  0.00  0.00    +0.172 HD
ENDROOT
BRANCH   8  12
ATOM     12  C   UNL     1       3.382  -2.142  -0.493  0.00  0.00    +0.034 A 
ATOM     13  C   UNL     1       3.544  -0.895   0.100  0.00  0.00    +0.024 A 
ATOM     14  C   UNL     1       4.756  -0.243   0.018  0.00  0.00    +0.010 A 
ATOM     15  C   UNL     1       5.820  -0.836  -0.661  0.00  0.00    -0.018 A 
ATOM     16  C   UNL     1       5.655  -2.086  -1.255  0.00  0.00    +0.010 A 
ATOM     17  C   UNL     1       4.443  -2.736  -1.166  0.00  0.00    +0.024 A 
BRANCH  15  18
ATOM     18  C   UNL     1       7.125  -0.137  -0.750  0.00  0.00    -0.018 A 
ATOM     19  C   UNL     1       7.293   1.111  -0.153  0.00  0.00    +0.008 A 
ATOM     20  C   UNL     1       8.509   1.757  -0.239  0.00  0.00    +0.001 A 
ATOM     21  C   UNL     1       9.561   1.168  -0.918  0.00  0.00    +0.000 A 
ATOM     22  C   UNL     1       9.400  -0.070  -1.513  0.00  0.00    +0.001 A 
ATOM     23  C   UNL     1       8.190  -0.728  -1.428  0.00  0.00    +0.008 A 
ENDBRANCH  15  18
ENDBRANCH   8  12
BRANCH   3  24
ATOM     24  C   UNL     1      -2.555   0.193  -0.517  0.00  0.00    +0.081 C 
BRANCH  24  25
ATOM     25  C   UNL     1      -3.130   0.177  -1.910  0.00  0.00    +0.001 A 
ATOM     26  C   UNL     1      -2.795   1.173  -2.807  0.00  0.00    +0.040 A 
ATOM     27  C   UNL     1      -3.322   1.159  -4.085  0.00  0.00    +0.127 A 
ATOM     28  C   UNL     1      -4.186   0.150  -4.469  0.00  0.00    +0.036 A 
ATOM     29  C   UNL     1      -4.524  -0.848  -3.576  0.00  0.00    +0.048 A 
ATOM     30  C   UNL     1      -3.992  -0.840  -2.294  0.00  0.00    +0.120 A 
BRANCH  27  31
ATOM     31  N   UNL     1      -2.962   2.228  -5.044  0.00  0.00    +0.056 N 
ATOM     32  O   UNL     1      -2.208   3.111  -4.710  0.00  0.00    -0.126 OA
ATOM     33  O   UNL     1      -3.422   2.217  -6.162  0.00  0.00    -0.126 OA
ENDBRANCH  27  31
BRANCH  30  34
ATOM     34  O   UNL     1      -4.319  -1.823  -1.415  0.00  0.00    -0.506 OA
ATOM     35  H   UNL     1      -5.144  -1.665  -0.937  0.00  0.00    +0.292 HD
ENDBRANCH  30  34
ENDBRANCH  24  25
ENDBRANCH   3  24
TORSDOF 6
