REMARK  Name = ZINC13774178
REMARK  2 active torsions:
REMARK  status: ('A' for Active; 'I' for Inactive)
REMARK    1  A    between atoms: C_10  and  N_11
REMARK    2  A    between atoms: C_13  and  C_14
REMARK                            x       y       z     vdW  Elec       q    Type
REMARK                         _______ _______ _______ _____ _____    ______ ____
ROOT
ATOM      1  N   UNL     1       3.270  -0.064   0.463  0.00  0.00    -0.223 N 
ATOM      2  C   UNL     1       4.298   0.606   1.041  0.00  0.00    +0.102 C 
ATOM      3  C   UNL     1       4.724   0.214   2.334  0.00  0.00    +0.053 C 
ATOM      4  N   UNL     1       4.929   1.628   0.435  0.00  0.00    -0.302 N 
ATOM      5  C   UNL     1       4.548   2.045  -0.827  0.00  0.00    +0.044 A 
ATOM      6  C   UNL     1       5.189   3.098  -1.466  0.00  0.00    +0.024 A 
ATOM      7  C   UNL     1       4.780   3.485  -2.726  0.00  0.00    +0.002 A 
ATOM      8  C   UNL     1       3.733   2.834  -3.361  0.00  0.00    +0.001 A 
ATOM      9  C   UNL     1       3.084   1.786  -2.743  0.00  0.00    +0.015 A 
ATOM     10  C   UNL     1       3.486   1.384  -1.471  0.00  0.00    +0.059 A 
ATOM     11  C   UNL     1       2.829   0.267  -0.770  0.00  0.00    +0.258 C 
ATOM     12  O   UNL     1       1.911  -0.339  -1.287  0.00  0.00    -0.269 OA
ATOM     13  H   UNL     1       5.660   2.076   0.889  0.00  0.00    +0.153 HD
ENDROOT
BRANCH   3  14
ATOM     14  C   UNL     1       4.587  -1.081   2.732  0.00  0.00    +0.049 C 
ATOM     15  C   UNL     1       3.832  -1.600   3.890  0.00  0.00    +0.008 A 
ATOM     16  C   UNL     1       3.067  -1.002   4.884  0.00  0.00    +0.010 A 
ATOM     17  C   UNL     1       2.471  -1.785   5.855  0.00  0.00    +0.001 A 
ATOM     18  C   UNL     1       2.635  -3.160   5.839  0.00  0.00    +0.002 A 
ATOM     19  C   UNL     1       3.392  -3.771   4.859  0.00  0.00    +0.024 A 
ATOM     20  C   UNL     1       4.004  -3.002   3.865  0.00  0.00    +0.042 A 
ATOM     21  N   UNL     1       4.785  -3.347   2.807  0.00  0.00    -0.281 N 
ATOM     22  C   UNL     1       5.163  -2.304   2.094  0.00  0.00    +0.249 C 
ATOM     23  O   UNL     1       5.861  -2.331   1.093  0.00  0.00    -0.270 OA
ATOM     24  H   UNL     1       5.034  -4.261   2.597  0.00  0.00    +0.155 HD
ENDBRANCH   3  14
BRANCH   1  34
ATOM     25  C   UNL     1      -0.119  -0.380   4.190  0.00  0.00    +0.001 A 
ATOM     26  C   UNL     1       0.477   0.684   3.516  0.00  0.00    +0.001 A 
ATOM     27  C   UNL     1       1.384   0.466   2.524  0.00  0.00    +0.010 A 
ATOM     28  C   UNL     1       1.726  -0.849   2.173  0.00  0.00    +0.004 A 
ATOM     29  C   UNL     1       1.121  -1.932   2.857  0.00  0.00    -0.016 A 
ATOM     30  C   UNL     1       0.189  -1.669   3.876  0.00  0.00    +0.008 A 
ATOM     31  C   UNL     1       1.464  -3.250   2.507  0.00  0.00    +0.008 A 
ATOM     32  C   UNL     1       2.371  -3.477   1.517  0.00  0.00    +0.002 A 
ATOM     33  C   UNL     1       2.972  -2.422   0.838  0.00  0.00    +0.024 A 
ATOM     34  C   UNL     1       2.663  -1.114   1.151  0.00  0.00    +0.050 A 
ENDBRANCH   1  34
TORSDOF 2
