REMARK  Name = ZINC40170754
REMARK  12 active torsions:
REMARK  status: ('A' for Active; 'I' for Inactive)
REMARK    1  A    between atoms: C_1  and  C_2
REMARK    2  A    between atoms: C_2  and  O_3
REMARK    3  A    between atoms: O_3  and  C_4
REMARK    4  A    between atoms: C_4  and  C_6
REMARK    5  A    between atoms: C_10  and  N_11
REMARK    6  A    between atoms: C_12  and  C_14
REMARK    7  A    between atoms: C_14  and  C_16
REMARK    8  A    between atoms: C_14  and  S_17
REMARK    9  A    between atoms: S_17  and  C_18
REMARK   10  A    between atoms: C_24  and  C_33
REMARK   11  A    between atoms: C_26  and  C_32
REMARK   12  A    between atoms: C_29  and  C_31
REMARK                            x       y       z     vdW  Elec       q    Type
REMARK                         _______ _______ _______ _____ _____    ______ ____
ROOT
ATOM      1  C   UNL     1      -4.093  -2.859   4.563  0.00  0.00    +0.137 C 
ATOM      2  C   UNL     1      -4.636  -1.463   4.878  0.00  0.00    +0.029 C 
ENDROOT
BRANCH   1   4
ATOM      3  N   UNL     1      -3.902  -2.919   2.097  0.00  0.00    -0.278 N 
ATOM      4  C   UNL     1      -4.578  -3.290   3.203  0.00  0.00    +0.231 C 
ATOM      5  O   UNL     1      -5.576  -3.972   3.103  0.00  0.00    -0.274 OA
ATOM      6  H   UNL     1      -3.104  -2.374   2.177  0.00  0.00    +0.155 HD
BRANCH   3  11
ATOM      7  C   UNL     1      -3.786  -3.031  -0.389  0.00  0.00    +0.091 A 
ATOM      8  C   UNL     1      -4.449  -3.577  -1.561  0.00  0.00    -0.021 A 
ATOM      9  C   UNL     1      -5.554  -4.301  -1.284  0.00  0.00    -0.004 A 
ATOM     10  S   UNL     1      -5.694  -4.250   0.478  0.00  0.00    -0.077 S 
ATOM     11  C   UNL     1      -4.348  -3.316   0.846  0.00  0.00    +0.086 A 
ATOM     12  C   UNL     1      -6.450  -4.987  -2.268  0.00  0.00    +0.043 C 
ATOM     13  C   UNL     1      -6.143  -4.434  -3.668  0.00  0.00    +0.005 C 
ATOM     14  C   UNL     1      -4.626  -4.438  -3.880  0.00  0.00    +0.005 C 
ATOM     15  C   UNL     1      -3.973  -3.376  -2.993  0.00  0.00    +0.037 C 
BRANCH   7  16
ATOM     16  C   UNL     1      -2.572  -2.220  -0.507  0.00  0.00    +0.342 C 
ATOM     17  O   UNL     1      -1.480  -2.755  -0.488  0.00  0.00    -0.245 OA
BRANCH  16  18
ATOM     18  O   UNL     1      -2.666  -0.881  -0.636  0.00  0.00    -0.461 OA
BRANCH  18  20
ATOM     19  C   UNL     1      -1.747   1.340  -0.884  0.00  0.00    +0.048 C 
ATOM     20  C   UNL     1      -1.441  -0.153  -0.746  0.00  0.00    +0.229 C 
ENDBRANCH  18  20
ENDBRANCH  16  18
ENDBRANCH   7  16
ENDBRANCH   3  11
ENDBRANCH   1   4
BRANCH   1  21
ATOM     21  S   UNL     1      -4.681  -4.033   5.815  0.00  0.00    -0.073 S 
BRANCH  21  22
ATOM     22  C   UNL     1      -3.919  -3.483   7.306  0.00  0.00    +0.197 A 
ATOM     23  N   UNL     1      -3.093  -2.457   7.389  0.00  0.00    -0.122 NA
ATOM     24  N   UNL     1      -2.795  -2.232   8.615  0.00  0.00    -0.129 NA
ATOM     25  C   UNL     1      -3.451  -3.077   9.386  0.00  0.00    +0.162 A 
ATOM     26  N   UNL     1      -4.029  -4.019   8.552  0.00  0.00    -0.270 N 
ATOM     27  C   UNL     1      -4.513  -5.194   9.097  0.00  0.00    +0.061 A 
ATOM     28  C   UNL     1      -4.616  -6.385   8.397  0.00  0.00    -0.026 A 
ATOM     29  C   UNL     1      -5.312  -7.453   8.934  0.00  0.00    +0.008 A 
ATOM     30  C   UNL     1      -5.825  -7.389  10.218  0.00  0.00    -0.050 A 
ATOM     31  C   UNL     1      -5.573  -6.283  11.000  0.00  0.00    +0.013 A 
ATOM     32  C   UNL     1      -4.846  -5.215  10.472  0.00  0.00    +0.002 A 
ATOM     33  C   UNL     1      -4.345  -4.144  11.338  0.00  0.00    -0.038 A 
ATOM     34  C   UNL     1      -3.630  -3.139  10.785  0.00  0.00    +0.052 A 
ATOM     35  C   UNL     1      -4.611  -4.147  12.821  0.00  0.00    +0.044 C 
ATOM     36  C   UNL     1      -6.653  -8.523  10.761  0.00  0.00    +0.044 C 
ATOM     37  C   UNL     1      -3.912  -6.597   7.081  0.00  0.00    +0.046 C 
ENDBRANCH  21  22
ENDBRANCH   1  21
TORSDOF 7
