REMARK  Name = ZINC02865199
REMARK  9 active torsions:
REMARK  status: ('A' for Active; 'I' for Inactive)
REMARK    1  A    between atoms: C_1  and  C_2
REMARK    2  A    between atoms: C_2  and  C_30
REMARK    3  A    between atoms: C_9  and  N_15
REMARK    4  A    between atoms: C_11  and  S_13
REMARK    5  A    between atoms: S_13  and  C_14
REMARK    6  A    between atoms: N_15  and  N_16
REMARK    7  A    between atoms: N_16  and  C_17
REMARK    8  A    between atoms: C_17  and  N_19
REMARK    9  A    between atoms: C_20  and  C_22
REMARK                            x       y       z     vdW  Elec       q    Type
REMARK                         _______ _______ _______ _____ _____    ______ ____
ROOT
ATOM      1  C   UNL     1       0.094  -6.697  -1.194  0.00  0.00    +0.041 C 
ATOM      2  C   UNL     1      -0.375  -6.552   0.256  0.00  0.00    +0.068 C 
ATOM      3  C   UNL     1      -0.949  -5.148   0.466  0.00  0.00    +0.071 C 
ATOM      4  C   UNL     1       0.206  -4.151   0.406  0.00  0.00    -0.020 A 
ATOM      5  C   UNL     1       1.474  -4.590   0.556  0.00  0.00    +0.021 A 
ATOM      6  S   UNL     1       2.484  -3.142   0.421  0.00  0.00    -0.071 S 
ATOM      7  C   UNL     1       1.200  -1.945   0.163  0.00  0.00    +0.115 A 
ATOM      8  C   UNL     1       0.020  -2.717   0.190  0.00  0.00    +0.052 A 
ATOM      9  C   UNL     1      -1.191  -1.993   0.004  0.00  0.00    +0.148 A 
ATOM     10  N   UNL     1      -1.141  -0.683  -0.173  0.00  0.00    -0.205 NA
ATOM     11  C   UNL     1       0.008  -0.017  -0.193  0.00  0.00    +0.191 A 
ATOM     12  N   UNL     1       1.167  -0.640  -0.024  0.00  0.00    -0.215 NA
ATOM     13  C   UNL     1       1.899  -6.008   0.786  0.00  0.00    +0.203 C 
ATOM     14  O   UNL     1       0.732  -6.768   1.136  0.00  0.00    -0.368 OA
ATOM     15  C   UNL     1      -1.462  -7.589   0.543  0.00  0.00    +0.041 C 
ENDROOT
BRANCH  11  16
ATOM     16  S   UNL     1      -0.009   1.727  -0.441  0.00  0.00    -0.089 S 
ATOM     17  C   UNL     1       1.767   2.072  -0.365  0.00  0.00    +0.093 C 
ENDBRANCH  11  16
BRANCH   9  18
ATOM     18  N   UNL     1      -2.407  -2.651   0.013  0.00  0.00    -0.249 N 
ATOM     19  H   UNL     1      -2.468  -3.553   0.364  0.00  0.00    +0.172 HD
BRANCH  18  20
ATOM     20  N   UNL     1      -3.552  -2.014  -0.485  0.00  0.00    -0.246 N 
ATOM     21  H   UNL     1      -3.491  -1.112  -0.836  0.00  0.00    +0.172 HD
BRANCH  20  22
ATOM     22  C   UNL     1      -4.737  -2.655  -0.477  0.00  0.00    +0.153 C 
ATOM     23  S   UNL     1      -6.135  -1.877  -1.085  0.00  0.00    -0.017 S 
BRANCH  22  24
ATOM     24  N   UNL     1      -4.822  -3.909   0.011  0.00  0.00    -0.263 N 
ATOM     25  C   UNL     1      -6.007  -4.550   0.019  0.00  0.00    +0.250 C 
ATOM     26  O   UNL     1      -7.000  -3.998  -0.413  0.00  0.00    -0.270 OA
ATOM     27  H   UNL     1      -4.029  -4.350   0.355  0.00  0.00    +0.157 HD
BRANCH  25  28
ATOM     28  C   UNL     1      -6.100  -5.925   0.554  0.00  0.00    +0.037 A 
ATOM     29  C   UNL     1      -4.960  -6.564   1.046  0.00  0.00    +0.013 A 
ATOM     30  C   UNL     1      -5.055  -7.846   1.547  0.00  0.00    +0.001 A 
ATOM     31  C   UNL     1      -6.273  -8.501   1.555  0.00  0.00    +0.000 A 
ATOM     32  C   UNL     1      -7.405  -7.875   1.064  0.00  0.00    +0.001 A 
ATOM     33  C   UNL     1      -7.326  -6.592   0.564  0.00  0.00    +0.013 A 
ENDBRANCH  25  28
ENDBRANCH  22  24
ENDBRANCH  20  22
ENDBRANCH  18  20
ENDBRANCH   9  18
TORSDOF 6
