REMARK  Name = ZINC12411402
REMARK  7 active torsions:
REMARK  status: ('A' for Active; 'I' for Inactive)
REMARK    1  A    between atoms: C_1  and  C_2
REMARK    2  A    between atoms: C_2  and  C_3
REMARK    3  A    between atoms: C_3  and  S_4
REMARK    4  A    between atoms: S_4  and  C_5
REMARK    5  A    between atoms: C_23  and  C_28
REMARK    6  A    between atoms: C_30  and  C_33
REMARK    7  A    between atoms: C_31  and  N_32
REMARK                            x       y       z     vdW  Elec       q    Type
REMARK                         _______ _______ _______ _____ _____    ______ ____
ROOT
ATOM      1  C   UNL     1       1.998   1.722   0.409  0.00  0.00    +0.160 A 
ATOM      2  N   UNL     1       1.584   1.387  -0.805  0.00  0.00    -0.133 NA
ATOM      3  N   UNL     1       0.638   0.572  -0.985  0.00  0.00    -0.124 NA
ATOM      4  C   UNL     1       0.002   0.001   0.024  0.00  0.00    +0.194 A 
ATOM      5  S   UNL     1       0.881   0.734   1.401  0.00  0.00    -0.024 S 
ATOM      6  N   UNL     1      -1.051  -0.911   0.018  0.00  0.00    -0.237 N 
ATOM      7  C   UNL     1      -0.789  -2.251  -0.101  0.00  0.00    +0.027 C 
ATOM      8  C   UNL     1      -1.705  -3.166   0.287  0.00  0.00    +0.037 C 
ATOM      9  C   UNL     1      -1.445  -4.543   0.174  0.00  0.00    +0.162 C 
ATOM     10  O   UNL     1      -2.295  -5.341   0.517  0.00  0.00    -0.292 OA
ATOM     11  C   UNL     1      -0.133  -5.046  -0.364  0.00  0.00    +0.080 C 
ATOM     12  C   UNL     1       0.959  -4.016  -0.056  0.00  0.00    +0.014 C 
ATOM     13  C   UNL     1       0.544  -2.675  -0.663  0.00  0.00    +0.052 C 
ATOM     14  C   UNL     1      -3.034  -2.736   0.850  0.00  0.00    +0.141 C 
ATOM     15  C   UNL     1      -3.075  -2.962   2.330  0.00  0.00    -0.001 A 
ATOM     16  C   UNL     1      -2.325  -2.427   3.356  0.00  0.00    +0.008 A 
ATOM     17  C   UNL     1      -2.624  -2.857   4.645  0.00  0.00    +0.021 A 
ATOM     18  C   UNL     1      -3.627  -3.776   4.884  0.00  0.00    +0.046 A 
ATOM     19  C   UNL     1      -4.386  -4.315   3.856  0.00  0.00    -0.011 A 
ATOM     20  C   UNL     1      -4.095  -3.893   2.557  0.00  0.00    +0.043 A 
ATOM     21  N   UNL     1      -4.685  -4.262   1.361  0.00  0.00    -0.284 N 
ATOM     22  C   UNL     1      -4.128  -3.633   0.306  0.00  0.00    +0.238 C 
ATOM     23  O   UNL     1      -4.444  -3.760  -0.858  0.00  0.00    -0.274 OA
ATOM     24  C   UNL     1      -5.479  -5.315   4.129  0.00  0.00    +0.047 C 
ATOM     25 CL   UNL     1      -3.946  -4.269   6.517  0.00  0.00    -0.083 Cl
ATOM     26  C   UNL     1      -3.333  -1.304   0.522  0.00  0.00    +0.089 C 
ATOM     27  C   UNL     1      -2.347  -0.458   0.126  0.00  0.00    +0.109 C 
ATOM     28  H   UNL     1      -5.413  -4.899   1.290  0.00  0.00    +0.155 HD
ENDROOT
BRANCH  27  29
ATOM     29  N   UNL     1      -2.642   0.853  -0.166  0.00  0.00    -0.345 N 
ATOM     30  H   UNL     1      -1.956   1.436  -0.524  0.00  0.00    +0.144 HD
ATOM     31  H   UNL     1      -3.538   1.193  -0.013  0.00  0.00    +0.144 HD
ENDBRANCH  27  29
BRANCH  26  32
ATOM     32  C   UNL     1      -4.678  -0.822   0.627  0.00  0.00    +0.100 C 
ATOM     33  N   UNL     1      -5.744  -0.440   0.710  0.00  0.00    -0.191 NA
ENDBRANCH  26  32
BRANCH   1  34
ATOM     34  S   UNL     1       3.281   2.823   0.905  0.00  0.00    -0.097 S 
BRANCH  34  35
ATOM     35  C   UNL     1       3.958   3.441  -0.660  0.00  0.00    +0.076 C 
BRANCH  35  37
ATOM     36  C   UNL     1       5.668   4.942  -1.692  0.00  0.00    +0.004 C 
ATOM     37  C   UNL     1       5.097   4.421  -0.371  0.00  0.00    +0.008 C 
ENDBRANCH  35  37
ENDBRANCH  34  35
ENDBRANCH   1  34
TORSDOF 5
