REMARK  Name = ZINC13521815
REMARK  9 active torsions:
REMARK  status: ('A' for Active; 'I' for Inactive)
REMARK    1  A    between atoms: C_1  and  C_2
REMARK    2  A    between atoms: C_5  and  S_8
REMARK    3  A    between atoms: S_8  and  C_11
REMARK    4  A    between atoms: C_17  and  O_33
REMARK    5  A    between atoms: N_21  and  N_22
REMARK    6  A    between atoms: N_22  and  S_23
REMARK    7  A    between atoms: S_23  and  C_26
REMARK    8  A    between atoms: C_29  and  C_32
REMARK    9  A    between atoms: O_33  and  C_34
REMARK                            x       y       z     vdW  Elec       q    Type
REMARK                         _______ _______ _______ _____ _____    ______ ____
ROOT
ATOM      1  C   UNL     1       1.752  -5.029  -0.035  0.00  0.00    +0.155 A 
ATOM      2  C   UNL     1       2.293  -5.710   1.008  0.00  0.00    +0.044 A 
ATOM      3  C   UNL     1       3.714  -6.088   0.916  0.00  0.00    +0.023 A 
ATOM      4  C   UNL     1       4.267  -7.008   1.809  0.00  0.00    +0.012 A 
ATOM      5  C   UNL     1       5.599  -7.349   1.704  0.00  0.00    +0.004 A 
ATOM      6  C   UNL     1       6.391  -6.784   0.718  0.00  0.00    +0.049 A 
ATOM      7  C   UNL     1       5.855  -5.868  -0.175  0.00  0.00    +0.163 A 
ATOM      8  C   UNL     1       4.515  -5.514  -0.081  0.00  0.00    +0.179 A 
ATOM      9  O   UNL     1       3.971  -4.616  -0.944  0.00  0.00    -0.433 OA
ATOM     10  C   UNL     1       2.629  -4.730  -1.178  0.00  0.00    +0.238 A 
ATOM     11  N   UNL     1       2.138  -4.574  -2.378  0.00  0.00    -0.260 N 
ATOM     12  H   UNL     1       1.183  -4.655  -2.526  0.00  0.00    +0.189 HD
ENDROOT
BRANCH   1  13
ATOM     13  S   UNL     1       0.063  -4.530  -0.023  0.00  0.00    +0.030 S 
ATOM     14  O   UNL     1      -0.476  -4.950   1.223  0.00  0.00    -0.164 OA
ATOM     15  O   UNL     1      -0.490  -4.937  -1.267  0.00  0.00    -0.164 OA
BRANCH  13  20
ATOM     16  C   UNL     1      -0.018   1.503   0.010  0.00  0.00    +0.044 C 
ATOM     17  C   UNL     1       0.002  -0.004   0.002  0.00  0.00    -0.050 A 
ATOM     18  C   UNL     1       0.006  -0.689  -1.199  0.00  0.00    +0.005 A 
ATOM     19  C   UNL     1       0.025  -2.071  -1.206  0.00  0.00    +0.027 A 
ATOM     20  C   UNL     1       0.040  -2.768  -0.013  0.00  0.00    +0.094 A 
ATOM     21  C   UNL     1       0.037  -2.084   1.188  0.00  0.00    +0.027 A 
ATOM     22  C   UNL     1       0.023  -0.702   1.195  0.00  0.00    +0.005 A 
ENDBRANCH  13  20
ENDBRANCH   1  13
BRANCH  11  23
ATOM     23  N   UNL     1       2.991  -4.288  -3.453  0.00  0.00    -0.157 N 
ATOM     24  H   UNL     1       3.946  -4.207  -3.305  0.00  0.00    +0.194 HD
BRANCH  23  25
ATOM     25  S   UNL     1       2.368  -4.090  -4.974  0.00  0.00    +0.085 S 
ATOM     26  O   UNL     1       3.445  -3.675  -5.803  0.00  0.00    -0.149 OA
ATOM     27  O   UNL     1       1.597  -5.252  -5.252  0.00  0.00    -0.149 OA
BRANCH  25  28
ATOM     28  C   UNL     1       1.237  -2.741  -4.903  0.00  0.00    +0.110 A 
ATOM     29  C   UNL     1      -0.093  -2.969  -4.605  0.00  0.00    +0.029 A 
ATOM     30  C   UNL     1      -0.980  -1.910  -4.549  0.00  0.00    +0.005 A 
ATOM     31  C   UNL     1      -0.537  -0.623  -4.791  0.00  0.00    -0.050 A 
ATOM     32  C   UNL     1       0.794  -0.395  -5.088  0.00  0.00    +0.005 A 
ATOM     33  C   UNL     1       1.682  -1.454  -5.140  0.00  0.00    +0.029 A 
ATOM     34  C   UNL     1      -1.504   0.531  -4.731  0.00  0.00    +0.044 C 
ENDBRANCH  25  28
ENDBRANCH  23  25
ENDBRANCH  11  23
BRANCH   7  35
ATOM     35  O   UNL     1       6.639  -5.318  -1.141  0.00  0.00    -0.491 OA
ATOM     36  C   UNL     1       8.007  -5.729  -1.177  0.00  0.00    +0.277 C 
ENDBRANCH   7  35
TORSDOF 6
