REMARK  Name = ZINC18279592
REMARK  8 active torsions:
REMARK  status: ('A' for Active; 'I' for Inactive)
REMARK    1  A    between atoms: C_1  and  C_2
REMARK    2  A    between atoms: C_3  and  C_21
REMARK    3  A    between atoms: C_4  and  C_14
REMARK    4  A    between atoms: C_18  and  O_20
REMARK    5  A    between atoms: C_21  and  O_23
REMARK    6  A    between atoms: O_23  and  C_24
REMARK    7  A    between atoms: C_24  and  C_25
REMARK    8  A    between atoms: C_24  and  C_26
REMARK                            x       y       z     vdW  Elec       q    Type
REMARK                         _______ _______ _______ _____ _____    ______ ____
ROOT
ATOM      1  C   UNL     1      -0.018   1.503   0.010  0.00  0.00    +0.061 C 
ATOM      2  C   UNL     1       0.002  -0.004   0.002  0.00  0.00    +0.016 C 
ATOM      3  C   UNL     1      -1.155  -0.687   0.004  0.00  0.00    +0.065 C 
ATOM      4  C   UNL     1      -1.174  -2.188  -0.012  0.00  0.00    +0.092 C 
ATOM      5  C   UNL     1       0.164  -2.749   0.399  0.00  0.00    +0.024 C 
ATOM      6  C   UNL     1       1.272  -1.979   0.376  0.00  0.00    +0.015 C 
ATOM      7  N   UNL     1       1.198  -0.667  -0.013  0.00  0.00    -0.321 N 
ATOM      8  C   UNL     1       2.616  -2.539   0.768  0.00  0.00    +0.051 C 
ATOM      9  C   UNL     1       2.429  -3.633   1.822  0.00  0.00    +0.014 C 
ATOM     10  C   UNL     1       1.521  -4.720   1.240  0.00  0.00    +0.080 C 
ATOM     11  C   UNL     1       0.224  -4.094   0.806  0.00  0.00    +0.162 C 
ATOM     12  O   UNL     1      -0.791  -4.762   0.808  0.00  0.00    -0.292 OA
ATOM     13  H   UNL     1       2.000  -0.203  -0.298  0.00  0.00    +0.152 HD
ENDROOT
BRANCH   4  14
ATOM     14  C   UNL     1      -1.503  -2.664  -1.404  0.00  0.00    -0.032 A 
ATOM     15  C   UNL     1      -0.678  -2.328  -2.462  0.00  0.00    +0.005 A 
ATOM     16  C   UNL     1      -0.977  -2.764  -3.739  0.00  0.00    +0.004 A 
ATOM     17  C   UNL     1      -2.102  -3.534  -3.962  0.00  0.00    +0.045 A 
ATOM     18  C   UNL     1      -2.931  -3.872  -2.903  0.00  0.00    +0.117 A 
ATOM     19  C   UNL     1      -2.625  -3.439  -1.620  0.00  0.00    +0.050 A 
BRANCH  18  20
ATOM     20  O   UNL     1      -4.037  -4.631  -3.119  0.00  0.00    -0.507 OA
ATOM     21  H   UNL     1      -3.883  -5.582  -3.044  0.00  0.00    +0.292 HD
ENDBRANCH  18  20
ENDBRANCH   4  14
BRANCH   3  22
ATOM     22  C   UNL     1      -2.380   0.021   0.021  0.00  0.00    +0.338 C 
ATOM     23  O   UNL     1      -2.378   1.238   0.035  0.00  0.00    -0.245 OA
BRANCH  22  24
ATOM     24  O   UNL     1      -3.549  -0.652   0.024  0.00  0.00    -0.459 OA
BRANCH  24  25
ATOM     25  C   UNL     1      -4.746   0.128   0.042  0.00  0.00    +0.171 C 
ATOM     26  C   UNL     1      -5.185   0.422  -1.394  0.00  0.00    +0.052 C 
ATOM     27  C   UNL     1      -5.850  -0.649   0.763  0.00  0.00    +0.052 C 
ENDBRANCH  24  25
ENDBRANCH  22  24
ENDBRANCH   3  22
TORSDOF 5
