REMARK  Name = ZINC04028998
REMARK  5 active torsions:
REMARK  status: ('A' for Active; 'I' for Inactive)
REMARK    1  A    between atoms: C_1  and  C_2
REMARK    2  A    between atoms: C_5  and  O_31
REMARK    3  A    between atoms: C_18  and  C_30
REMARK    4  A    between atoms: C_23  and  N_25
REMARK    5  A    between atoms: C_26  and  C_28
REMARK                            x       y       z     vdW  Elec       q    Type
REMARK                         _______ _______ _______ _____ _____    ______ ____
ROOT
ATOM      1  C   UNL     1      -2.413   5.187   1.896  0.00  0.00    +0.012 C 
ATOM      2  C   UNL     1      -1.406   5.926   1.020  0.00  0.00    -0.026 C 
ATOM      3  C   UNL     1      -0.797   7.077   1.838  0.00  0.00    +0.010 C 
ATOM      4  C   UNL     1      -1.878   8.062   2.274  0.00  0.00    +0.032 C 
ATOM      5  C   UNL     1      -2.624   8.626   1.067  0.00  0.00    +0.115 C 
ATOM      6  C   UNL     1      -3.217   7.488   0.235  0.00  0.00    +0.035 C 
ATOM      7  C   UNL     1      -2.104   6.541  -0.196  0.00  0.00    -0.002 C 
ATOM      8  C   UNL     1      -2.643   5.444  -1.109  0.00  0.00    +0.004 C 
ATOM      9  C   UNL     1      -1.460   4.638  -1.651  0.00  0.00    +0.004 C 
ATOM     10  C   UNL     1      -0.687   3.993  -0.502  0.00  0.00    -0.004 C 
ATOM     11  C   UNL     1      -0.287   5.012   0.545  0.00  0.00    -0.001 C 
ATOM     12  C   UNL     1       0.490   4.371   1.682  0.00  0.00    +0.005 C 
ATOM     13  C   UNL     1      -0.120   3.098   2.221  0.00  0.00    +0.009 C 
ATOM     14  C   UNL     1      -0.683   2.140   1.206  0.00  0.00    -0.011 C 
ATOM     15  C   UNL     1      -1.474   2.819   0.075  0.00  0.00    +0.000 C 
ATOM     16  C   UNL     1      -1.506   1.710  -1.019  0.00  0.00    +0.006 C 
ATOM     17  C   UNL     1      -0.124   1.033  -0.917  0.00  0.00    +0.023 C 
ATOM     18  C   UNL     1       0.361   1.248   0.530  0.00  0.00    +0.079 C 
ATOM     19  C   UNL     1      -1.662   1.211   1.955  0.00  0.00    +0.013 C 
ENDROOT
BRANCH  18  20
ATOM     20  N   UNL     1       1.690   1.855   0.535  0.00  0.00    -0.311 N 
ATOM     21  C   UNL     1       2.639   1.393   1.373  0.00  0.00    +0.228 C 
ATOM     22  O   UNL     1       2.390   0.473   2.123  0.00  0.00    -0.275 OA
ATOM     23  H   UNL     1       1.889   2.591  -0.065  0.00  0.00    +0.149 HD
BRANCH  21  24
ATOM     24  C   UNL     1       4.010   2.019   1.377  0.00  0.00    +0.204 C 
ATOM     25 CL   UNL     1       5.046   1.188   2.597  0.00  0.00    -0.116 Cl
ENDBRANCH  21  24
ENDBRANCH  18  20
BRANCH   5  26
ATOM     26  O   UNL     1      -1.725   9.390   0.260  0.00  0.00    -0.392 OA
ATOM     27  H   UNL     1      -1.312  10.130   0.725  0.00  0.00    +0.210 HD
ENDBRANCH   5  26
TORSDOF 3
