REMARK  Name = ZINC36795582
REMARK  9 active torsions:
REMARK  status: ('A' for Active; 'I' for Inactive)
REMARK    1  A    between atoms: C_1  and  C_2
REMARK    2  A    between atoms: C_2  and  C_4
REMARK    3  A    between atoms: C_2  and  S_17
REMARK    4  A    between atoms: N_6  and  C_7
REMARK    5  A    between atoms: C_7  and  C_8
REMARK    6  A    between atoms: S_17  and  C_18
REMARK    7  A    between atoms: N_23  and  C_24
REMARK    8  A    between atoms: C_27  and  S_30
REMARK    9  A    between atoms: S_30  and  C_31
REMARK                            x       y       z     vdW  Elec       q    Type
REMARK                         _______ _______ _______ _____ _____    ______ ____
ROOT
ATOM      1  S   UNL     1      -1.441  -1.347  -0.428  0.00  0.00    -0.084 S 
ENDROOT
BRANCH   1   2
ATOM      2  C   UNL     1      -2.190  -0.574  -1.823  0.00  0.00    +0.161 A 
ATOM      3  N   UNL     1      -1.673   0.282  -2.683  0.00  0.00    -0.133 NA
ATOM      4  N   UNL     1      -2.444   0.768  -3.713  0.00  0.00    -0.125 NA
ATOM      5  C   UNL     1      -3.697   0.376  -3.836  0.00  0.00    +0.187 A 
ATOM      6  S   UNL     1      -3.852  -0.746  -2.455  0.00  0.00    -0.024 S 
ATOM      7  N   UNL     1      -4.644   0.737  -4.789  0.00  0.00    -0.292 N 
ATOM      8  H   UNL     1      -5.560   0.431  -4.702  0.00  0.00    +0.154 HD
BRANCH   7   9
ATOM      9  C   UNL     1      -4.274   1.541  -5.873  0.00  0.00    +0.033 A 
ATOM     10  C   UNL     1      -5.220   2.342  -6.498  0.00  0.00    +0.024 A 
ATOM     11  C   UNL     1      -4.856   3.135  -7.568  0.00  0.00    +0.017 A 
ATOM     12  C   UNL     1      -3.542   3.132  -8.019  0.00  0.00    +0.013 A 
ATOM     13  C   UNL     1      -2.595   2.330  -7.394  0.00  0.00    +0.017 A 
ATOM     14  C   UNL     1      -2.959   1.541  -6.321  0.00  0.00    +0.024 A 
BRANCH  12  15
ATOM     15  S   UNL     1      -3.077   4.143  -9.385  0.00  0.00    -0.056 S 
BRANCH  15  16
ATOM     16  C   UNL     1      -1.307   3.807  -9.598  0.00  0.00    +0.404 C 
ATOM     17  F   UNL     1      -0.622   4.153  -8.428  0.00  0.00    -0.197 F 
ATOM     18  F   UNL     1      -1.120   2.446  -9.862  0.00  0.00    -0.197 F 
ENDBRANCH  15  16
ENDBRANCH  12  15
ENDBRANCH   7   9
ENDBRANCH   1   2
BRANCH   1  20
ATOM     19  C   UNL     1       0.207   0.819  -0.151  0.00  0.00    +0.029 C 
ATOM     20  C   UNL     1       0.249  -0.687  -0.417  0.00  0.00    +0.136 C 
BRANCH  20  21
ATOM     21  C   UNL     1       1.046  -1.367   0.667  0.00  0.00    +0.226 C 
ATOM     22  O   UNL     1       0.475  -1.924   1.581  0.00  0.00    -0.275 OA
ATOM     23  N   UNL     1       2.393  -1.355   0.621  0.00  0.00    -0.310 N 
ATOM     24  H   UNL     1       2.849  -0.909  -0.110  0.00  0.00    +0.149 HD
BRANCH  23  25
ATOM     25  C   UNL     1       3.168  -2.015   1.675  0.00  0.00    +0.139 C 
BRANCH  25  26
ATOM     26  C   UNL     1       4.639  -1.858   1.390  0.00  0.00    -0.027 A 
ATOM     27  C   UNL     1       5.299  -2.802   0.626  0.00  0.00    +0.009 A 
ATOM     28  C   UNL     1       6.648  -2.662   0.361  0.00  0.00    +0.050 A 
ATOM     29  C   UNL     1       7.343  -1.573   0.863  0.00  0.00    +0.166 A 
ATOM     30  C   UNL     1       6.679  -0.622   1.633  0.00  0.00    +0.167 A 
ATOM     31  C   UNL     1       5.325  -0.766   1.889  0.00  0.00    +0.054 A 
ATOM     32  O   UNL     1       7.573   0.340   2.004  0.00  0.00    -0.453 OA
ATOM     33  C   UNL     1       8.873  -0.242   1.798  0.00  0.00    +0.466 C 
ATOM     34  O   UNL     1       8.654  -1.207   0.751  0.00  0.00    -0.453 OA
ENDBRANCH  25  26
ENDBRANCH  23  25
ENDBRANCH  20  21
ENDBRANCH   1  20
TORSDOF 8
