REMARK  Name = ZINC39456564
REMARK  5 active torsions:
REMARK  status: ('A' for Active; 'I' for Inactive)
REMARK    1  A    between atoms: C_1  and  C_2
REMARK    2  A    between atoms: N_6  and  C_7
REMARK    3  A    between atoms: C_12  and  O_13
REMARK    4  A    between atoms: C_16  and  C_24
REMARK    5  A    between atoms: C_29  and  O_30
REMARK                            x       y       z     vdW  Elec       q    Type
REMARK                         _______ _______ _______ _____ _____    ______ ____
ROOT
ATOM      1  C   UNL     1      -0.018   1.503   0.010  0.00  0.00    +0.067 C 
ATOM      2  C   UNL     1       0.002  -0.004   0.002  0.00  0.00    +0.057 A 
ATOM      3  C   UNL     1       0.008  -0.790  -1.104  0.00  0.00    +0.148 A 
ATOM      4  C   UNL     1       0.032  -2.121  -0.681  0.00  0.00    +0.016 A 
ATOM      5  C   UNL     1       0.050  -2.107   0.692  0.00  0.00    +0.079 A 
ATOM      6  N   UNL     1       0.024  -0.808   1.107  0.00  0.00    -0.305 N 
ATOM      7  C   UNL     1       0.122  -3.343   1.494  0.00  0.00    +0.100 A 
ATOM      8  C   UNL     1       1.090  -4.355   1.047  0.00  0.00    +0.053 A 
ATOM      9  C   UNL     1       1.172  -5.565   1.745  0.00  0.00    +0.007 A 
ATOM     10  C   UNL     1       0.322  -5.731   2.872  0.00  0.00    +0.009 A 
ATOM     11  C   UNL     1       0.351  -6.920   3.614  0.00  0.00    +0.010 A 
ATOM     12  C   UNL     1      -0.457  -7.059   4.702  0.00  0.00    +0.001 A 
ATOM     13  C   UNL     1      -1.317  -6.033   5.086  0.00  0.00    +0.002 A 
ATOM     14  C   UNL     1      -1.376  -4.868   4.383  0.00  0.00    +0.028 A 
ATOM     15  C   UNL     1      -0.560  -4.690   3.251  0.00  0.00    +0.072 A 
ATOM     16  N   UNL     1      -0.629  -3.549   2.550  0.00  0.00    -0.244 NA
ATOM     17  C   UNL     1       1.941  -4.046  -0.094  0.00  0.00    +0.166 C 
ATOM     18  O   UNL     1       3.111  -3.779   0.091  0.00  0.00    -0.292 OA
ATOM     19  C   UNL     1       1.396  -4.052  -1.503  0.00  0.00    +0.084 C 
ATOM     20  C   UNL     1       0.023  -3.366  -1.521  0.00  0.00    +0.048 C 
ATOM     21  F   UNL     1      -0.006  -0.361  -2.385  0.00  0.00    -0.203 F 
ENDROOT
BRANCH   6  22
ATOM     22  C   UNL     1       0.016  -0.371   2.440  0.00  0.00    +0.089 A 
ATOM     23  C   UNL     1      -1.187  -0.189   3.106  0.00  0.00    +0.030 A 
ATOM     24  C   UNL     1      -1.192   0.240   4.419  0.00  0.00    +0.002 A 
ATOM     25  C   UNL     1       0.001   0.490   5.073  0.00  0.00    +0.004 A 
ATOM     26  C   UNL     1       1.204   0.311   4.416  0.00  0.00    +0.047 A 
ATOM     27  C   UNL     1       1.217  -0.125   3.101  0.00  0.00    +0.141 A 
BRANCH  27  28
ATOM     28  O   UNL     1       2.400  -0.307   2.455  0.00  0.00    -0.505 OA
ATOM     29  H   UNL     1       2.721   0.480   1.994  0.00  0.00    +0.292 HD
ENDBRANCH  27  28
ENDBRANCH   6  22
BRANCH   9  30
ATOM     30  C   UNL     1       2.106  -6.628   1.327  0.00  0.00    +0.025 A 
ATOM     31  C   UNL     1       3.403  -6.668   1.845  0.00  0.00    +0.012 A 
ATOM     32  C   UNL     1       4.270  -7.663   1.451  0.00  0.00    +0.001 A 
ATOM     33  C   UNL     1       3.862  -8.626   0.542  0.00  0.00    +0.004 A 
ATOM     34  C   UNL     1       2.583  -8.598   0.021  0.00  0.00    +0.046 A 
ATOM     35  C   UNL     1       1.695  -7.607   0.412  0.00  0.00    +0.125 A 
BRANCH  35  36
ATOM     36  O   UNL     1       0.436  -7.582  -0.094  0.00  0.00    -0.506 OA
ATOM     37  H   UNL     1       0.349  -7.068  -0.908  0.00  0.00    +0.292 HD
ENDBRANCH  35  36
ENDBRANCH   9  30
TORSDOF 4
