REMARK  Name = ZINC39982515
REMARK  3 active torsions:
REMARK  status: ('A' for Active; 'I' for Inactive)
REMARK    1  A    between atoms: C_4  and  C_7
REMARK    2  A    between atoms: C_10  and  C_12
REMARK    3  A    between atoms: N_14  and  C_15
REMARK                            x       y       z     vdW  Elec       q    Type
REMARK                         _______ _______ _______ _____ _____    ______ ____
ROOT
ATOM      1  C   UNL     1       8.053  -2.226  -0.670  0.00  0.00    +0.265 C 
ATOM      2  O   UNL     1       9.143  -2.207  -1.213  0.00  0.00    -0.268 OA
ATOM      3  N   UNL     1       7.608  -3.360  -0.093  0.00  0.00    -0.280 N 
ATOM      4  H   UNL     1       6.771  -3.358   0.397  0.00  0.00    +0.155 HD
ENDROOT
BRANCH   3   5
ATOM      5  C   UNL     1       8.353  -4.539  -0.201  0.00  0.00    +0.037 A 
ATOM      6  C   UNL     1       7.705  -5.763  -0.310  0.00  0.00    +0.027 A 
ATOM      7  C   UNL     1       8.439  -6.929  -0.415  0.00  0.00    +0.051 A 
ATOM      8  C   UNL     1       9.822  -6.880  -0.413  0.00  0.00    +0.167 A 
ATOM      9  C   UNL     1      10.476  -5.653  -0.305  0.00  0.00    +0.169 A 
ATOM     10  C   UNL     1       9.741  -4.486  -0.204  0.00  0.00    +0.073 A 
ATOM     11  O   UNL     1      11.827  -5.881  -0.330  0.00  0.00    -0.447 OA
ATOM     12  C   UNL     1      11.949  -7.260   0.046  0.00  0.00    +0.254 C 
ATOM     13  O   UNL     1      10.770  -7.867  -0.502  0.00  0.00    -0.448 OA
ATOM     14  C   UNL     1      12.002  -7.419   1.569  0.00  0.00    +0.093 C 
ATOM     15  C   UNL     1      12.966  -8.614   1.789  0.00  0.00    +0.008 C 
ATOM     16  C   UNL     1      14.029  -8.409   0.680  0.00  0.00    +0.008 C 
ATOM     17  C   UNL     1      13.220  -7.887  -0.529  0.00  0.00    +0.093 C 
ENDBRANCH   3   5
BRANCH   1  21
ATOM     18  C   UNL     1       6.314   1.143  -0.877  0.00  0.00    +0.077 C 
ATOM     19  N   UNL     1       5.546   0.296  -0.231  0.00  0.00    -0.153 NA
ATOM     20  N   UNL     1       6.043  -0.872  -0.107  0.00  0.00    -0.148 NA
ATOM     21  C   UNL     1       7.226  -1.016  -0.645  0.00  0.00    +0.131 C 
ATOM     22  C   UNL     1       7.553   0.343  -1.243  0.00  0.00    +0.120 C 
BRANCH  18  26
ATOM     23  C   UNL     1       5.506   5.208  -1.763  0.00  0.00    +0.000 A 
ATOM     24  C   UNL     1       4.576   4.459  -1.062  0.00  0.00    +0.001 A 
ATOM     25  C   UNL     1       4.831   3.136  -0.770  0.00  0.00    +0.010 A 
ATOM     26  C   UNL     1       6.034   2.550  -1.185  0.00  0.00    -0.002 A 
ATOM     27  C   UNL     1       6.968   3.316  -1.894  0.00  0.00    +0.010 A 
ATOM     28  C   UNL     1       6.697   4.637  -2.177  0.00  0.00    +0.001 A 
ENDBRANCH  18  26
ENDBRANCH   1  21
TORSDOF 3
