REMARK  Name = ZINC20611545
REMARK  4 active torsions:
REMARK  status: ('A' for Active; 'I' for Inactive)
REMARK    1  A    between atoms: C_4  and  C_7
REMARK    2  A    between atoms: C_7  and  C_8
REMARK    3  A    between atoms: C_8  and  N_9
REMARK    4  A    between atoms: C_12  and  C_19
REMARK                            x       y       z     vdW  Elec       q    Type
REMARK                         _______ _______ _______ _____ _____    ______ ____
ROOT
ATOM      1  N   UNL     1       5.450  -1.678   1.382  0.00  0.00    -0.260 N 
ATOM      2  C   UNL     1       5.462  -3.026   1.369  0.00  0.00    +0.262 A 
ATOM      3  O   UNL     1       4.415  -3.650   1.372  0.00  0.00    -0.267 OA
ATOM      4  C   UNL     1       6.692  -3.708   1.353  0.00  0.00    +0.073 A 
ATOM      5  C   UNL     1       7.849  -2.987   1.349  0.00  0.00    +0.260 A 
ATOM      6  N   UNL     1       7.791  -1.617   1.363  0.00  0.00    -0.275 N 
ATOM      7  H   UNL     1       8.612  -1.099   1.360  0.00  0.00    +0.173 HD
ATOM      8  C   UNL     1       6.603  -0.985   1.373  0.00  0.00    +0.332 A 
ATOM      9  O   UNL     1       6.571   0.231   1.380  0.00  0.00    -0.246 OA
ATOM     10  O   UNL     1       9.043  -3.617   1.334  0.00  0.00    -0.267 OA
ENDROOT
BRANCH   4  11
ATOM     11  C   UNL     1       6.730  -5.215   1.339  0.00  0.00    +0.018 C 
ATOM     12  C   UNL     1       6.123  -5.725   0.054  0.00  0.00    +0.011 A 
ATOM     13  C   UNL     1       5.278  -6.781   0.009  0.00  0.00    -0.022 A 
ATOM     14  C   UNL     1       4.905  -6.972  -1.374  0.00  0.00    +0.003 A 
ATOM     15  C   UNL     1       4.070  -7.891  -2.017  0.00  0.00    +0.010 A 
ATOM     16  C   UNL     1       3.945  -7.772  -3.378  0.00  0.00    +0.001 A 
ATOM     17  C   UNL     1       4.610  -6.791  -4.095  0.00  0.00    +0.002 A 
ATOM     18  C   UNL     1       5.443  -5.868  -3.486  0.00  0.00    +0.026 A 
ATOM     19  C   UNL     1       5.588  -5.965  -2.104  0.00  0.00    +0.047 A 
ATOM     20  N   UNL     1       6.314  -5.233  -1.208  0.00  0.00    -0.359 N 
ATOM     21  H   UNL     1       6.880  -4.477  -1.432  0.00  0.00    +0.166 HD
ATOM     22  C   UNL     1       4.863  -7.559   1.232  0.00  0.00    +0.018 C 
ATOM     23  C   UNL     1       5.830  -7.199   2.369  0.00  0.00    -0.076 C 
ATOM     24  N   UNL     1       5.951  -5.738   2.472  0.00  0.00    +0.388 N 
ATOM     25  H   UNL     1       6.414  -5.498   3.336  0.00  0.00    -0.084 HD
ATOM     26  H   UNL     1       5.030  -5.327   2.463  0.00  0.00    -0.084 HD
ENDBRANCH   4  11
BRANCH   1  27
ATOM     27  C   UNL     1       4.171  -0.963   1.399  0.00  0.00    +0.134 C 
BRANCH  27  28
ATOM     28  C   UNL     1       3.711  -0.707  -0.038  0.00  0.00    +0.057 C 
BRANCH  28  32
ATOM     29  C   UNL     1      -0.017   1.378   0.010  0.00  0.00    +0.000 A 
ATOM     30  C   UNL     1       1.171   2.086   0.002  0.00  0.00    +0.000 A 
ATOM     31  C   UNL     1       2.377   1.411  -0.013  0.00  0.00    +0.004 A 
ATOM     32  C   UNL     1       2.396   0.029  -0.020  0.00  0.00    -0.046 A 
ATOM     33  C   UNL     1       1.208  -0.679  -0.012  0.00  0.00    +0.004 A 
ATOM     34  C   UNL     1       0.002  -0.004   0.002  0.00  0.00    +0.000 A 
ENDBRANCH  28  32
ENDBRANCH  27  28
ENDBRANCH   1  27
TORSDOF 4
