REMARK  Name = ZINC38682114
REMARK  8 active torsions:
REMARK  status: ('A' for Active; 'I' for Inactive)
REMARK    1  A    between atoms: C_1  and  S_2
REMARK    2  A    between atoms: S_2  and  C_3
REMARK    3  A    between atoms: C_6  and  C_9
REMARK    4  A    between atoms: C_14  and  O_23
REMARK    5  A    between atoms: C_18  and  N_22
REMARK    6  A    between atoms: C_19  and  C_20
REMARK    7  A    between atoms: O_23  and  C_24
REMARK    8  A    between atoms: C_24  and  C_26
REMARK                            x       y       z     vdW  Elec       q    Type
REMARK                         _______ _______ _______ _____ _____    ______ ____
ROOT
ATOM      1  C   UNL     1      -5.863  -1.492   0.023  0.00  0.00    +0.098 C 
ATOM      2  C   UNL     1      -6.167  -2.312  -1.202  0.00  0.00    +0.008 A 
ATOM      3  C   UNL     1      -6.400  -1.675  -2.408  0.00  0.00    +0.012 A 
ATOM      4  C   UNL     1      -6.681  -2.411  -3.542  0.00  0.00    +0.047 A 
ATOM      5  C   UNL     1      -6.730  -3.796  -3.475  0.00  0.00    +0.135 A 
ATOM      6  C   UNL     1      -6.498  -4.438  -2.269  0.00  0.00    +0.093 A 
ATOM      7  C   UNL     1      -6.215  -3.696  -1.129  0.00  0.00    +0.138 A 
ATOM      8  O   UNL     1      -5.990  -4.338   0.043  0.00  0.00    -0.441 OA
ATOM      9  C   UNL     1      -6.100  -3.672   1.204  0.00  0.00    +0.199 C 
ATOM     10  C   UNL     1      -6.047  -2.323   1.261  0.00  0.00    +0.098 C 
ENDROOT
BRANCH   1  14
ATOM     11  C   UNL     1      -1.823  -0.110  -0.166  0.00  0.00    +0.008 A 
ATOM     12  C   UNL     1      -2.869   0.803  -0.111  0.00  0.00    +0.015 A 
ATOM     13  C   UNL     1      -4.173   0.353  -0.050  0.00  0.00    +0.005 A 
ATOM     14  C   UNL     1      -4.438  -1.004  -0.044  0.00  0.00    -0.035 A 
ATOM     15  C   UNL     1      -3.400  -1.916  -0.099  0.00  0.00    +0.005 A 
ATOM     16  C   UNL     1      -2.093  -1.473  -0.166  0.00  0.00    +0.015 A 
BRANCH  11  18
ATOM     17  C   UNL     1      -0.310   2.267  -0.219  0.00  0.00    +0.090 C 
ATOM     18  S   UNL     1      -0.157   0.460  -0.244  0.00  0.00    -0.129 S 
ENDBRANCH  11  18
ENDBRANCH   1  14
BRANCH   9  19
ATOM     19  N   UNL     1      -6.271  -4.383   2.366  0.00  0.00    -0.328 N 
ATOM     20  H   UNL     1      -6.311  -5.352   2.341  0.00  0.00    +0.145 HD
ATOM     21  H   UNL     1      -6.352  -3.916   3.213  0.00  0.00    +0.145 HD
ENDBRANCH   9  19
BRANCH  10  22
ATOM     22  C   UNL     1      -6.169  -1.674   2.531  0.00  0.00    +0.101 C 
ATOM     23  N   UNL     1      -6.266  -1.158   3.539  0.00  0.00    -0.191 NA
ENDBRANCH  10  22
BRANCH   5  24
ATOM     24  O   UNL     1      -7.007  -4.523  -4.590  0.00  0.00    -0.422 OA
BRANCH  24  25
ATOM     25  C   UNL     1      -6.082  -4.556  -5.569  0.00  0.00    +0.344 C 
ATOM     26  O   UNL     1      -4.998  -4.036  -5.397  0.00  0.00    -0.245 OA
BRANCH  25  27
ATOM     27  C   UNL     1      -6.387  -5.224  -6.850  0.00  0.00    +0.059 A 
ATOM     28  C   UNL     1      -7.635  -5.818  -7.051  0.00  0.00    +0.016 A 
ATOM     29  C   UNL     1      -7.913  -6.441  -8.250  0.00  0.00    +0.016 A 
ATOM     30  C   UNL     1      -6.958  -6.478  -9.252  0.00  0.00    +0.018 A 
ATOM     31  C   UNL     1      -5.719  -5.892  -9.058  0.00  0.00    +0.016 A 
ATOM     32  C   UNL     1      -5.430  -5.261  -7.866  0.00  0.00    +0.016 A 
ATOM     33 BR   UNL     1      -7.348  -7.334 -10.893  0.00  0.00    -0.050 Br
ENDBRANCH  25  27
ENDBRANCH  24  25
ENDBRANCH   5  24
TORSDOF 7
