REMARK  Name = ZINC13065106
REMARK  12 active torsions:
REMARK  status: ('A' for Active; 'I' for Inactive)
REMARK    1  A    between atoms: C_1  and  C_2
REMARK    2  A    between atoms: C_2  and  C_3
REMARK    3  A    between atoms: C_3  and  C_5
REMARK    4  A    between atoms: C_3  and  N_68
REMARK    5  A    between atoms: N_9  and  C_10
REMARK    6  A    between atoms: C_10  and  C_11
REMARK    7  A    between atoms: C_18  and  C_19
REMARK    8  A    between atoms: C_18  and  N_68
REMARK    9  A    between atoms: C_25  and  C_26
REMARK   10  A    between atoms: C_25  and  N_68
REMARK   11  A    between atoms: C_31  and  C_39
REMARK   12  A    between atoms: C_32  and  C_38
REMARK                            x       y       z     vdW  Elec       q    Type
REMARK                         _______ _______ _______ _____ _____    ______ ____
ROOT
ATOM      1  N   UNL     1      -0.098  -1.684   1.252  0.00  0.00    +0.392 N 
ATOM      2  H   UNL     1       0.824  -2.120   1.125  0.00  0.00    -0.080 HD
ENDROOT
BRANCH   1   3
ATOM      3  C   UNL     1      -0.351  -0.762   0.124  0.00  0.00    +0.003 C 
BRANCH   3   4
ATOM      4  C   UNL     1       0.211  -1.373  -1.133  0.00  0.00    +0.138 A 
ATOM      5  N   UNL     1       0.702  -2.581  -1.264  0.00  0.00    -0.115 NA
ATOM      6  N   UNL     1       1.078  -2.727  -2.488  0.00  0.00    -0.023 NA
ATOM      7  N   UNL     1       0.840  -1.643  -3.141  0.00  0.00    -0.044 NA
ATOM      8  N   UNL     1       0.305  -0.784  -2.340  0.00  0.00    -0.226 N 
BRANCH   8   9
ATOM      9  C   UNL     1      -0.124   0.574  -2.682  0.00  0.00    +0.182 C 
BRANCH   9  10
ATOM     10  C   UNL     1       1.016   1.533  -2.458  0.00  0.00    -0.026 A 
ATOM     11  C   UNL     1       1.172   2.145  -1.228  0.00  0.00    +0.008 A 
ATOM     12  C   UNL     1       2.221   3.021  -1.020  0.00  0.00    +0.038 A 
ATOM     13  C   UNL     1       3.109   3.293  -2.047  0.00  0.00    +0.123 A 
ATOM     14  C   UNL     1       2.949   2.683  -3.279  0.00  0.00    +0.038 A 
ATOM     15  C   UNL     1       1.903   1.803  -3.483  0.00  0.00    +0.008 A 
ATOM     16  F   UNL     1       4.132   4.153  -1.846  0.00  0.00    -0.205 F 
ENDBRANCH   9  10
ENDBRANCH   8   9
ENDBRANCH   3   4
BRANCH   3  18
ATOM     17  C   UNL     1      -2.441   0.000   1.261  0.00  0.00    +0.002 C 
ATOM     18  C   UNL     1      -1.853  -0.529  -0.049  0.00  0.00    -0.011 C 
ENDBRANCH   3  18
ENDBRANCH   1   3
BRANCH   1  19
ATOM     19  C   UNL     1      -0.105  -0.937   2.527  0.00  0.00    -0.040 C 
BRANCH  19  20
ATOM     20  C   UNL     1       0.587  -1.768   3.577  0.00  0.00    -0.046 A 
ATOM     21  C   UNL     1      -0.154  -2.491   4.500  0.00  0.00    +0.005 A 
ATOM     22  C   UNL     1       0.524  -3.245   5.445  0.00  0.00    +0.020 A 
ATOM     23  C   UNL     1       1.907  -3.243   5.442  0.00  0.00    +0.111 A 
ATOM     24  N   UNL     1       2.578  -2.539   4.552  0.00  0.00    -0.263 NA
ATOM     25  C   UNL     1       1.966  -1.814   3.636  0.00  0.00    +0.112 A 
ENDBRANCH  19  20
ENDBRANCH   1  19
BRANCH   1  26
ATOM     26  C   UNL     1      -1.129  -2.742   1.280  0.00  0.00    -0.036 C 
BRANCH  26  27
ATOM     27  C   UNL     1      -0.689  -3.867   0.379  0.00  0.00    +0.001 A 
ATOM     28  C   UNL     1       0.031  -4.897   0.887  0.00  0.00    +0.017 A 
ATOM     29  C   UNL     1       0.440  -5.976  -0.014  0.00  0.00    -0.001 A 
ATOM     30  C   UNL     1       1.179  -7.069   0.453  0.00  0.00    +0.010 A 
ATOM     31  C   UNL     1       1.549  -8.056  -0.415  0.00  0.00    +0.004 A 
ATOM     32  C   UNL     1       1.198  -7.987  -1.756  0.00  0.00    -0.046 A 
ATOM     33  C   UNL     1       0.470  -6.921  -2.238  0.00  0.00    -0.024 A 
ATOM     34  C   UNL     1       0.082  -5.902  -1.373  0.00  0.00    +0.052 A 
ATOM     35  N   UNL     1      -0.647  -4.824  -1.829  0.00  0.00    -0.322 N 
ATOM     36  H   UNL     1      -0.893  -4.775  -2.766  0.00  0.00    +0.169 HD
ATOM     37  C   UNL     1      -1.022  -3.841  -0.993  0.00  0.00    +0.251 A 
ATOM     38  O   UNL     1      -1.666  -2.903  -1.430  0.00  0.00    -0.268 OA
ATOM     39  C   UNL     1       0.095  -6.858  -3.696  0.00  0.00    +0.046 C 
ATOM     40  C   UNL     1       1.617  -9.089  -2.695  0.00  0.00    +0.044 C 
ENDBRANCH  26  27
ENDBRANCH   1  26
TORSDOF 9
