REMARK  Name = ZINC39750323
REMARK  10 active torsions:
REMARK  status: ('A' for Active; 'I' for Inactive)
REMARK    1  A    between atoms: C_1  and  C_2
REMARK    2  A    between atoms: C_2  and  N_3
REMARK    3  A    between atoms: C_4  and  C_24
REMARK    4  A    between atoms: C_8  and  S_10
REMARK    5  A    between atoms: S_10  and  C_11
REMARK    6  A    between atoms: C_11  and  C_12
REMARK    7  A    between atoms: C_27  and  C_30
REMARK    8  A    between atoms: C_30  and  C_31
REMARK    9  A    between atoms: C_30  and  C_32
REMARK   10  A    between atoms: C_30  and  C_33
REMARK                            x       y       z     vdW  Elec       q    Type
REMARK                         _______ _______ _______ _____ _____    ______ ____
ROOT
ATOM      1  N   UNL     1       0.300  -0.591  -1.251  0.00  0.00    +0.410 N 
ATOM      2  C   UNL     1       0.895  -1.943  -1.134  0.00  0.00    +0.049 C 
ATOM      3  N   UNL     1       0.022  -2.800  -1.978  0.00  0.00    -0.267 NA
ATOM      4  N   UNL     1      -0.302  -1.925  -3.116  0.00  0.00    -0.262 NA
ATOM      5  C   UNL     1      -0.464  -0.582  -2.515  0.00  0.00    +0.077 C 
ATOM      6  H   UNL     1       0.514  -3.626  -2.285  0.00  0.00    +0.139 HD
ATOM      7  H   UNL     1      -1.152  -2.223  -3.571  0.00  0.00    +0.140 HD
ATOM      8  H   UNL     1       1.029   0.107  -1.281  0.00  0.00    -0.075 HD
ENDROOT
BRANCH   2   9
ATOM      9  C   UNL     1       0.868  -2.409   0.299  0.00  0.00    -0.046 A 
ATOM     10  C   UNL     1      -0.305  -2.894   0.847  0.00  0.00    +0.003 A 
ATOM     11  C   UNL     1      -0.330  -3.321   2.161  0.00  0.00    +0.004 A 
ATOM     12  C   UNL     1       0.819  -3.263   2.928  0.00  0.00    -0.042 A 
ATOM     13  C   UNL     1       1.992  -2.778   2.381  0.00  0.00    +0.004 A 
ATOM     14  C   UNL     1       2.018  -2.355   1.065  0.00  0.00    +0.003 A 
BRANCH  12  15
ATOM     15  C   UNL     1       0.792  -3.727   4.362  0.00  0.00    -0.013 C 
ATOM     16  C   UNL     1       0.388  -5.202   4.412  0.00  0.00    +0.015 C 
ATOM     17  C   UNL     1       2.182  -3.558   4.979  0.00  0.00    +0.015 C 
ATOM     18  C   UNL     1      -0.221  -2.894   5.149  0.00  0.00    +0.015 C 
ENDBRANCH  12  15
ENDBRANCH   2   9
BRANCH   1  20
ATOM     19  C   UNL     1      -1.154   1.086  -0.218  0.00  0.00    -0.017 C 
ATOM     20  C   UNL     1      -0.598  -0.335  -0.117  0.00  0.00    -0.076 C 
ENDBRANCH   1  20
BRANCH   5  21
ATOM     21  S   UNL     1       0.200   0.683  -3.633  0.00  0.00    -0.152 S 
BRANCH  21  22
ATOM     22  C   UNL     1       1.924   0.182  -3.889  0.00  0.00    +0.143 C 
BRANCH  22  23
ATOM     23  C   UNL     1       2.601   1.162  -4.812  0.00  0.00    +0.120 A 
ATOM     24  N   UNL     1       3.905   0.952  -5.131  0.00  0.00    -0.310 N 
ATOM     25  H   UNL     1       4.372   0.185  -4.764  0.00  0.00    +0.170 HD
ATOM     26  C   UNL     1       4.558   1.803  -5.957  0.00  0.00    +0.259 A 
ATOM     27  O   UNL     1       5.726   1.627  -6.252  0.00  0.00    -0.267 OA
ATOM     28  C   UNL     1       3.801   2.948  -6.484  0.00  0.00    +0.065 A 
ATOM     29  C   UNL     1       4.380   3.883  -7.341  0.00  0.00    +0.015 A 
ATOM     30  C   UNL     1       3.625   4.937  -7.805  0.00  0.00    +0.001 A 
ATOM     31  C   UNL     1       2.296   5.075  -7.426  0.00  0.00    +0.002 A 
ATOM     32  C   UNL     1       1.706   4.163  -6.580  0.00  0.00    +0.028 A 
ATOM     33  C   UNL     1       2.450   3.085  -6.097  0.00  0.00    +0.078 A 
ATOM     34  N   UNL     1       1.907   2.161  -5.266  0.00  0.00    -0.233 NA
ENDBRANCH  22  23
ENDBRANCH  21  22
ENDBRANCH   5  21
TORSDOF 6
