REMARK  Name = ZINC35327193
REMARK  4 active torsions:
REMARK  status: ('A' for Active; 'I' for Inactive)
REMARK    1  A    between atoms: C_10  and  N_11
REMARK    2  A    between atoms: N_14  and  C_15
REMARK    3  A    between atoms: C_15  and  C_16
REMARK    4  A    between atoms: N_18  and  C_19
REMARK                            x       y       z     vdW  Elec       q    Type
REMARK                         _______ _______ _______ _____ _____    ______ ____
ROOT
ATOM      1  N   UNL     1       4.953   0.136  -0.663  0.00  0.00    -0.269 N 
ATOM      2  C   UNL     1       6.096  -0.521  -0.383  0.00  0.00    +0.304 C 
ATOM      3  O   UNL     1       6.085  -1.730  -0.249  0.00  0.00    -0.252 OA
ATOM      4  N   UNL     1       7.250   0.161  -0.251  0.00  0.00    -0.291 N 
ATOM      5  H   UNL     1       4.974   1.087  -0.852  0.00  0.00    +0.156 HD
ATOM      6  H   UNL     1       7.259   1.125  -0.357  0.00  0.00    +0.151 HD
ENDROOT
BRANCH   1  16
ATOM      7  C   UNL     1       0.416   0.990  -2.703  0.00  0.00    +0.001 A 
ATOM      8  C   UNL     1       1.619   1.693  -2.698  0.00  0.00    +0.001 A 
ATOM      9  C   UNL     1       2.711   1.208  -2.045  0.00  0.00    +0.010 A 
ATOM     10  C   UNL     1       2.627  -0.018  -1.368  0.00  0.00    +0.003 A 
ATOM     11  C   UNL     1       1.405  -0.735  -1.373  0.00  0.00    -0.016 A 
ATOM     12  C   UNL     1       0.298  -0.202  -2.057  0.00  0.00    +0.008 A 
ATOM     13  C   UNL     1       1.319  -1.962  -0.695  0.00  0.00    +0.008 A 
ATOM     14  C   UNL     1       2.407  -2.454  -0.039  0.00  0.00    +0.002 A 
ATOM     15  C   UNL     1       3.613  -1.759  -0.027  0.00  0.00    +0.024 A 
ATOM     16  C   UNL     1       3.738  -0.552  -0.681  0.00  0.00    +0.042 A 
ENDBRANCH   1  16
BRANCH   4  17
ATOM     17  C   UNL     1       8.492  -0.553   0.054  0.00  0.00    +0.202 C 
BRANCH  17  18
ATOM     18  C   UNL     1       9.628   0.433   0.149  0.00  0.00    +0.234 C 
ATOM     19  O   UNL     1       9.421   1.616  -0.021  0.00  0.00    -0.274 OA
ATOM     20  N   UNL     1      10.875   0.000   0.423  0.00  0.00    -0.284 N 
ATOM     21  H   UNL     1      11.055  -0.951   0.486  0.00  0.00    +0.155 HD
BRANCH  20  22
ATOM     22  C   UNL     1      11.910   0.924   0.615  0.00  0.00    +0.034 A 
ATOM     23  C   UNL     1      13.201   0.616   0.206  0.00  0.00    +0.026 A 
ATOM     24  C   UNL     1      14.220   1.528   0.396  0.00  0.00    +0.040 A 
ATOM     25  C   UNL     1      13.956   2.748   0.995  0.00  0.00    +0.124 A 
ATOM     26  C   UNL     1      12.670   3.057   1.404  0.00  0.00    +0.040 A 
ATOM     27  C   UNL     1      11.646   2.150   1.210  0.00  0.00    +0.026 A 
ATOM     28  F   UNL     1      14.955   3.639   1.182  0.00  0.00    -0.205 F 
ENDBRANCH  20  22
ENDBRANCH  17  18
ENDBRANCH   4  17
TORSDOF 4
