REMARK  Name = ZINC15076922
REMARK  16 active torsions:
REMARK  status: ('A' for Active; 'I' for Inactive)
REMARK    1  A    between atoms: C_1  and  C_2
REMARK    2  A    between atoms: C_2  and  O_3
REMARK    3  A    between atoms: O_3  and  C_4
REMARK    4  A    between atoms: C_8  and  C_11
REMARK    5  A    between atoms: C_9  and  O_10
REMARK    6  A    between atoms: C_11  and  N_69
REMARK    7  A    between atoms: C_12  and  C_13
REMARK    8  A    between atoms: C_12  and  N_69
REMARK    9  A    between atoms: C_13  and  O_14
REMARK   10  A    between atoms: O_14  and  C_15
REMARK   11  A    between atoms: C_16  and  C_17
REMARK   12  A    between atoms: C_16  and  N_69
REMARK   13  A    between atoms: C_22  and  C_23
REMARK   14  A    between atoms: C_22  and  N_71
REMARK   15  A    between atoms: C_28  and  O_29
REMARK   16  A    between atoms: O_29  and  C_30
REMARK                            x       y       z     vdW  Elec       q    Type
REMARK                         _______ _______ _______ _____ _____    ______ ____
ROOT
ATOM      1  N   UNL     1       3.740  -4.761  -3.338  0.00  0.00    +0.384 N 
ATOM      2  H   UNL     1       4.378  -3.956  -3.358  0.00  0.00    -0.081 HD
ENDROOT
BRANCH   1   3
ATOM      3  C   UNL     1       3.759  -5.353  -1.984  0.00  0.00    -0.039 C 
BRANCH   3   8
ATOM      4  C   UNL     1       1.661  -3.152   0.271  0.00  0.00    +0.162 A 
ATOM      5  C   UNL     1       2.634  -2.359   0.857  0.00  0.00    +0.049 A 
ATOM      6  C   UNL     1       3.964  -2.536   0.523  0.00  0.00    +0.004 A 
ATOM      7  C   UNL     1       4.326  -3.504  -0.395  0.00  0.00    +0.005 A 
ATOM      8  C   UNL     1       3.360  -4.299  -0.984  0.00  0.00    -0.019 A 
ATOM      9  C   UNL     1       2.026  -4.130  -0.649  0.00  0.00    +0.160 A 
BRANCH   9  10
ATOM     10  O   UNL     1       1.075  -4.915  -1.223  0.00  0.00    -0.503 OA
ATOM     11  H   UNL     1       0.685  -4.539  -2.024  0.00  0.00    +0.292 HD
ENDBRANCH   9  10
BRANCH   4  12
ATOM     12  O   UNL     1       0.352  -2.978   0.598  0.00  0.00    -0.489 OA
BRANCH  12  14
ATOM     13  C   UNL     1      -1.459  -1.913   1.792  0.00  0.00    +0.048 C 
ATOM     14  C   UNL     1       0.052  -1.959   1.553  0.00  0.00    +0.226 C 
ENDBRANCH  12  14
ENDBRANCH   4  12
ENDBRANCH   3   8
ENDBRANCH   1   3
BRANCH   1  15
ATOM     15  C   UNL     1       2.376  -4.300  -3.669  0.00  0.00    -0.050 C 
BRANCH  15  16
ATOM     16  C   UNL     1       2.456  -3.342  -4.860  0.00  0.00    +0.141 C 
BRANCH  16  17
ATOM     17  O   UNL     1       2.841  -4.068  -6.029  0.00  0.00    -0.385 OA
ATOM     18  C   UNL     1       3.052  -3.248  -7.180  0.00  0.00    +0.193 C 
ENDBRANCH  16  17
ENDBRANCH  15  16
ENDBRANCH   1  15
BRANCH   1  19
ATOM     19  C   UNL     1       4.192  -5.757  -4.332  0.00  0.00    -0.075 C 
BRANCH  19  20
ATOM     20  C   UNL     1       5.667  -6.075  -4.077  0.00  0.00    -0.031 C 
ATOM     21  C   UNL     1       6.508  -4.816  -4.305  0.00  0.00    -0.017 C 
ATOM     22  C   UNL     1       7.988  -5.155  -4.109  0.00  0.00    -0.078 C 
ATOM     23  C   UNL     1       7.619  -7.440  -4.826  0.00  0.00    -0.078 C 
ATOM     24  C   UNL     1       6.128  -7.169  -5.043  0.00  0.00    -0.017 C 
ATOM     25  N   UNL     1       8.375  -6.196  -5.084  0.00  0.00    +0.382 N 
ATOM     26  H   UNL     1       8.156  -5.864  -6.031  0.00  0.00    -0.081 HD
BRANCH  25  27
ATOM     27  C   UNL     1       9.826  -6.459  -4.992  0.00  0.00    -0.039 C 
BRANCH  27  28
ATOM     28  C   UNL     1      10.572  -5.240  -5.471  0.00  0.00    -0.022 A 
ATOM     29  C   UNL     1      11.075  -5.199  -6.757  0.00  0.00    +0.005 A 
ATOM     30  C   UNL     1      11.755  -4.079  -7.198  0.00  0.00    +0.000 A 
ATOM     31  C   UNL     1      11.942  -3.002  -6.351  0.00  0.00    +0.004 A 
ATOM     32  C   UNL     1      11.446  -3.041  -5.063  0.00  0.00    +0.046 A 
ATOM     33  C   UNL     1      10.758  -4.162  -4.619  0.00  0.00    +0.121 A 
BRANCH  33  34
ATOM     34  O   UNL     1      10.269  -4.202  -3.352  0.00  0.00    -0.495 OA
ATOM     35  C   UNL     1      10.498  -3.056  -2.530  0.00  0.00    +0.277 C 
ENDBRANCH  33  34
ENDBRANCH  27  28
ENDBRANCH  25  27
ENDBRANCH  19  20
ENDBRANCH   1  19
TORSDOF 13
