REMARK  Name = ZINC22684349
REMARK  13 active torsions:
REMARK  status: ('A' for Active; 'I' for Inactive)
REMARK    1  A    between atoms: C_1  and  C_2
REMARK    2  A    between atoms: C_2  and  C_3
REMARK    3  A    between atoms: C_6  and  C_9
REMARK    4  A    between atoms: C_9  and  C_11
REMARK    5  A    between atoms: C_9  and  N_30
REMARK    6  A    between atoms: C_11  and  N_12
REMARK    7  A    between atoms: C_13  and  C_15
REMARK    8  A    between atoms: C_15  and  C_16
REMARK    9  A    between atoms: C_16  and  C_17
REMARK   10  A    between atoms: C_18  and  C_29
REMARK   11  A    between atoms: C_22  and  C_28
REMARK   12  A    between atoms: N_30  and  C_31
REMARK   13  A    between atoms: N_30  and  C_32
REMARK                            x       y       z     vdW  Elec       q    Type
REMARK                         _______ _______ _______ _____ _____    ______ ____
ROOT
ATOM      1  N   UNL     1       0.706   1.336   2.780  0.00  0.00    -0.317 N 
ATOM      2  C   UNL     1       0.549   1.647   1.478  0.00  0.00    +0.213 C 
ATOM      3  O   UNL     1      -0.443   2.243   1.112  0.00  0.00    -0.276 OA
ATOM      4  H   UNL     1       1.605   0.796   3.111  0.00  0.00    +0.149 HD
ENDROOT
BRANCH   1   5
ATOM      5  C   UNL     1      -0.321   1.716   3.753  0.00  0.00    +0.093 C 
BRANCH   5   6
ATOM      6  C   UNL     1       0.035   1.136   5.123  0.00  0.00    -0.021 C 
BRANCH   6  10
ATOM      7  C   UNL     1       0.005  -3.131   4.914  0.00  0.00    -0.048 A 
ATOM      8  C   UNL     1       1.204  -2.444   4.855  0.00  0.00    +0.004 A 
ATOM      9  C   UNL     1       1.213  -1.064   4.922  0.00  0.00    +0.002 A 
ATOM     10  C   UNL     1       0.025  -0.369   5.049  0.00  0.00    -0.059 A 
ATOM     11  C   UNL     1      -1.173  -1.056   5.114  0.00  0.00    +0.002 A 
ATOM     12  C   UNL     1      -1.183  -2.436   5.041  0.00  0.00    +0.004 A 
BRANCH   7  14
ATOM     13  C   UNL     1       0.103  -5.216   6.253  0.00  0.00    +0.009 C 
ATOM     14  C   UNL     1      -0.005  -4.636   4.841  0.00  0.00    +0.032 C 
ENDBRANCH   7  14
ENDBRANCH   6  10
BRANCH   6  15
ATOM     15  N   UNL     1      -0.950   1.584   6.116  0.00  0.00    +0.382 N 
ATOM     16  C   UNL     1      -0.610   1.087   7.456  0.00  0.00    -0.096 C 
ATOM     17  C   UNL     1      -1.072   3.048   6.113  0.00  0.00    -0.096 C 
ATOM     18  H   UNL     1      -1.927   1.163   5.837  0.00  0.00    -0.082 HD
ENDBRANCH   6  15
ENDBRANCH   5   6
ENDBRANCH   1   5
BRANCH   2  19
ATOM     19  C   UNL     1       1.605   1.256   0.477  0.00  0.00    +0.100 C 
BRANCH  19  20
ATOM     20  C   UNL     1       1.184   1.725  -0.918  0.00  0.00    +0.052 C 
BRANCH  20  21
ATOM     21  C   UNL     1       2.240   1.334  -1.919  0.00  0.00    +0.041 A 
ATOM     22  C   UNL     1       2.169   0.134  -2.550  0.00  0.00    -0.030 A 
ATOM     23  C   UNL     1       3.219  -0.203  -3.516  0.00  0.00    +0.021 A 
ATOM     24  C   UNL     1       3.205  -1.423  -4.200  0.00  0.00    +0.012 A 
ATOM     25  C   UNL     1       4.197  -1.709  -5.094  0.00  0.00    +0.004 A 
ATOM     26  C   UNL     1       5.218  -0.800  -5.329  0.00  0.00    -0.047 A 
ATOM     27  C   UNL     1       5.250   0.409  -4.665  0.00  0.00    +0.050 A 
ATOM     28  C   UNL     1       4.252   0.721  -3.751  0.00  0.00    +0.140 A 
ATOM     29  O   UNL     1       4.264   1.898  -3.090  0.00  0.00    -0.422 OA
ATOM     30  C   UNL     1       3.304   2.216  -2.208  0.00  0.00    +0.341 A 
ATOM     31  O   UNL     1       3.353   3.292  -1.639  0.00  0.00    -0.245 OA
ATOM     32  C   UNL     1       6.303  -1.135  -6.319  0.00  0.00    +0.044 C 
ATOM     33  C   UNL     1       1.042  -0.825  -2.265  0.00  0.00    +0.045 C 
ENDBRANCH  20  21
ENDBRANCH  19  20
ENDBRANCH   2  19
TORSDOF 8
