REMARK  Name = ZINC13597837
REMARK  4 active torsions:
REMARK  status: ('A' for Active; 'I' for Inactive)
REMARK    1  A    between atoms: C_9  and  C_12
REMARK    2  A    between atoms: N_14  and  N_15
REMARK    3  A    between atoms: C_16  and  C_17
REMARK    4  A    between atoms: C_20  and  C_22
REMARK                            x       y       z     vdW  Elec       q    Type
REMARK                         _______ _______ _______ _____ _____    ______ ____
ROOT
ATOM      1  N   UNL     1      -2.182   9.481  -0.009  0.00  0.00    -0.185 NA
ATOM      2  C   UNL     1      -3.192  10.260   0.250  0.00  0.00    +0.176 C 
ENDROOT
BRANCH   2   3
ATOM      3  C   UNL     1      -4.346   9.742   0.989  0.00  0.00    +0.148 A 
ATOM      4  C   UNL     1      -5.522  10.417   1.227  0.00  0.00    +0.051 A 
ATOM      5  C   UNL     1      -6.342   9.553   1.965  0.00  0.00    +0.050 A 
ATOM      6  C   UNL     1      -5.643   8.397   2.147  0.00  0.00    +0.137 A 
ATOM      7  O   UNL     1      -4.443   8.520   1.550  0.00  0.00    -0.454 OA
BRANCH   6   8
ATOM      8  C   UNL     1      -6.125   7.205   2.874  0.00  0.00    +0.037 A 
ATOM      9  C   UNL     1      -6.034   5.941   2.287  0.00  0.00    +0.033 A 
ATOM     10  C   UNL     1      -6.487   4.832   2.972  0.00  0.00    +0.042 A 
ATOM     11  C   UNL     1      -7.029   4.970   4.239  0.00  0.00    +0.021 A 
ATOM     12  C   UNL     1      -7.122   6.219   4.827  0.00  0.00    +0.022 A 
ATOM     13  C   UNL     1      -6.668   7.337   4.155  0.00  0.00    +0.052 A 
ATOM     14 CL   UNL     1      -6.779   8.902   4.897  0.00  0.00    -0.083 Cl
ATOM     15 CL   UNL     1      -6.375   3.260   2.245  0.00  0.00    -0.084 Cl
ENDBRANCH   6   8
ENDBRANCH   2   3
BRANCH   1  18
ATOM     16  C   UNL     1      -1.248   7.291  -0.063  0.00  0.00    +0.276 C 
ATOM     17  O   UNL     1      -0.268   7.738  -0.620  0.00  0.00    -0.270 OA
ATOM     18  N   UNL     1      -2.261   8.112   0.279  0.00  0.00    -0.204 N 
ATOM     19  H   UNL     1      -3.045   7.755   0.725  0.00  0.00    +0.177 HD
BRANCH  16  28
ATOM     20  C   UNL     1      -0.132   1.049  -0.336  0.00  0.00    +0.004 A 
ATOM     21  C   UNL     1       1.065   1.737  -0.269  0.00  0.00    +0.004 A 
ATOM     22  C   UNL     1       1.068   3.117  -0.197  0.00  0.00    +0.049 A 
ATOM     23  C   UNL     1      -0.131   3.816  -0.193  0.00  0.00    +0.163 A 
ATOM     24  C   UNL     1      -1.334   3.123  -0.259  0.00  0.00    +0.162 A 
ATOM     25  C   UNL     1      -1.330   1.739  -0.337  0.00  0.00    +0.049 A 
ATOM     26  O   UNL     1      -2.521   3.789  -0.252  0.00  0.00    -0.484 OA
ATOM     27  C   UNL     1      -2.477   5.186  -0.558  0.00  0.00    +0.283 C 
ATOM     28  C   UNL     1      -1.334   5.819   0.246  0.00  0.00    +0.297 C 
ATOM     29  O   UNL     1      -0.111   5.175  -0.129  0.00  0.00    -0.472 OA
ENDBRANCH  16  28
ENDBRANCH   1  18
TORSDOF 4
