REMARK  Name = ZINC19980210
REMARK  5 active torsions:
REMARK  status: ('A' for Active; 'I' for Inactive)
REMARK    1  A    between atoms: C_4  and  C_18
REMARK    2  A    between atoms: C_5  and  C_7
REMARK    3  A    between atoms: C_7  and  O_8
REMARK    4  A    between atoms: O_8  and  C_9
REMARK    5  A    between atoms: N_19  and  O_20
REMARK                            x       y       z     vdW  Elec       q    Type
REMARK                         _______ _______ _______ _____ _____    ______ ____
ROOT
ATOM      1  C   UNL     1       0.439  -4.041  -0.025  0.00  0.00    +0.000 A 
ATOM      2  C   UNL     1      -0.642  -4.905  -0.019  0.00  0.00    +0.001 A 
ATOM      3  C   UNL     1      -1.928  -4.406  -0.004  0.00  0.00    +0.012 A 
ATOM      4  C   UNL     1      -2.138  -3.027   0.006  0.00  0.00    +0.024 A 
ATOM      5  C   UNL     1      -1.044  -2.161   0.000  0.00  0.00    +0.000 A 
ATOM      6  C   UNL     1       0.237  -2.673  -0.020  0.00  0.00    +0.007 A 
ENDROOT
BRANCH   4   7
ATOM      7  C   UNL     1      -3.515  -2.485   0.023  0.00  0.00    +0.163 C 
ATOM      8  N   UNL     1      -3.708  -1.198   0.033  0.00  0.00    -0.072 NA
ATOM      9  N   UNL     1      -4.599  -3.347   0.029  0.00  0.00    -0.340 N 
ATOM     10  H   UNL     1      -5.622  -2.944   0.042  0.00  0.00    +0.144 HD
ATOM     11  H   UNL     1      -4.436  -4.435   0.021  0.00  0.00    +0.144 HD
BRANCH   8  12
ATOM     12  O   UNL     1      -5.025  -0.680   0.049  0.00  0.00    -0.408 OA
ATOM     13  H   UNL     1      -5.188   0.408   0.057  0.00  0.00    +0.328 HD
ENDBRANCH   8  12
ENDBRANCH   4   7
BRANCH   5  14
ATOM     14  C   UNL     1      -1.262  -0.670   0.011  0.00  0.00    +0.265 C 
BRANCH  14  15
ATOM     15  O   UNL     1       0.002  -0.004   0.002  0.00  0.00    -0.486 OA
BRANCH  15  16
ATOM     16  C   UNL     1      -0.016   1.355   0.009  0.00  0.00    +0.141 A 
ATOM     17  C   UNL     1      -1.226   2.033   0.019  0.00  0.00    +0.068 A 
ATOM     18  C   UNL     1      -1.243   3.416   0.032  0.00  0.00    +0.063 A 
ATOM     19  C   UNL     1      -0.053   4.123   0.025  0.00  0.00    +0.061 A 
ATOM     20  C   UNL     1       1.155   3.449   0.010  0.00  0.00    +0.045 A 
ATOM     21  C   UNL     1       1.176   2.066   0.002  0.00  0.00    +0.084 A 
ATOM     22 CL   UNL     1       2.692   1.220  -0.017  0.00  0.00    -0.080 Cl
ATOM     23 CL   UNL     1      -0.076   5.859   0.035  0.00  0.00    -0.082 Cl
ATOM     24 CL   UNL     1      -2.757   4.265   0.051  0.00  0.00    -0.082 Cl
ENDBRANCH  15  16
ENDBRANCH  14  15
ENDBRANCH   5  14
TORSDOF 5
