REMARK  Name = ZINC19791173
REMARK  9 active torsions:
REMARK  status: ('A' for Active; 'I' for Inactive)
REMARK    1  A    between atoms: C_1  and  C_2
REMARK    2  A    between atoms: C_7  and  C_8
REMARK    3  A    between atoms: C_10  and  C_13
REMARK    4  A    between atoms: C_13  and  N_14
REMARK    5  A    between atoms: N_14  and  C_15
REMARK    6  A    between atoms: N_14  and  C_16
REMARK    7  A    between atoms: C_16  and  C_17
REMARK    8  A    between atoms: C_18  and  C_30
REMARK    9  A    between atoms: C_20  and  C_22
REMARK                            x       y       z     vdW  Elec       q    Type
REMARK                         _______ _______ _______ _____ _____    ______ ____
ROOT
ATOM      1  N   UNL     1      -0.700   1.560   1.217  0.00  0.00    +0.386 N 
ATOM      2  C   UNL     1      -2.034   0.955   1.335  0.00  0.00    -0.095 C 
ATOM      3  H   UNL     1      -0.829   2.648   1.127  0.00  0.00    -0.081 HD
ENDROOT
BRANCH   1   4
ATOM      4  C   UNL     1      -0.013   1.086   0.008  0.00  0.00    -0.003 C 
BRANCH   4  14
ATOM      5  C   UNL     1      -2.726   4.551  -5.993  0.00  0.00    +0.044 C 
ATOM      6  C   UNL     1      -2.526   3.555  -4.880  0.00  0.00    -0.045 A 
ATOM      7  C   UNL     1      -1.505   3.741  -3.971  0.00  0.00    +0.031 A 
ATOM      8  C   UNL     1      -1.321   2.823  -2.946  0.00  0.00    +0.066 A 
ATOM      9  C   UNL     1      -2.176   1.713  -2.841  0.00  0.00    +0.089 A 
ATOM     10  C   UNL     1      -3.204   1.546  -3.772  0.00  0.00    +0.033 A 
ATOM     11  C   UNL     1      -3.369   2.459  -4.775  0.00  0.00    -0.045 A 
ATOM     12  C   UNL     1      -4.480   2.274  -5.777  0.00  0.00    +0.044 C 
ATOM     13  N   UNL     1      -1.762   0.996  -1.764  0.00  0.00    -0.234 NA
ATOM     14  C   UNL     1      -0.742   1.585  -1.213  0.00  0.00    +0.091 A 
ATOM     15  N   UNL     1      -0.425   2.714  -1.902  0.00  0.00    -0.343 N 
ATOM     16  H   UNL     1       0.358   3.475  -1.767  0.00  0.00    +0.167 HD
ENDBRANCH   4  14
ENDBRANCH   1   4
BRANCH   1  17
ATOM     17  C   UNL     1       0.104   1.297   2.417  0.00  0.00    -0.019 C 
BRANCH  17  18
ATOM     18  C   UNL     1      -0.508   2.007   3.597  0.00  0.00    +0.066 A 
ATOM     19  C   UNL     1      -1.435   1.502   4.431  0.00  0.00    +0.124 A 
ATOM     20  O   UNL     1      -1.711   2.454   5.345  0.00  0.00    -0.440 OA
ATOM     21  C   UNL     1      -0.952   3.527   5.061  0.00  0.00    +0.230 A 
ATOM     22  N   UNL     1      -0.221   3.252   4.006  0.00  0.00    -0.216 NA
ATOM     23  C   UNL     1      -2.050   0.129   4.358  0.00  0.00    +0.088 C 
BRANCH  21  24
ATOM     24  C   UNL     1      -0.939   4.799   5.813  0.00  0.00    +0.075 A 
ATOM     25  C   UNL     1      -1.765   4.963   6.926  0.00  0.00    +0.016 A 
ATOM     26  C   UNL     1      -1.749   6.152   7.625  0.00  0.00    +0.004 A 
ATOM     27  C   UNL     1      -0.917   7.184   7.226  0.00  0.00    +0.041 A 
ATOM     28  C   UNL     1      -0.094   7.030   6.123  0.00  0.00    +0.159 A 
ATOM     29  C   UNL     1      -0.096   5.840   5.416  0.00  0.00    +0.171 A 
ATOM     30  F   UNL     1       0.710   5.687   4.343  0.00  0.00    -0.202 F 
ATOM     31  F   UNL     1       0.715   8.042   5.739  0.00  0.00    -0.202 F 
ENDBRANCH  21  24
ENDBRANCH  17  18
ENDBRANCH   1  17
TORSDOF 5
