REMARK  Name = ZINC24751740
REMARK  8 active torsions:
REMARK  status: ('A' for Active; 'I' for Inactive)
REMARK    1  A    between atoms: C_10  and  O_11
REMARK    2  A    between atoms: O_11  and  C_12
REMARK    3  A    between atoms: C_12  and  C_13
REMARK    4  A    between atoms: C_13  and  C_15
REMARK    5  A    between atoms: C_13  and  O_29
REMARK    6  A    between atoms: C_15  and  N_16
REMARK    7  A    between atoms: C_19  and  C_22
REMARK    8  A    between atoms: C_25  and  O_28
REMARK                            x       y       z     vdW  Elec       q    Type
REMARK                         _______ _______ _______ _____ _____    ______ ____
ROOT
ATOM      1  C   UNL     1      -4.957   8.053   0.213  0.00  0.00    -0.043 C 
ENDROOT
BRANCH   1   2
ATOM      2  N   UNL     1      -4.777   9.506   0.338  0.00  0.00    +0.384 N 
ATOM      3  C   UNL     1      -4.436  10.109  -0.961  0.00  0.00    -0.074 C 
ATOM      4  C   UNL     1      -4.575  11.629  -0.842  0.00  0.00    +0.017 C 
ATOM      5  C   UNL     1      -3.848  12.111   0.383  0.00  0.00    -0.048 C 
ATOM      6  C   UNL     1      -3.482  11.303   1.354  0.00  0.00    -0.041 C 
ATOM      7  C   UNL     1      -3.745   9.825   1.333  0.00  0.00    -0.051 C 
ATOM      8  H   UNL     1      -5.732   9.931   0.682  0.00  0.00    -0.081 HD
BRANCH   5   9
ATOM      9  C   UNL     1      -3.533  13.549   0.500  0.00  0.00    -0.022 A 
ATOM     10  C   UNL     1      -4.563  14.486   0.599  0.00  0.00    +0.012 A 
ATOM     11  C   UNL     1      -4.264  15.827   0.714  0.00  0.00    +0.046 A 
ATOM     12  C   UNL     1      -2.941  16.247   0.719  0.00  0.00    +0.117 A 
ATOM     13  C   UNL     1      -1.913  15.319   0.615  0.00  0.00    +0.046 A 
ATOM     14  C   UNL     1      -2.204  13.976   0.505  0.00  0.00    +0.012 A 
BRANCH  12  15
ATOM     15  O   UNL     1      -2.650  17.570   0.827  0.00  0.00    -0.507 OA
ATOM     16  H   UNL     1      -1.602  17.905   0.832  0.00  0.00    +0.292 HD
ENDBRANCH  12  15
ENDBRANCH   5   9
ENDBRANCH   1   2
BRANCH   1  17
ATOM     17  C   UNL     1      -3.591   7.383   0.053  0.00  0.00    +0.135 C 
BRANCH  17  18
ATOM     18  O   UNL     1      -2.993   7.806  -1.174  0.00  0.00    -0.390 OA
ATOM     19  H   UNL     1      -2.787   8.873  -1.346  0.00  0.00    +0.210 HD
ENDBRANCH  17  18
BRANCH  17  20
ATOM     20  C   UNL     1      -3.768   5.863   0.036  0.00  0.00    +0.258 C 
BRANCH  20  21
ATOM     21  O   UNL     1      -2.486   5.234   0.004  0.00  0.00    -0.489 OA
BRANCH  21  31
ATOM     22  C   UNL     1       1.154   1.780  -0.109  0.00  0.00    +0.001 A 
ATOM     23  C   UNL     1       1.154   3.173  -0.090  0.00  0.00    +0.001 A 
ATOM     24  C   UNL     1      -0.013   3.874  -0.059  0.00  0.00    +0.012 A 
ATOM     25  C   UNL     1      -1.236   3.186  -0.046  0.00  0.00    +0.024 A 
ATOM     26  C   UNL     1      -1.237   1.769  -0.071  0.00  0.00    -0.014 A 
ATOM     27  C   UNL     1      -0.013   1.079  -0.097  0.00  0.00    +0.008 A 
ATOM     28  C   UNL     1      -2.462   1.080  -0.052  0.00  0.00    +0.009 A 
ATOM     29  C   UNL     1      -3.631   1.778  -0.020  0.00  0.00    +0.004 A 
ATOM     30  C   UNL     1      -3.635   3.170  -0.002  0.00  0.00    +0.046 A 
ATOM     31  C   UNL     1      -2.465   3.876  -0.014  0.00  0.00    +0.128 A 
ENDBRANCH  21  31
ENDBRANCH  20  21
ENDBRANCH  17  20
ENDBRANCH   1  17
TORSDOF 8
