REMARK  Name = ZINC08185343
REMARK  2 active torsions:
REMARK  status: ('A' for Active; 'I' for Inactive)
REMARK    1  A    between atoms: N_12  and  C_16
REMARK    2  A    between atoms: C_16  and  C_17
REMARK                            x       y       z     vdW  Elec       q    Type
REMARK                         _______ _______ _______ _____ _____    ______ ____
ROOT
ATOM      1  C   UNL     1      -0.013   1.076   0.008  0.00  0.00    +0.000 A 
ATOM      2  C   UNL     1       1.175   1.784   0.000  0.00  0.00    +0.000 A 
ATOM      3  C   UNL     1       1.153   3.165   0.006  0.00  0.00    +0.006 A 
ATOM      4  C   UNL     1      -0.053   3.846   0.020  0.00  0.00    -0.012 A 
ATOM      5  C   UNL     1      -1.242   3.135   0.030  0.00  0.00    -0.042 A 
ATOM      6  C   UNL     1      -1.217   1.751   0.017  0.00  0.00    +0.004 A 
ATOM      7  C   UNL     1      -2.413   4.095   0.052  0.00  0.00    +0.038 C 
ATOM      8  C   UNL     1      -1.827   5.460  -0.378  0.00  0.00    +0.045 C 
ATOM      9  C   UNL     1      -0.354   5.320   0.024  0.00  0.00    +0.138 C 
ATOM     10  C   UNL     1      -0.096   5.936   1.375  0.00  0.00    +0.251 C 
ATOM     11  O   UNL     1      -0.607   5.634   2.431  0.00  0.00    -0.272 OA
ATOM     12  N   UNL     1       0.828   6.898   1.156  0.00  0.00    -0.218 N 
ATOM     13  C   UNL     1       1.176   6.962  -0.136  0.00  0.00    +0.310 C 
ATOM     14  O   UNL     1       1.990   7.748  -0.579  0.00  0.00    -0.252 OA
ATOM     15  N   UNL     1       0.521   6.056  -0.890  0.00  0.00    -0.281 N 
ATOM     16  H   UNL     1       0.611   5.919  -1.846  0.00  0.00    +0.152 HD
ENDROOT
BRANCH  12  17
ATOM     17  C   UNL     1       1.381   7.762   2.201  0.00  0.00    +0.177 C 
BRANCH  17  18
ATOM     18  C   UNL     1       2.607   7.115   2.792  0.00  0.00    +0.108 A 
ATOM     19  C   UNL     1       3.862   7.322   2.305  0.00  0.00    +0.123 A 
ATOM     20  S   UNL     1       4.801   6.335   3.375  0.00  0.00    +0.049 S 
ATOM     21  N   UNL     1       3.639   5.777   4.287  0.00  0.00    -0.109 NA
ATOM     22  N   UNL     1       2.561   6.305   3.829  0.00  0.00    -0.143 NA
ATOM     23 CL   UNL     1       4.381   8.306   0.972  0.00  0.00    -0.072 Cl
ENDBRANCH  17  18
ENDBRANCH  12  17
TORSDOF 2
