REMARK  Name = ZINC08969943
REMARK  8 active torsions:
REMARK  status: ('A' for Active; 'I' for Inactive)
REMARK    1  A    between atoms: C_1  and  N_58
REMARK    2  A    between atoms: C_8  and  O_31
REMARK    3  A    between atoms: C_10  and  C_12
REMARK    4  A    between atoms: C_12  and  N_13
REMARK    5  A    between atoms: C_14  and  C_15
REMARK    6  A    between atoms: C_19  and  S_30
REMARK    7  A    between atoms: N_20  and  C_23
REMARK    8  A    between atoms: O_31  and  C_32
REMARK                            x       y       z     vdW  Elec       q    Type
REMARK                         _______ _______ _______ _____ _____    ______ ____
ROOT
ATOM      1  N   UNL     1      -4.075   0.078  -1.310  0.00  0.00    -0.296 NA
ATOM      2  C   UNL     1      -4.424   1.316  -1.714  0.00  0.00    +0.099 C 
ENDROOT
BRANCH   2   3
ATOM      3  C   UNL     1      -4.891   1.517  -3.000  0.00  0.00    +0.204 C 
ATOM      4  C   UNL     1      -5.167   0.384  -3.907  0.00  0.00    +0.255 C 
ATOM      5  O   UNL     1      -4.989  -0.766  -3.541  0.00  0.00    -0.272 OA
ATOM      6  N   UNL     1      -5.624   0.649  -5.140  0.00  0.00    -0.158 NA
ATOM      7  C   UNL     1      -5.825   1.878  -5.557  0.00  0.00    +0.157 C 
ATOM      8  N   UNL     1      -5.593   2.982  -4.791  0.00  0.00    -0.220 N 
ATOM      9  C   UNL     1      -5.130   2.870  -3.528  0.00  0.00    +0.243 C 
ATOM     10  O   UNL     1      -4.923   3.856  -2.845  0.00  0.00    -0.274 OA
BRANCH   8  11
ATOM     11  C   UNL     1      -5.837   4.255  -5.325  0.00  0.00    +0.043 A 
ATOM     12  C   UNL     1      -5.055   4.734  -6.367  0.00  0.00    +0.025 A 
ATOM     13  C   UNL     1      -5.302   5.986  -6.896  0.00  0.00    +0.022 A 
ATOM     14  C   UNL     1      -6.320   6.767  -6.379  0.00  0.00    +0.041 A 
ATOM     15  C   UNL     1      -7.098   6.294  -5.336  0.00  0.00    +0.022 A 
ATOM     16  C   UNL     1      -6.859   5.041  -4.809  0.00  0.00    +0.025 A 
ATOM     17 CL   UNL     1      -6.623   8.344  -7.040  0.00  0.00    -0.084 Cl
ENDBRANCH   8  11
BRANCH   7  18
ATOM     18  S   UNL     1      -6.427   2.113  -7.197  0.00  0.00    -0.110 S 
ATOM     19  H   UNL     1      -6.524   0.770  -7.617  0.00  0.00    +0.110 HD
ENDBRANCH   7  18
ENDBRANCH   2   3
BRANCH   1  20
ATOM     20  C   UNL     1      -3.580  -0.136   0.052  0.00  0.00    +0.130 C 
BRANCH  20  30
ATOM     21  C   UNL     1      -1.100  -1.542  -0.519  0.00  0.00    -0.095 C 
ATOM     22  C   UNL     1      -2.343  -3.621  -0.594  0.00  0.00    -0.074 C 
ATOM     23  C   UNL     1      -3.642  -4.216  -1.137  0.00  0.00    +0.017 C 
ATOM     24  C   UNL     1      -4.826  -3.543  -0.490  0.00  0.00    -0.040 A 
ATOM     25  C   UNL     1      -6.063  -4.164  -0.572  0.00  0.00    +0.053 A 
ATOM     26  C   UNL     1      -7.181  -3.584   0.004  0.00  0.00    +0.170 A 
ATOM     27  C   UNL     1      -7.060  -2.368   0.670  0.00  0.00    +0.208 A 
ATOM     28  C   UNL     1      -5.820  -1.751   0.751  0.00  0.00    +0.167 A 
ATOM     29  C   UNL     1      -4.701  -2.341   0.171  0.00  0.00    -0.011 A 
ATOM     30  C   UNL     1      -3.377  -1.633   0.292  0.00  0.00    -0.012 C 
ATOM     31  O   UNL     1      -8.289  -2.006   1.145  0.00  0.00    -0.449 OA
ATOM     32  C   UNL     1      -9.080  -3.209   1.117  0.00  0.00    +0.467 C 
ATOM     33  O   UNL     1      -8.484  -3.986   0.062  0.00  0.00    -0.452 OA
ATOM     34  N   UNL     1      -2.434  -2.151  -0.713  0.00  0.00    +0.384 N 
ATOM     35  H   UNL     1      -2.777  -1.911  -1.650  0.00  0.00    -0.081 HD
BRANCH  28  36
ATOM     36  O   UNL     1      -5.699  -0.562   1.402  0.00  0.00    -0.491 OA
ATOM     37  C   UNL     1      -5.403  -0.615   2.799  0.00  0.00    +0.277 C 
ENDBRANCH  28  36
ENDBRANCH  20  30
ENDBRANCH   1  20
TORSDOF 6
