REMARK  Name = ZINC39884104
REMARK  8 active torsions:
REMARK  status: ('A' for Active; 'I' for Inactive)
REMARK    1  A    between atoms: C_1  and  C_2
REMARK    2  A    between atoms: C_2  and  C_3
REMARK    3  A    between atoms: C_2  and  C_4
REMARK    4  A    between atoms: C_2  and  C_5
REMARK    5  A    between atoms: C_8  and  C_11
REMARK    6  A    between atoms: N_15  and  C_19
REMARK    7  A    between atoms: C_19  and  C_20
REMARK    8  A    between atoms: N_22  and  C_23
REMARK                            x       y       z     vdW  Elec       q    Type
REMARK                         _______ _______ _______ _____ _____    ______ ____
ROOT
ATOM      1  C   UNL     1       2.707  -1.876  -4.768  0.00  0.00    +0.072 C 
ATOM      2  C   UNL     1       3.909  -2.689  -4.371  0.00  0.00    +0.033 A 
ATOM      3  C   UNL     1       5.144  -2.719  -4.918  0.00  0.00    +0.091 A 
ATOM      4  N   UNL     1       6.032  -3.564  -4.301  0.00  0.00    -0.288 N 
ATOM      5  C   UNL     1       5.638  -4.297  -3.242  0.00  0.00    +0.292 A 
ATOM      6  O   UNL     1       6.291  -5.091  -2.588  0.00  0.00    -0.259 OA
ATOM      7  S   UNL     1       4.028  -3.854  -3.040  0.00  0.00    -0.030 S 
ATOM      8  S   UNL     1       5.544  -1.726  -6.350  0.00  0.00    -0.093 S 
ATOM      9  C   UNL     1       3.880  -1.238  -6.872  0.00  0.00    +0.153 C 
ATOM     10  C   UNL     1       3.176  -0.704  -5.588  0.00  0.00    +0.112 C 
ATOM     11  C   UNL     1       2.185   0.242  -6.182  0.00  0.00    +0.245 C 
ATOM     12  O   UNL     1       1.016   0.617  -5.642  0.00  0.00    -0.273 OA
ATOM     13  N   UNL     1       2.680   0.639  -7.340  0.00  0.00    -0.145 NA
ATOM     14  C   UNL     1       3.820   0.003  -7.722  0.00  0.00    +0.253 C 
ATOM     15  O   UNL     1       4.623   0.358  -8.561  0.00  0.00    -0.272 OA
ENDROOT
BRANCH   1  19
ATOM     16  C   UNL     1       0.701  -0.475  -1.266  0.00  0.00    -0.042 A 
ATOM     17  C   UNL     1       0.032  -1.276  -2.172  0.00  0.00    +0.004 A 
ATOM     18  C   UNL     1       0.681  -1.730  -3.305  0.00  0.00    +0.004 A 
ATOM     19  C   UNL     1       1.999  -1.381  -3.533  0.00  0.00    -0.039 A 
ATOM     20  C   UNL     1       2.668  -0.579  -2.627  0.00  0.00    +0.004 A 
ATOM     21  C   UNL     1       2.018  -0.122  -1.496  0.00  0.00    +0.004 A 
BRANCH  16  23
ATOM     22  C   UNL     1      -0.029   1.550  -0.034  0.00  0.00    +0.015 C 
ATOM     23  C   UNL     1      -0.007   0.020  -0.031  0.00  0.00    -0.013 C 
ATOM     24  C   UNL     1       0.732  -0.477   1.213  0.00  0.00    +0.015 C 
ATOM     25  C   UNL     1      -1.442  -0.511  -0.019  0.00  0.00    +0.015 C 
ENDBRANCH  16  23
ENDBRANCH   1  19
BRANCH   4  26
ATOM     26  C   UNL     1       7.407  -3.668  -4.793  0.00  0.00    +0.222 C 
BRANCH  26  27
ATOM     27  C   UNL     1       8.271  -2.654  -4.089  0.00  0.00    +0.237 C 
ATOM     28  O   UNL     1       7.786  -1.917  -3.257  0.00  0.00    -0.274 OA
ATOM     29  N   UNL     1       9.584  -2.567  -4.383  0.00  0.00    -0.284 N 
ATOM     30  H   UNL     1       9.986  -3.200  -4.998  0.00  0.00    +0.155 HD
BRANCH  29  31
ATOM     31  C   UNL     1      10.366  -1.562  -3.801  0.00  0.00    +0.033 A 
ATOM     32  C   UNL     1      11.393  -0.973  -4.526  0.00  0.00    +0.023 A 
ATOM     33  C   UNL     1      12.162   0.018  -3.948  0.00  0.00    +0.002 A 
ATOM     34  C   UNL     1      11.911   0.423  -2.650  0.00  0.00    +0.000 A 
ATOM     35  C   UNL     1      10.890  -0.163  -1.926  0.00  0.00    +0.002 A 
ATOM     36  C   UNL     1      10.112  -1.150  -2.499  0.00  0.00    +0.023 A 
ENDBRANCH  29  31
ENDBRANCH  26  27
ENDBRANCH   4  26
TORSDOF 5
