REMARK  Name = ZINC16652496
REMARK  7 active torsions:
REMARK  status: ('A' for Active; 'I' for Inactive)
REMARK    1  A    between atoms: C_1  and  C_2
REMARK    2  A    between atoms: C_2  and  C_3
REMARK    3  A    between atoms: C_6  and  C_13
REMARK    4  A    between atoms: C_8  and  S_9
REMARK    5  A    between atoms: S_9  and  N_12
REMARK    6  A    between atoms: N_19  and  C_20
REMARK    7  A    between atoms: C_20  and  C_21
REMARK                            x       y       z     vdW  Elec       q    Type
REMARK                         _______ _______ _______ _____ _____    ______ ____
ROOT
ATOM      1  C   UNL     1      -1.607  -2.844  -1.863  0.00  0.00    +0.093 A 
ATOM      2  C   UNL     1      -1.667  -4.240  -1.801  0.00  0.00    +0.033 A 
ATOM      3  C   UNL     1      -2.466  -4.897  -2.718  0.00  0.00    +0.047 A 
ATOM      4  C   UNL     1      -3.164  -4.126  -3.650  0.00  0.00    +0.141 A 
ATOM      5  N   UNL     1      -3.047  -2.806  -3.635  0.00  0.00    -0.134 NA
ATOM      6  N   UNL     1      -2.309  -2.195  -2.781  0.00  0.00    -0.147 NA
ATOM      7  N   UNL     1      -3.980  -4.742  -4.591  0.00  0.00    -0.323 N 
ATOM      8  H   UNL     1      -4.464  -4.205  -5.238  0.00  0.00    +0.148 HD
ENDROOT
BRANCH   1  12
ATOM      9  C   UNL     1       0.808  -0.688   0.893  0.00  0.00    -0.021 A 
ATOM     10  C   UNL     1       0.832  -2.072   0.892  0.00  0.00    +0.006 A 
ATOM     11  C   UNL     1       0.050  -2.776  -0.001  0.00  0.00    +0.010 A 
ATOM     12  C   UNL     1      -0.764  -2.092  -0.902  0.00  0.00    +0.004 A 
ATOM     13  C   UNL     1      -0.788  -0.699  -0.891  0.00  0.00    +0.039 A 
ATOM     14  C   UNL     1       0.002  -0.004   0.002  0.00  0.00    +0.109 A 
BRANCH  14  15
ATOM     15  S   UNL     1      -0.022   1.758   0.012  0.00  0.00    +0.056 S 
ATOM     16  O   UNL     1       1.334   2.182   0.001  0.00  0.00    -0.153 OA
ATOM     17  O   UNL     1      -0.953   2.157  -0.985  0.00  0.00    -0.153 OA
BRANCH  15  18
ATOM     18  N   UNL     1      -0.654   2.231   1.467  0.00  0.00    -0.204 NA
ATOM     19  H   UNL     1      -0.378   3.071   1.866  0.00  0.00    +0.144 HD
ATOM     20  H   UNL     1      -1.301   1.668   1.921  0.00  0.00    +0.144 HD
ENDBRANCH  15  18
ENDBRANCH  14  15
BRANCH   9  22
ATOM     21  C   UNL     1       0.838   0.423   3.110  0.00  0.00    +0.009 C 
ATOM     22  C   UNL     1       1.664   0.076   1.870  0.00  0.00    +0.034 C 
ENDBRANCH   9  22
ENDBRANCH   1  12
BRANCH   7  23
ATOM     23  C   UNL     1      -4.109  -6.201  -4.606  0.00  0.00    +0.139 C 
BRANCH  23  24
ATOM     24  C   UNL     1      -5.045  -6.611  -5.714  0.00  0.00    -0.012 A 
ATOM     25  C   UNL     1      -6.359  -6.931  -5.427  0.00  0.00    +0.006 A 
ATOM     26  C   UNL     1      -7.218  -7.303  -6.444  0.00  0.00    +0.000 A 
ATOM     27  C   UNL     1      -6.762  -7.365  -7.747  0.00  0.00    +0.001 A 
ATOM     28  C   UNL     1      -5.447  -7.050  -8.035  0.00  0.00    +0.020 A 
ATOM     29  C   UNL     1      -4.588  -6.673  -7.019  0.00  0.00    +0.046 A 
ATOM     30 CL   UNL     1      -2.936  -6.278  -7.379  0.00  0.00    -0.083 Cl
ENDBRANCH  23  24
ENDBRANCH   7  23
TORSDOF 6
