REMARK  Name = ZINC38994732
REMARK  9 active torsions:
REMARK  status: ('A' for Active; 'I' for Inactive)
REMARK    1  A    between atoms: C_1  and  O_2
REMARK    2  A    between atoms: O_2  and  C_3
REMARK    3  A    between atoms: C_3  and  C_4
REMARK    4  A    between atoms: C_4  and  N_5
REMARK    5  A    between atoms: C_6  and  C_8
REMARK    6  A    between atoms: C_10  and  N_19
REMARK    7  A    between atoms: C_20  and  C_22
REMARK    8  A    between atoms: C_25  and  C_27
REMARK    9  A    between atoms: C_32  and  O_33
REMARK                            x       y       z     vdW  Elec       q    Type
REMARK                         _______ _______ _______ _____ _____    ______ ____
ROOT
ATOM      1  N   UNL     1       3.929  -2.846  -0.693  0.00  0.00    -0.297 N 
ATOM      2  C   UNL     1       5.004  -2.865   0.119  0.00  0.00    +0.261 C 
ATOM      3  O   UNL     1       5.784  -3.798   0.076  0.00  0.00    -0.269 OA
ATOM      4  H   UNL     1       3.308  -2.102  -0.658  0.00  0.00    +0.150 HD
ENDROOT
BRANCH   1   6
ATOM      5  C   UNL     1       2.192  -4.144  -1.919  0.00  0.00    +0.132 C 
ATOM      6  C   UNL     1       3.700  -3.949  -1.630  0.00  0.00    +0.152 C 
ATOM      7  S   UNL     1       4.049  -5.582  -0.852  0.00  0.00    -0.106 S 
ATOM      8  C   UNL     1       2.681  -6.490  -1.533  0.00  0.00    -0.013 C 
ATOM      9  C   UNL     1       1.836  -5.604  -2.041  0.00  0.00    -0.046 C 
ATOM     10  C   UNL     1       0.545  -6.054  -2.723  0.00  0.00    +0.032 C 
ATOM     11  C   UNL     1       0.663  -7.531  -3.096  0.00  0.00    +0.005 C 
ATOM     12  C   UNL     1       1.082  -8.337  -1.863  0.00  0.00    +0.005 C 
ATOM     13  C   UNL     1       2.529  -7.986  -1.526  0.00  0.00    +0.042 C 
BRANCH   5  15
ATOM     14  N   UNL     1       0.949  -2.266  -0.897  0.00  0.00    -0.313 N 
ATOM     15  C   UNL     1       1.393  -3.534  -0.797  0.00  0.00    +0.223 C 
ATOM     16  O   UNL     1       1.149  -4.185   0.197  0.00  0.00    -0.275 OA
ATOM     17  H   UNL     1       1.204  -1.721  -1.658  0.00  0.00    +0.149 HD
BRANCH  14  18
ATOM     18  C   UNL     1       0.080  -1.709   0.143  0.00  0.00    +0.132 C 
BRANCH  18  19
ATOM     19  C   UNL     1      -0.277  -0.264  -0.211  0.00  0.00    +0.178 C 
BRANCH  19  21
ATOM     20  C   UNL     1      -1.448   1.064  -1.827  0.00  0.00    +0.194 C 
ATOM     21  O   UNL     1      -1.059  -0.245  -1.407  0.00  0.00    -0.381 OA
ENDBRANCH  19  21
ENDBRANCH  18  19
ENDBRANCH  14  18
ENDBRANCH   5  15
ENDBRANCH   1   6
BRANCH   2  22
ATOM     22  C   UNL     1       5.234  -1.761   1.056  0.00  0.00    +0.131 C 
ATOM     23  N   UNL     1       4.494  -0.697   1.229  0.00  0.00    -0.148 NA
ATOM     24  N   UNL     1       4.929   0.110   2.117  0.00  0.00    -0.153 NA
ATOM     25  C   UNL     1       6.043  -0.277   2.696  0.00  0.00    +0.080 C 
ATOM     26  C   UNL     1       6.380  -1.607   2.042  0.00  0.00    +0.120 C 
BRANCH  25  27
ATOM     27  C   UNL     1       6.792   0.417   3.745  0.00  0.00    +0.041 A 
ATOM     28  C   UNL     1       7.976  -0.137   4.253  0.00  0.00    +0.033 A 
ATOM     29  C   UNL     1       8.674   0.523   5.239  0.00  0.00    +0.042 A 
ATOM     30  C   UNL     1       8.212   1.735   5.734  0.00  0.00    +0.023 A 
ATOM     31  C   UNL     1       7.048   2.293   5.244  0.00  0.00    +0.047 A 
ATOM     32  C   UNL     1       6.333   1.649   4.247  0.00  0.00    +0.126 A 
ATOM     33 CL   UNL     1      10.140  -0.163   5.867  0.00  0.00    -0.084 Cl
BRANCH  32  34
ATOM     34  O   UNL     1       5.192   2.199   3.761  0.00  0.00    -0.506 OA
ATOM     35  H   UNL     1       4.394   1.933   4.237  0.00  0.00    +0.292 HD
ENDBRANCH  32  34
ENDBRANCH  25  27
ENDBRANCH   2  22
TORSDOF 8
