REMARK  Name = ZINC39749469
REMARK  8 active torsions:
REMARK  status: ('A' for Active; 'I' for Inactive)
REMARK    1  A    between atoms: C_1  and  C_2
REMARK    2  A    between atoms: C_2  and  C_38
REMARK    3  A    between atoms: C_6  and  C_28
REMARK    4  A    between atoms: C_12  and  S_16
REMARK    5  A    between atoms: S_16  and  C_17
REMARK    6  A    between atoms: C_17  and  C_18
REMARK    7  A    between atoms: C_21  and  N_24
REMARK    8  A    between atoms: C_32  and  O_34
REMARK                            x       y       z     vdW  Elec       q    Type
REMARK                         _______ _______ _______ _____ _____    ______ ____
ROOT
ATOM      1  C   UNL     1      -0.019   1.526   0.010  0.00  0.00    +0.011 C 
ATOM      2  C   UNL     1       0.002  -0.004   0.002  0.00  0.00    -0.023 C 
ATOM      3  C   UNL     1       0.738  -0.501  -1.245  0.00  0.00    +0.062 C 
ATOM      4  C   UNL     1       2.173  -0.038  -1.201  0.00  0.00    +0.051 C 
ATOM      5  C   UNL     1       2.801   0.194   0.028  0.00  0.00    +0.025 C 
ATOM      6  C   UNL     1       4.224   0.712   0.058  0.00  0.00    +0.074 C 
ATOM      7  C   UNL     1       4.957   0.177  -1.168  0.00  0.00    +0.156 C 
ATOM      8  C   UNL     1       4.116   0.404  -2.395  0.00  0.00    +0.145 C 
ATOM      9  N   UNL     1       4.657   0.874  -3.500  0.00  0.00    -0.208 NA
ATOM     10  C   UNL     1       5.929   1.269  -3.555  0.00  0.00    +0.182 C 
ATOM     11  N   UNL     1       6.719   1.269  -2.488  0.00  0.00    -0.154 NA
ATOM     12  C   UNL     1       6.306   0.803  -1.330  0.00  0.00    +0.250 C 
ATOM     13  O   UNL     1       7.049   0.878  -0.370  0.00  0.00    -0.273 OA
ATOM     14  N   UNL     1       2.807   0.185  -2.337  0.00  0.00    -0.236 NA
ATOM     15  C   UNL     1       2.165  -0.026   1.202  0.00  0.00    +0.162 C 
ATOM     16  O   UNL     1       2.817   0.198   2.357  0.00  0.00    -0.292 OA
ATOM     17  C   UNL     1       0.743  -0.515   1.242  0.00  0.00    +0.086 C 
ATOM     18  C   UNL     1      -1.432  -0.537   0.004  0.00  0.00    +0.011 C 
ENDROOT
BRANCH   6  19
ATOM     19  C   UNL     1       4.217   2.218   0.028  0.00  0.00    -0.035 A 
ATOM     20  C   UNL     1       3.638   2.885  -1.037  0.00  0.00    +0.004 A 
ATOM     21  C   UNL     1       3.630   4.268  -1.067  0.00  0.00    +0.004 A 
ATOM     22  C   UNL     1       4.200   4.986  -0.033  0.00  0.00    +0.045 A 
ATOM     23  C   UNL     1       4.781   4.319   1.035  0.00  0.00    +0.117 A 
ATOM     24  C   UNL     1       4.782   2.932   1.066  0.00  0.00    +0.049 A 
BRANCH  23  25
ATOM     25  O   UNL     1       5.342   5.023   2.053  0.00  0.00    -0.507 OA
ATOM     26  H   UNL     1       4.729   5.232   2.772  0.00  0.00    +0.292 HD
ENDBRANCH  23  25
ENDBRANCH   6  19
BRANCH  10  27
ATOM     27  S   UNL     1       6.585   1.810  -5.098  0.00  0.00    -0.084 S 
BRANCH  27  28
ATOM     28  C   UNL     1       8.305   2.242  -4.716  0.00  0.00    +0.112 C 
BRANCH  28  29
ATOM     29  C   UNL     1       8.991   2.727  -5.967  0.00  0.00    -0.037 A 
ATOM     30  C   UNL     1       9.637   1.827  -6.794  0.00  0.00    +0.007 A 
ATOM     31  C   UNL     1      10.266   2.272  -7.942  0.00  0.00    +0.033 A 
ATOM     32  C   UNL     1      10.248   3.616  -8.263  0.00  0.00    +0.126 A 
ATOM     33  C   UNL     1       9.601   4.516  -7.437  0.00  0.00    +0.033 A 
ATOM     34  C   UNL     1       8.968   4.070  -6.291  0.00  0.00    +0.007 A 
BRANCH  32  35
ATOM     35  N   UNL     1      10.922   4.093  -9.492  0.00  0.00    +0.056 N 
ATOM     36  O   UNL     1      11.489   3.306 -10.214  0.00  0.00    -0.126 OA
ATOM     37  O   UNL     1      10.906   5.268  -9.773  0.00  0.00    -0.126 OA
ENDBRANCH  32  35
ENDBRANCH  28  29
ENDBRANCH  27  28
ENDBRANCH  10  27
TORSDOF 6
