REMARK  Name = ZINC09873259
REMARK  8 active torsions:
REMARK  status: ('A' for Active; 'I' for Inactive)
REMARK    1  A    between atoms: C_1  and  C_2
REMARK    2  A    between atoms: C_2  and  C_4
REMARK    3  A    between atoms: C_2  and  S_14
REMARK    4  A    between atoms: N_6  and  C_7
REMARK    5  A    between atoms: S_14  and  C_15
REMARK    6  A    between atoms: C_18  and  C_26
REMARK    7  A    between atoms: N_19  and  C_20
REMARK    8  A    between atoms: C_26  and  N_54
REMARK                            x       y       z     vdW  Elec       q    Type
REMARK                         _______ _______ _______ _____ _____    ______ ____
ROOT
ATOM      1  C   UNL     1      -2.042   1.724   2.977  0.00  0.00    +0.197 A 
ATOM      2  N   UNL     1      -1.253   2.771   2.908  0.00  0.00    -0.122 NA
ATOM      3  N   UNL     1      -0.467   2.661   1.898  0.00  0.00    -0.135 NA
ATOM      4  C   UNL     1      -0.708   1.551   1.260  0.00  0.00    +0.122 A 
ATOM      5  N   UNL     1      -1.719   0.910   1.925  0.00  0.00    -0.276 N 
ENDROOT
BRANCH   5   6
ATOM      6  C   UNL     1      -2.302  -0.323   1.597  0.00  0.00    +0.050 A 
ATOM      7  C   UNL     1      -3.018  -0.462   0.416  0.00  0.00    +0.026 A 
ATOM      8  C   UNL     1      -3.586  -1.679   0.093  0.00  0.00    +0.002 A 
ATOM      9  C   UNL     1      -3.451  -2.755   0.951  0.00  0.00    +0.000 A 
ATOM     10  C   UNL     1      -2.743  -2.619   2.130  0.00  0.00    +0.002 A 
ATOM     11  C   UNL     1      -2.168  -1.405   2.456  0.00  0.00    +0.026 A 
ENDBRANCH   5   6
BRANCH   1  12
ATOM     12  S   UNL     1      -3.282   1.423   4.192  0.00  0.00    -0.073 S 
BRANCH  12  14
ATOM     13  C   UNL     1      -3.481   4.141   4.375  0.00  0.00    +0.029 C 
ATOM     14  C   UNL     1      -3.099   2.913   5.203  0.00  0.00    +0.137 C 
BRANCH  14  15
ATOM     15  C   UNL     1      -4.001   2.817   6.406  0.00  0.00    +0.230 C 
ATOM     16  O   UNL     1      -4.943   2.053   6.399  0.00  0.00    -0.274 OA
ATOM     17  N   UNL     1      -3.761   3.581   7.491  0.00  0.00    -0.285 N 
ATOM     18  H   UNL     1      -2.971   4.142   7.524  0.00  0.00    +0.155 HD
BRANCH  17  19
ATOM     19  C   UNL     1      -4.653   3.564   8.569  0.00  0.00    +0.033 A 
ATOM     20  C   UNL     1      -4.884   4.723   9.299  0.00  0.00    +0.024 A 
ATOM     21  C   UNL     1      -5.769   4.705  10.360  0.00  0.00    +0.017 A 
ATOM     22  C   UNL     1      -6.416   3.531  10.702  0.00  0.00    +0.018 A 
ATOM     23  C   UNL     1      -6.183   2.373   9.981  0.00  0.00    +0.017 A 
ATOM     24  C   UNL     1      -5.304   2.387   8.916  0.00  0.00    +0.024 A 
ATOM     25 BR   UNL     1      -7.621   3.509  12.159  0.00  0.00    -0.050 Br
ENDBRANCH  17  19
ENDBRANCH  14  15
ENDBRANCH  12  14
ENDBRANCH   1  12
BRANCH   4  26
ATOM     26  C   UNL     1      -0.001   1.060   0.022  0.00  0.00    -0.001 C 
BRANCH  26  31
ATOM     27  C   UNL     1      -0.891   3.023  -1.110  0.00  0.00    -0.078 C 
ATOM     28  C   UNL     1      -1.134   3.411  -2.590  0.00  0.00    -0.020 C 
ATOM     29  C   UNL     1      -0.178   2.468  -3.356  0.00  0.00    -0.020 C 
ATOM     30  C   UNL     1       0.086   1.295  -2.394  0.00  0.00    -0.078 C 
ATOM     31  N   UNL     1      -0.706   1.566  -1.194  0.00  0.00    +0.384 N 
ATOM     32  H   UNL     1      -1.620   1.105  -1.270  0.00  0.00    -0.081 HD
ENDBRANCH  26  31
ENDBRANCH   4  26
TORSDOF 7
