REMARK  Name = ZINC12789821
REMARK  13 active torsions:
REMARK  status: ('A' for Active; 'I' for Inactive)
REMARK    1  A    between atoms: C_1  and  C_2
REMARK    2  A    between atoms: C_2  and  C_3
REMARK    3  A    between atoms: C_6  and  C_9
REMARK    4  A    between atoms: C_9  and  C_11
REMARK    5  A    between atoms: C_9  and  N_70
REMARK    6  A    between atoms: C_11  and  N_12
REMARK    7  A    between atoms: C_13  and  C_15
REMARK    8  A    between atoms: N_18  and  S_21
REMARK    9  A    between atoms: S_21  and  C_24
REMARK   10  A    between atoms: C_27  and  C_31
REMARK   11  A    between atoms: C_28  and  C_30
REMARK   12  A    between atoms: C_32  and  N_70
REMARK   13  A    between atoms: C_33  and  N_70
REMARK                            x       y       z     vdW  Elec       q    Type
REMARK                         _______ _______ _______ _____ _____    ______ ____
ROOT
ATOM      1  N   UNL     1      -1.556   4.843  -6.373  0.00  0.00    -0.316 N 
ATOM      2  C   UNL     1      -1.819   3.941  -5.407  0.00  0.00    +0.216 C 
ATOM      3  O   UNL     1      -1.838   2.758  -5.672  0.00  0.00    -0.276 OA
ATOM      4  H   UNL     1      -1.541   5.790  -6.161  0.00  0.00    +0.149 HD
ENDROOT
BRANCH   2   5
ATOM      5  C   UNL     1      -2.088   4.402  -3.998  0.00  0.00    +0.077 C 
ATOM      6  C   UNL     1      -2.354   3.188  -3.106  0.00  0.00    +0.030 C 
ATOM      7  C   UNL     1      -2.661   3.663  -1.682  0.00  0.00    +0.110 C 
ATOM      8  N   UNL     1      -1.560   4.519  -1.221  0.00  0.00    -0.177 NA
ATOM      9  C   UNL     1      -1.165   5.668  -2.048  0.00  0.00    +0.110 C 
ATOM     10  C   UNL     1      -0.871   5.167  -3.471  0.00  0.00    +0.030 C 
BRANCH   8  11
ATOM     11  S   UNL     1      -0.783   4.201   0.206  0.00  0.00    +0.061 S 
ATOM     12  O   UNL     1      -1.692   3.456   1.006  0.00  0.00    -0.153 OA
ATOM     13  O   UNL     1      -0.214   5.428   0.642  0.00  0.00    -0.153 OA
BRANCH  11  14
ATOM     14  C   UNL     1       0.562   3.124  -0.162  0.00  0.00    +0.106 A 
ATOM     15  C   UNL     1       0.379   1.754  -0.136  0.00  0.00    +0.029 A 
ATOM     16  C   UNL     1       1.435   0.910  -0.419  0.00  0.00    +0.005 A 
ATOM     17  C   UNL     1       2.674   1.436  -0.739  0.00  0.00    -0.047 A 
ATOM     18  C   UNL     1       2.856   2.805  -0.770  0.00  0.00    -0.046 A 
ATOM     19  C   UNL     1       1.800   3.650  -0.481  0.00  0.00    +0.032 A 
ATOM     20  C   UNL     1       4.205   3.378  -1.119  0.00  0.00    +0.044 C 
ATOM     21  C   UNL     1       3.824   0.515  -1.054  0.00  0.00    +0.044 C 
ENDBRANCH  11  14
ENDBRANCH   8  11
ENDBRANCH   2   5
BRANCH   1  22
ATOM     22  C   UNL     1      -1.295   4.395  -7.743  0.00  0.00    +0.093 C 
BRANCH  22  23
ATOM     23  C   UNL     1      -1.183   5.611  -8.665  0.00  0.00    -0.021 C 
BRANCH  23  27
ATOM     24  C   UNL     1      -0.247   4.312 -12.625  0.00  0.00    -0.048 A 
ATOM     25  C   UNL     1       0.733   4.885 -11.836  0.00  0.00    +0.004 A 
ATOM     26  C   UNL     1       0.430   5.305 -10.555  0.00  0.00    +0.002 A 
ATOM     27  C   UNL     1      -0.853   5.153 -10.062  0.00  0.00    -0.059 A 
ATOM     28  C   UNL     1      -1.831   4.575 -10.849  0.00  0.00    +0.002 A 
ATOM     29  C   UNL     1      -1.530   4.160 -12.133  0.00  0.00    +0.004 A 
BRANCH  24  31
ATOM     30  C   UNL     1       0.546   2.395 -13.985  0.00  0.00    +0.009 C 
ATOM     31  C   UNL     1       0.084   3.853 -14.022  0.00  0.00    +0.032 C 
ENDBRANCH  24  31
ENDBRANCH  23  27
BRANCH  23  34
ATOM     32  C   UNL     1      -3.584   5.427  -8.417  0.00  0.00    -0.096 C 
ATOM     33  C   UNL     1      -2.445   7.444  -7.711  0.00  0.00    -0.096 C 
ATOM     34  N   UNL     1      -2.464   6.347  -8.703  0.00  0.00    +0.382 N 
ATOM     35  H   UNL     1      -2.591   6.747  -9.640  0.00  0.00    -0.082 HD
ENDBRANCH  23  34
ENDBRANCH  22  23
ENDBRANCH   1  22
TORSDOF 8
