REMARK  Name = ZINC07320636
REMARK  6 active torsions:
REMARK  status: ('A' for Active; 'I' for Inactive)
REMARK    1  A    between atoms: C_1  and  C_2
REMARK    2  A    between atoms: C_4  and  N_23
REMARK    3  A    between atoms: C_6  and  S_9
REMARK    4  A    between atoms: C_7  and  C_8
REMARK    5  A    between atoms: S_9  and  N_12
REMARK    6  A    between atoms: N_12  and  C_13
REMARK                            x       y       z     vdW  Elec       q    Type
REMARK                         _______ _______ _______ _____ _____    ______ ____
ROOT
ATOM      1  S   UNL     1       0.057  -2.973   2.709  0.00  0.00    +0.092 S 
ATOM      2  O   UNL     1      -0.972  -2.418   3.517  0.00  0.00    -0.148 OA
ATOM      3  O   UNL     1       0.100  -4.353   2.372  0.00  0.00    -0.148 OA
ENDROOT
BRANCH   1   9
ATOM      4  C   UNL     1      -0.018   1.503   0.010  0.00  0.00    +0.044 C 
ATOM      5  C   UNL     1       0.002  -0.004   0.002  0.00  0.00    -0.044 A 
ATOM      6  C   UNL     1       0.006  -0.689  -1.199  0.00  0.00    +0.036 A 
ATOM      7  C   UNL     1       0.025  -2.071  -1.207  0.00  0.00    +0.128 A 
ATOM      8  C   UNL     1       0.040  -2.768  -0.013  0.00  0.00    +0.061 A 
ATOM      9  C   UNL     1       0.037  -2.084   1.188  0.00  0.00    +0.116 A 
ATOM     10  C   UNL     1       0.023  -0.702   1.195  0.00  0.00    -0.021 A 
ATOM     11  C   UNL     1       0.025   0.045   2.504  0.00  0.00    +0.046 C 
BRANCH   7  12
ATOM     12  N   UNL     1       0.027  -2.804  -2.493  0.00  0.00    +0.056 N 
ATOM     13  O   UNL     1       0.013  -2.194  -3.536  0.00  0.00    -0.126 OA
ATOM     14  O   UNL     1       0.044  -4.013  -2.499  0.00  0.00    -0.126 OA
ENDBRANCH   7  12
ENDBRANCH   1   9
BRANCH   1  15
ATOM     15  N   UNL     1       1.490  -2.625   3.461  0.00  0.00    -0.098 NA
BRANCH  15  16
ATOM     16  C   UNL     1       1.784  -3.196   4.704  0.00  0.00    +0.075 A 
ATOM     17  C   UNL     1       0.857  -4.067   5.294  0.00  0.00    +0.029 A 
ATOM     18  C   UNL     1       1.089  -4.650   6.495  0.00  0.00    +0.032 A 
ATOM     19  C   UNL     1       2.294  -4.382   7.181  0.00  0.00    +0.093 A 
ATOM     20  C   UNL     1       3.269  -3.469   6.565  0.00  0.00    +0.021 A 
ATOM     21  C   UNL     1       2.968  -2.899   5.309  0.00  0.00    +0.038 A 
ATOM     22  C   UNL     1       4.337  -3.389   7.439  0.00  0.00    +0.113 A 
ATOM     23  N   UNL     1       4.064  -4.169   8.495  0.00  0.00    -0.284 N 
ATOM     24  N   UNL     1       2.813  -4.774   8.332  0.00  0.00    -0.174 NA
ATOM     25  H   UNL     1       4.648  -4.296   9.259  0.00  0.00    +0.188 HD
ENDBRANCH  15  16
ENDBRANCH   1  15
TORSDOF 4
