REMARK  Name = ZINC24987944
REMARK  9 active torsions:
REMARK  status: ('A' for Active; 'I' for Inactive)
REMARK    1  A    between atoms: C_3  and  C_9
REMARK    2  A    between atoms: N_11  and  C_12
REMARK    3  A    between atoms: C_12  and  C_13
REMARK    4  A    between atoms: N_15  and  C_16
REMARK    5  A    between atoms: C_16  and  C_17
REMARK    6  A    between atoms: C_17  and  C_18
REMARK    7  A    between atoms: C_18  and  C_19
REMARK    8  A    between atoms: C_20  and  C_26
REMARK    9  A    between atoms: C_21  and  N_25
REMARK                            x       y       z     vdW  Elec       q    Type
REMARK                         _______ _______ _______ _____ _____    ______ ____
ROOT
ATOM      1  C   UNL     1       7.440   1.043  -3.135  0.00  0.00    +0.230 C 
ATOM      2  O   UNL     1       8.236   1.073  -2.221  0.00  0.00    -0.274 OA
ATOM      3  N   UNL     1       6.118   0.982  -2.876  0.00  0.00    -0.314 N 
ATOM      4  H   UNL     1       5.396   0.955  -3.705  0.00  0.00    +0.149 HD
ENDROOT
BRANCH   1   5
ATOM      5  C   UNL     1       7.928   1.073  -4.561  0.00  0.00    +0.200 C 
BRANCH   5   8
ATOM      6  C   UNL     1      10.053   1.175  -5.748  0.00  0.00    +0.246 C 
ATOM      7  O   UNL     1       9.435   1.154  -6.795  0.00  0.00    -0.270 OA
ATOM      8  N   UNL     1       9.391   1.139  -4.575  0.00  0.00    -0.303 N 
ATOM      9  H   UNL     1       9.950   1.158  -3.627  0.00  0.00    +0.150 HD
BRANCH   6  12
ATOM     10  C   UNL     1      13.618   1.328  -4.581  0.00  0.00    +0.021 A 
ATOM     11  C   UNL     1      12.241   1.266  -4.562  0.00  0.00    +0.016 A 
ATOM     12  C   UNL     1      11.528   1.241  -5.763  0.00  0.00    +0.055 A 
ATOM     13  C   UNL     1      12.218   1.274  -6.978  0.00  0.00    +0.054 A 
ATOM     14  C   UNL     1      13.597   1.341  -6.984  0.00  0.00    +0.040 A 
ATOM     15  C   UNL     1      14.296   1.365  -5.789  0.00  0.00    +0.042 A 
ATOM     16 CL   UNL     1      16.030   1.442  -5.804  0.00  0.00    -0.083 Cl
ATOM     17 CL   UNL     1      11.342   1.236  -8.476  0.00  0.00    -0.083 Cl
ENDBRANCH   6  12
ENDBRANCH   5   8
ENDBRANCH   1   5
BRANCH   3  18
ATOM     18  C   UNL     1       5.644   0.953  -1.490  0.00  0.00    +0.104 C 
BRANCH  18  19
ATOM     19  C   UNL     1       4.116   0.884  -1.476  0.00  0.00    +0.025 C 
BRANCH  19  20
ATOM     20  C   UNL     1       3.621   0.853  -0.028  0.00  0.00    +0.060 C 
BRANCH  20  21
ATOM     21  C   UNL     1       2.115   0.786  -0.014  0.00  0.00    +0.082 A 
ATOM     22  C   UNL     1       1.338  -0.396  -0.013  0.00  0.00    +0.113 A 
ATOM     23  C   UNL     1       0.002  -0.004   0.002  0.00  0.00    +0.129 A 
ATOM     24  N   UNL     1      -0.016   1.345   0.009  0.00  0.00    -0.263 N 
ATOM     25  H   UNL     1      -0.976   1.882   0.021  0.00  0.00    +0.190 HD
ATOM     26  N   UNL     1       1.304   1.806  -0.001  0.00  0.00    -0.176 NA
BRANCH  23  27
ATOM     27  N   UNL     1      -1.098  -0.840   0.008  0.00  0.00    -0.342 N 
ATOM     28  H   UNL     1      -2.112  -0.414   0.020  0.00  0.00    +0.144 HD
ATOM     29  H   UNL     1      -0.960  -1.931   0.001  0.00  0.00    +0.144 HD
ENDBRANCH  23  27
BRANCH  22  30
ATOM     30  C   UNL     1       1.831  -1.740  -0.025  0.00  0.00    +0.104 C 
ATOM     31  N   UNL     1       2.223  -2.806  -0.035  0.00  0.00    -0.191 NA
ENDBRANCH  22  30
ENDBRANCH  20  21
ENDBRANCH  19  20
ENDBRANCH  18  19
ENDBRANCH   3  18
TORSDOF 9
