REMARK  Name = ZINC32576996
REMARK  8 active torsions:
REMARK  status: ('A' for Active; 'I' for Inactive)
REMARK    1  A    between atoms: C_1  and  S_2
REMARK    2  A    between atoms: S_2  and  C_3
REMARK    3  A    between atoms: C_6  and  C_9
REMARK    4  A    between atoms: N_10  and  N_11
REMARK    5  A    between atoms: C_12  and  C_14
REMARK    6  A    between atoms: C_14  and  N_15
REMARK    7  A    between atoms: N_18  and  S_21
REMARK    8  A    between atoms: S_21  and  C_24
REMARK                            x       y       z     vdW  Elec       q    Type
REMARK                         _______ _______ _______ _____ _____    ______ ____
ROOT
ATOM      1  N   UNL     1      -2.118   4.989  -0.430  0.00  0.00    +0.387 N 
ATOM      2  C   UNL     1      -1.252   3.805  -0.505  0.00  0.00    -0.061 C 
ATOM      3  C   UNL     1      -0.524   3.623   0.831  0.00  0.00    +0.091 C 
ATOM      4  N   UNL     1      -1.521   3.596   1.911  0.00  0.00    -0.180 NA
ATOM      5  C   UNL     1      -2.515   4.680   1.967  0.00  0.00    +0.091 C 
ATOM      6  C   UNL     1      -3.165   4.820   0.586  0.00  0.00    -0.061 C 
ATOM      7  H   UNL     1      -1.492   5.842  -0.127  0.00  0.00    -0.081 HD
ENDROOT
BRANCH   4   8
ATOM      8  S   UNL     1      -1.528   2.376   3.031  0.00  0.00    +0.061 S 
ATOM      9  O   UNL     1      -2.850   2.308   3.548  0.00  0.00    -0.153 OA
ATOM     10  O   UNL     1      -0.889   1.263   2.423  0.00  0.00    -0.153 OA
BRANCH   8  11
ATOM     11  C   UNL     1      -0.493   2.886   4.363  0.00  0.00    +0.106 A 
ATOM     12  C   UNL     1       0.855   2.578   4.347  0.00  0.00    +0.029 A 
ATOM     13  C   UNL     1       1.668   2.982   5.389  0.00  0.00    +0.017 A 
ATOM     14  C   UNL     1       1.131   3.685   6.453  0.00  0.00    +0.018 A 
ATOM     15  C   UNL     1      -0.218   3.987   6.471  0.00  0.00    +0.017 A 
ATOM     16  C   UNL     1      -1.030   3.588   5.426  0.00  0.00    +0.029 A 
ATOM     17 BR   UNL     1       2.242   4.231   7.882  0.00  0.00    -0.050 Br
ENDBRANCH   8  11
ENDBRANCH   4   8
BRANCH   1  18
ATOM     18  C   UNL     1      -2.702   5.299  -1.742  0.00  0.00    +0.020 C 
BRANCH  18  20
ATOM     19  N   UNL     1      -4.190   4.198  -3.383  0.00  0.00    -0.209 N 
ATOM     20  C   UNL     1      -3.598   4.166  -2.172  0.00  0.00    +0.216 C 
ATOM     21  O   UNL     1      -3.786   3.226  -1.430  0.00  0.00    -0.276 OA
ATOM     22  H   UNL     1      -4.019   5.051  -4.056  0.00  0.00    +0.177 HD
BRANCH  19  24
ATOM     23  C   UNL     1      -5.472   3.101  -5.000  0.00  0.00    +0.138 C 
ATOM     24  N   UNL     1      -5.022   3.145  -3.784  0.00  0.00    -0.188 NA
BRANCH  23  28
ATOM     25  C   UNL     1      -3.666   5.476  -8.020  0.00  0.00    +0.008 A 
ATOM     26  C   UNL     1      -2.962   5.178  -6.858  0.00  0.00    +0.015 A 
ATOM     27  C   UNL     1      -3.545   4.407  -5.876  0.00  0.00    +0.010 A 
ATOM     28  C   UNL     1      -4.845   3.925  -6.049  0.00  0.00    -0.005 A 
ATOM     29  C   UNL     1      -5.548   4.223  -7.220  0.00  0.00    +0.010 A 
ATOM     30  C   UNL     1      -4.961   4.998  -8.195  0.00  0.00    +0.015 A 
BRANCH  25  32
ATOM     31  C   UNL     1      -4.188   6.575 -10.562  0.00  0.00    +0.090 C 
ATOM     32  S   UNL     1      -2.916   6.461  -9.274  0.00  0.00    -0.129 S 
ENDBRANCH  25  32
ENDBRANCH  23  28
ENDBRANCH  19  24
ENDBRANCH  18  20
ENDBRANCH   1  18
TORSDOF 7
