REMARK  Name = ZINC08856077
REMARK  3 active torsions:
REMARK  status: ('A' for Active; 'I' for Inactive)
REMARK    1  A    between atoms: C_6  and  C_7
REMARK    2  A    between atoms: C_8  and  C_13
REMARK    3  A    between atoms: N_17  and  C_21
REMARK                            x       y       z     vdW  Elec       q    Type
REMARK                         _______ _______ _______ _____ _____    ______ ____
ROOT
ATOM      1  C   UNL     1      -0.582  -2.812  -1.480  0.00  0.00    +0.032 C 
ATOM      2  C   UNL     1      -0.970  -3.985  -2.045  0.00  0.00    +0.079 C 
ATOM      3  C   UNL     1      -0.199  -4.917  -2.884  0.00  0.00    +0.263 C 
ATOM      4  O   UNL     1       0.964  -4.699  -3.172  0.00  0.00    -0.269 OA
ATOM      5  N   UNL     1      -0.824  -6.001  -3.311  0.00  0.00    -0.213 N 
ATOM      6  C   UNL     1      -2.145  -6.228  -2.971  0.00  0.00    +0.165 C 
ATOM      7  N   UNL     1      -2.906  -7.235  -3.302  0.00  0.00    -0.279 NA
ATOM      8  S   UNL     1      -2.551  -4.813  -1.962  0.00  0.00    -0.049 S 
ATOM      9  H   UNL     1      -3.825  -7.270  -2.992  0.00  0.00    +0.189 HD
ENDROOT
BRANCH   5  10
ATOM     10  C   UNL     1      -0.143  -6.927  -4.114  0.00  0.00    +0.062 A 
ATOM     11  C   UNL     1       0.545  -7.981  -3.529  0.00  0.00    +0.027 A 
ATOM     12  C   UNL     1       1.215  -8.892  -4.322  0.00  0.00    +0.022 A 
ATOM     13  C   UNL     1       1.201  -8.755  -5.699  0.00  0.00    +0.042 A 
ATOM     14  C   UNL     1       0.517  -7.705  -6.285  0.00  0.00    +0.042 A 
ATOM     15  C   UNL     1      -0.160  -6.794  -5.496  0.00  0.00    +0.064 A 
ATOM     16 CL   UNL     1      -1.025  -5.481  -6.232  0.00  0.00    -0.082 Cl
ATOM     17 CL   UNL     1       2.045  -9.902  -6.692  0.00  0.00    -0.083 Cl
ENDBRANCH   5  10
BRANCH   1  19
ATOM     18  C   UNL     1      -1.270  -0.765   0.011  0.00  0.00    +0.100 A 
ATOM     19  C   UNL     1      -1.528  -2.041  -0.665  0.00  0.00    +0.021 A 
ATOM     20  C   UNL     1      -2.840  -2.373  -0.383  0.00  0.00    +0.113 A 
ATOM     21  N   UNL     1      -3.352  -1.401   0.392  0.00  0.00    -0.284 N 
ATOM     22  H   UNL     1      -4.258  -1.382   0.738  0.00  0.00    +0.188 HD
ATOM     23  N   UNL     1      -2.379  -0.427   0.630  0.00  0.00    -0.173 NA
BRANCH  18  29
ATOM     24  C   UNL     1      -0.017   1.390   0.010  0.00  0.00    +0.013 A 
ATOM     25  C   UNL     1       1.170   2.094   0.002  0.00  0.00    +0.039 A 
ATOM     26  C   UNL     1       2.379   1.417  -0.013  0.00  0.00    +0.123 A 
ATOM     27  C   UNL     1       2.403   0.032  -0.022  0.00  0.00    +0.039 A 
ATOM     28  C   UNL     1       1.221  -0.680  -0.014  0.00  0.00    +0.013 A 
ATOM     29  C   UNL     1       0.002  -0.004   0.002  0.00  0.00    +0.003 A 
ATOM     30  F   UNL     1       3.538   2.111  -0.021  0.00  0.00    -0.205 F 
ENDBRANCH  18  29
ENDBRANCH   1  19
TORSDOF 3
