REMARK  Name = ZINC28968797
REMARK  7 active torsions:
REMARK  status: ('A' for Active; 'I' for Inactive)
REMARK    1  A    between atoms: C_1  and  C_2
REMARK    2  A    between atoms: C_2  and  O_3
REMARK    3  A    between atoms: O_3  and  C_4
REMARK    4  A    between atoms: C_4  and  C_6
REMARK    5  A    between atoms: C_7  and  C_28
REMARK    6  A    between atoms: C_11  and  N_19
REMARK    7  A    between atoms: C_20  and  C_22
REMARK                            x       y       z     vdW  Elec       q    Type
REMARK                         _______ _______ _______ _____ _____    ______ ____
ROOT
ATOM      1  C   UNL     1      -0.836   2.890   1.444  0.00  0.00    +0.086 C 
ATOM      2  C   UNL     1      -0.718   1.572   1.248  0.00  0.00    +0.115 C 
ATOM      3  O   UNL     1      -1.196   0.667   2.110  0.00  0.00    -0.442 OA
ATOM      4  C   UNL     1      -1.468   1.036   3.385  0.00  0.00    +0.226 A 
ATOM      5  C   UNL     1      -1.640   2.370   3.711  0.00  0.00    +0.047 A 
ATOM      6  C   UNL     1      -1.916   2.714   5.028  0.00  0.00    +0.039 A 
ATOM      7  C   UNL     1      -2.012   1.696   5.986  0.00  0.00    -0.005 A 
ATOM      8  C   UNL     1      -1.837   0.393   5.592  0.00  0.00    +0.050 A 
ATOM      9  N   UNL     1      -1.571   0.107   4.323  0.00  0.00    -0.217 NA
ATOM     10  C   UNL     1      -1.945  -0.761   6.557  0.00  0.00    +0.056 C 
ATOM     11  C   UNL     1      -1.812  -0.272   7.997  0.00  0.00    +0.006 C 
ATOM     12  C   UNL     1      -2.794   0.886   8.210  0.00  0.00    +0.005 C 
ATOM     13  C   UNL     1      -2.299   2.089   7.409  0.00  0.00    +0.039 C 
ATOM     14  C   UNL     1      -1.531   3.440   2.659  0.00  0.00    +0.098 C 
ATOM     15  C   UNL     1      -0.013   1.086   0.008  0.00  0.00    +0.087 C 
ENDROOT
BRANCH  14  16
ATOM     16  C   UNL     1      -2.911   3.913   2.282  0.00  0.00    -0.017 A 
ATOM     17  C   UNL     1      -3.269   5.242   2.455  0.00  0.00    +0.007 A 
ATOM     18  C   UNL     1      -4.549   5.633   2.094  0.00  0.00    +0.020 A 
ATOM     19  C   UNL     1      -5.420   4.692   1.577  0.00  0.00    +0.111 A 
ATOM     20  N   UNL     1      -5.045   3.437   1.426  0.00  0.00    -0.263 NA
ATOM     21  C   UNL     1      -3.833   3.031   1.753  0.00  0.00    +0.115 A 
ENDBRANCH  14  16
BRANCH   6  22
ATOM     22  N   UNL     1      -2.093   4.047   5.391  0.00  0.00    -0.357 N 
ATOM     23  H   UNL     1      -2.311   4.308   6.437  0.00  0.00    +0.142 HD
ATOM     24  H   UNL     1      -2.015   4.838   4.631  0.00  0.00    +0.142 HD
ENDBRANCH   6  22
BRANCH   1  25
ATOM     25  C   UNL     1      -0.301   3.785   0.485  0.00  0.00    +0.339 C 
ATOM     26  O   UNL     1       0.260   3.353  -0.504  0.00  0.00    -0.245 OA
BRANCH  25  27
ATOM     27  O   UNL     1      -0.413   5.117   0.670  0.00  0.00    -0.462 OA
BRANCH  27  29
ATOM     28  C   UNL     1      -0.073   7.426   0.043  0.00  0.00    +0.048 C 
ATOM     29  C   UNL     1       0.150   5.961  -0.337  0.00  0.00    +0.229 C 
ENDBRANCH  27  29
ENDBRANCH  25  27
ENDBRANCH   1  25
TORSDOF 5
