REMARK  Name = ZINC43232734
REMARK  6 active torsions:
REMARK  status: ('A' for Active; 'I' for Inactive)
REMARK    1  A    between atoms: C_3  and  C_6
REMARK    2  A    between atoms: C_6  and  C_8
REMARK    3  A    between atoms: C_6  and  N_23
REMARK    4  A    between atoms: C_8  and  N_9
REMARK    5  A    between atoms: N_12  and  N_13
REMARK    6  A    between atoms: C_14  and  C_16
REMARK                            x       y       z     vdW  Elec       q    Type
REMARK                         _______ _______ _______ _____ _____    ______ ____
ROOT
ATOM      1  N   UNL     1       5.785   2.168  -1.371  0.00  0.00    -0.299 N 
ATOM      2  C   UNL     1       6.521   2.208  -2.500  0.00  0.00    +0.316 C 
ATOM      3  O   UNL     1       6.043   1.828  -3.551  0.00  0.00    -0.251 OA
ATOM      4  N   UNL     1       7.787   2.669  -2.463  0.00  0.00    -0.218 N 
ATOM      5  H   UNL     1       6.166   2.472  -0.532  0.00  0.00    +0.150 HD
ATOM      6  H   UNL     1       8.316   2.697  -3.275  0.00  0.00    +0.174 HD
ENDROOT
BRANCH   4   7
ATOM      7  N   UNL     1       8.338   3.107  -1.252  0.00  0.00    -0.229 N 
ATOM      8  C   UNL     1       9.604   3.568  -1.215  0.00  0.00    +0.260 C 
ATOM      9  O   UNL     1      10.267   3.604  -2.232  0.00  0.00    -0.269 OA
ATOM     10  H   UNL     1       7.808   3.079  -0.439  0.00  0.00    +0.173 HD
BRANCH   8  11
ATOM     11  C   UNL     1      10.184   4.030   0.062  0.00  0.00    +0.038 A 
ATOM     12  C   UNL     1       9.426   3.985   1.234  0.00  0.00    +0.016 A 
ATOM     13  C   UNL     1       9.973   4.417   2.423  0.00  0.00    +0.039 A 
ATOM     14  C   UNL     1      11.274   4.896   2.457  0.00  0.00    +0.123 A 
ATOM     15  C   UNL     1      12.031   4.943   1.297  0.00  0.00    +0.039 A 
ATOM     16  C   UNL     1      11.496   4.508   0.103  0.00  0.00    +0.016 A 
ATOM     17  F   UNL     1      11.805   5.318   3.626  0.00  0.00    -0.205 F 
ENDBRANCH   8  11
ENDBRANCH   4   7
BRANCH   1  18
ATOM     18  C   UNL     1       4.409   1.667  -1.411  0.00  0.00    +0.095 C 
BRANCH  18  19
ATOM     19  C   UNL     1       3.759   1.852  -0.038  0.00  0.00    -0.013 C 
BRANCH  19  20
ATOM     20  N   UNL     1       2.426   1.234  -0.041  0.00  0.00    +0.386 N 
ATOM     21  C   UNL     1       2.539  -0.229  -0.271  0.00  0.00    -0.078 C 
ATOM     22  C   UNL     1       1.210  -0.782   0.302  0.00  0.00    -0.020 C 
ATOM     23  C   UNL     1       0.973   0.107   1.544  0.00  0.00    -0.020 C 
ATOM     24  C   UNL     1       1.791   1.386   1.286  0.00  0.00    -0.078 C 
ATOM     25  H   UNL     1       1.848   1.655  -0.753  0.00  0.00    -0.081 HD
ENDBRANCH  19  20
BRANCH  19  28
ATOM     26  C   UNL     1       4.105   5.447   1.173  0.00  0.00    +0.008 A 
ATOM     27  C   UNL     1       4.417   4.107   1.040  0.00  0.00    +0.009 A 
ATOM     28  C   UNL     1       3.630   3.323   0.263  0.00  0.00    -0.022 A 
ATOM     29  S   UNL     1       2.403   4.485  -0.311  0.00  0.00    -0.103 S 
ATOM     30  C   UNL     1       3.022   5.937   0.523  0.00  0.00    +0.045 A 
ENDBRANCH  19  28
ENDBRANCH  18  19
ENDBRANCH   1  18
TORSDOF 6
