REMARK  Name = ZINC12112498
REMARK  7 active torsions:
REMARK  status: ('A' for Active; 'I' for Inactive)
REMARK    1  A    between atoms: C_4  and  C_7
REMARK    2  A    between atoms: C_10  and  S_22
REMARK    3  A    between atoms: C_11  and  S_13
REMARK    4  A    between atoms: S_13  and  C_16
REMARK    5  A    between atoms: S_22  and  C_23
REMARK    6  A    between atoms: C_23  and  C_24
REMARK    7  A    between atoms: N_26  and  C_27
REMARK                            x       y       z     vdW  Elec       q    Type
REMARK                         _______ _______ _______ _____ _____    ______ ____
ROOT
ATOM      1  C   UNL     1       3.215   5.261  -3.645  0.00  0.00    +0.141 A 
ATOM      2  N   UNL     1       3.932   4.094  -3.702  0.00  0.00    -0.332 N 
ATOM      3  H   UNL     1       4.420   3.733  -4.497  0.00  0.00    +0.168 HD
ATOM      4  C   UNL     1       3.854   3.517  -2.461  0.00  0.00    +0.120 A 
ATOM      5  C   UNL     1       3.091   4.336  -1.692  0.00  0.00    +0.214 A 
ATOM      6  N   UNL     1       2.721   5.386  -2.434  0.00  0.00    -0.208 NA
ENDROOT
BRANCH   1  10
ATOM      7  C   UNL     1       2.679   8.005  -6.842  0.00  0.00    +0.000 A 
ATOM      8  C   UNL     1       2.101   8.260  -5.611  0.00  0.00    +0.001 A 
ATOM      9  C   UNL     1       2.270   7.373  -4.569  0.00  0.00    +0.011 A 
ATOM     10  C   UNL     1       3.028   6.215  -4.757  0.00  0.00    +0.017 A 
ATOM     11  C   UNL     1       3.614   5.967  -6.000  0.00  0.00    +0.011 A 
ATOM     12  C   UNL     1       3.431   6.860  -7.036  0.00  0.00    +0.001 A 
ENDBRANCH   1  10
BRANCH   5  13
ATOM     13  S   UNL     1       2.668   4.066  -0.003  0.00  0.00    +0.045 S 
ATOM     14  O   UNL     1       2.382   5.343   0.552  0.00  0.00    -0.163 OA
ATOM     15  O   UNL     1       3.665   3.208   0.533  0.00  0.00    -0.163 OA
BRANCH  13  16
ATOM     16  C   UNL     1       1.158   3.158   0.017  0.00  0.00    +0.095 A 
ATOM     17  C   UNL     1       1.183   1.776   0.015  0.00  0.00    +0.027 A 
ATOM     18  C   UNL     1      -0.001   1.063   0.031  0.00  0.00    +0.002 A 
ATOM     19  C   UNL     1      -1.211   1.733   0.043  0.00  0.00    +0.000 A 
ATOM     20  C   UNL     1      -1.235   3.115   0.050  0.00  0.00    +0.002 A 
ATOM     21  C   UNL     1      -0.051   3.828   0.034  0.00  0.00    +0.027 A 
ENDBRANCH  13  16
ENDBRANCH   5  13
BRANCH   4  22
ATOM     22  S   UNL     1       4.598   2.000  -1.961  0.00  0.00    -0.095 S 
BRANCH  22  23
ATOM     23  C   UNL     1       5.463   1.424  -3.447  0.00  0.00    +0.172 C 
BRANCH  23  24
ATOM     24  C   UNL     1       6.152   0.116  -3.153  0.00  0.00    +0.227 C 
ATOM     25  O   UNL     1       6.068  -0.378  -2.049  0.00  0.00    -0.275 OA
ATOM     26  N   UNL     1       6.862  -0.503  -4.116  0.00  0.00    -0.285 N 
ATOM     27  H   UNL     1       6.875  -0.143  -5.017  0.00  0.00    +0.155 HD
BRANCH  26  28
ATOM     28  C   UNL     1       7.582  -1.668  -3.817  0.00  0.00    +0.037 A 
ATOM     29  C   UNL     1       8.795  -1.915  -4.446  0.00  0.00    +0.027 A 
ATOM     30  C   UNL     1       9.508  -3.061  -4.149  0.00  0.00    +0.051 A 
ATOM     31  C   UNL     1       9.010  -3.970  -3.230  0.00  0.00    +0.166 A 
ATOM     32  C   UNL     1       7.791  -3.728  -2.602  0.00  0.00    +0.168 A 
ATOM     33  C   UNL     1       7.079  -2.577  -2.897  0.00  0.00    +0.072 A 
ATOM     34  O   UNL     1       7.525  -4.762  -1.751  0.00  0.00    -0.453 OA
ATOM     35  C   UNL     1       8.391  -5.834  -2.167  0.00  0.00    +0.466 C 
ATOM     36  O   UNL     1       9.508  -5.157  -2.772  0.00  0.00    -0.453 OA
ENDBRANCH  26  28
ENDBRANCH  23  24
ENDBRANCH  22  23
ENDBRANCH   4  22
TORSDOF 7
