REMARK  Name = ZINC01650830
REMARK  4 active torsions:
REMARK  status: ('A' for Active; 'I' for Inactive)
REMARK    1  A    between atoms: C_4  and  C_7
REMARK    2  A    between atoms: N_13  and  N_14
REMARK    3  A    between atoms: C_15  and  C_16
REMARK    4  A    between atoms: C_25  and  O_26
REMARK                            x       y       z     vdW  Elec       q    Type
REMARK                         _______ _______ _______ _____ _____    ______ ____
ROOT
ATOM      1  N   UNL     1      -1.363   7.350   0.052  0.00  0.00    -0.168 NA
ATOM      2  C   UNL     1      -1.372   6.050   0.045  0.00  0.00    +0.145 C 
ENDROOT
BRANCH   2   3
ATOM      3  C   UNL     1      -0.104   5.307   0.030  0.00  0.00    +0.044 A 
ATOM      4  C   UNL     1      -0.096   3.845   0.023  0.00  0.00    -0.006 A 
ATOM      5  C   UNL     1      -1.286   3.107   0.030  0.00  0.00    +0.009 A 
ATOM      6  C   UNL     1      -1.234   1.745   0.017  0.00  0.00    +0.001 A 
ATOM      7  C   UNL     1      -0.013   1.076   0.008  0.00  0.00    +0.001 A 
ATOM      8  C   UNL     1       1.163   1.762   0.000  0.00  0.00    +0.008 A 
ATOM      9  C   UNL     1       1.148   3.168   0.008  0.00  0.00    -0.017 A 
ATOM     10  C   UNL     1       2.342   3.910   0.001  0.00  0.00    +0.012 A 
ATOM     11  C   UNL     1       2.316   5.269   0.008  0.00  0.00    +0.046 A 
ATOM     12  C   UNL     1       1.117   5.981   0.022  0.00  0.00    +0.126 A 
BRANCH  12  13
ATOM     13  O   UNL     1       1.138   7.338   0.029  0.00  0.00    -0.506 OA
ATOM     14  H   UNL     1       1.153   7.727   0.914  0.00  0.00    +0.292 HD
ENDBRANCH  12  13
ENDBRANCH   2   3
BRANCH   1  21
ATOM     15  C   UNL     1      -2.704   9.433   0.074  0.00  0.00    +0.186 A 
ATOM     16  N   UNL     1      -3.975   9.727   0.086  0.00  0.00    -0.149 NA
ATOM     17  N   UNL     1      -4.698   8.527   0.086  0.00  0.00    -0.225 N 
ATOM     18  H   UNL     1      -5.664   8.439   0.094  0.00  0.00    +0.194 HD
ATOM     19  C   UNL     1      -3.806   7.515   0.069  0.00  0.00    +0.365 A 
ATOM     20  O   UNL     1      -4.068   6.326   0.059  0.00  0.00    -0.243 OA
ATOM     21  N   UNL     1      -2.572   8.058   0.066  0.00  0.00    -0.160 N 
BRANCH  15  25
ATOM     22  C   UNL     1       0.491  12.234   0.065  0.00  0.00    +0.000 A 
ATOM     23  C   UNL     1      -0.818  12.682   0.077  0.00  0.00    +0.001 A 
ATOM     24  C   UNL     1      -1.860  11.778   0.080  0.00  0.00    +0.011 A 
ATOM     25  C   UNL     1      -1.591  10.409   0.071  0.00  0.00    +0.021 A 
ATOM     26  C   UNL     1      -0.269   9.963   0.064  0.00  0.00    +0.011 A 
ATOM     27  C   UNL     1       0.764  10.878   0.056  0.00  0.00    +0.001 A 
ENDBRANCH  15  25
ENDBRANCH   1  21
TORSDOF 4
