REMARK  Name = ZINC06277038
REMARK  3 active torsions:
REMARK  status: ('A' for Active; 'I' for Inactive)
REMARK    1  A    between atoms: C_16  and  C_31
REMARK    2  A    between atoms: C_19  and  C_21
REMARK    3  A    between atoms: C_26  and  C_27
REMARK                            x       y       z     vdW  Elec       q    Type
REMARK                         _______ _______ _______ _____ _____    ______ ____
ROOT
ATOM      1  C   UNL     1      -2.971   8.170  -2.375  0.00  0.00    +0.000 A 
ATOM      2  C   UNL     1      -3.389   7.104  -1.605  0.00  0.00    +0.000 A 
ATOM      3  C   UNL     1      -2.490   6.184  -1.086  0.00  0.00    +0.004 A 
ATOM      4  C   UNL     1      -1.148   6.373  -1.370  0.00  0.00    -0.036 A 
ATOM      5  C   UNL     1      -0.729   7.444  -2.176  0.00  0.00    -0.043 A 
ATOM      6  C   UNL     1      -1.630   8.363  -2.677  0.00  0.00    +0.004 A 
ATOM      7  C   UNL     1       0.757   7.353  -2.407  0.00  0.00    +0.042 C 
ATOM      8  C   UNL     1       1.066   5.883  -2.120  0.00  0.00    +0.030 C 
ATOM      9  C   UNL     1       0.052   5.608  -0.959  0.00  0.00    +0.056 C 
ATOM     10  C   UNL     1       0.005   4.118  -0.898  0.00  0.00    -0.018 A 
ATOM     11  C   UNL     1      -1.150   3.391  -0.804  0.00  0.00    +0.006 A 
ATOM     12  C   UNL     1      -1.104   2.003  -0.792  0.00  0.00    +0.001 A 
ATOM     13  C   UNL     1       0.110   1.356  -0.866  0.00  0.00    +0.017 A 
ATOM     14  C   UNL     1       1.296   2.085  -0.954  0.00  0.00    +0.084 A 
ATOM     15  C   UNL     1       1.260   3.492  -0.957  0.00  0.00    +0.046 A 
ATOM     16  N   UNL     1       2.436   4.210  -0.979  0.00  0.00    -0.336 N 
ATOM     17  C   UNL     1       2.434   5.544  -1.583  0.00  0.00    +0.105 C 
ATOM     18  H   UNL     1       3.195   3.651  -1.339  0.00  0.00    +0.147 HD
ENDROOT
BRANCH  17  19
ATOM     19  C   UNL     1       2.825   6.561  -0.543  0.00  0.00    -0.015 A 
ATOM     20  C   UNL     1       1.871   7.409  -0.012  0.00  0.00    +0.006 A 
ATOM     21  C   UNL     1       2.229   8.342   0.942  0.00  0.00    +0.000 A 
ATOM     22  C   UNL     1       3.542   8.428   1.366  0.00  0.00    +0.001 A 
ATOM     23  C   UNL     1       4.496   7.579   0.837  0.00  0.00    +0.013 A 
ATOM     24  C   UNL     1       4.137   6.643  -0.115  0.00  0.00    +0.060 A 
BRANCH  24  25
ATOM     25  C   UNL     1       5.176   5.715  -0.689  0.00  0.00    +0.418 C 
ATOM     26  F   UNL     1       6.441   6.081  -0.216  0.00  0.00    -0.166 F 
ATOM     27  F   UNL     1       4.894   4.401  -0.300  0.00  0.00    -0.166 F 
ATOM     28  F   UNL     1       5.158   5.801  -2.086  0.00  0.00    -0.166 F 
ENDBRANCH  24  25
ENDBRANCH  17  19
BRANCH  14  29
ATOM     29  C   UNL     1       2.588   1.382  -1.042  0.00  0.00    +0.388 C 
ATOM     30  O   UNL     1       3.627   2.011  -0.995  0.00  0.00    -0.241 OA
ATOM     31  O   UNL     1       2.617   0.041  -1.176  0.00  0.00    -0.241 OA
ENDBRANCH  14  29
TORSDOF 3
