REMARK  Name = ZINC09780992
REMARK  9 active torsions:
REMARK  status: ('A' for Active; 'I' for Inactive)
REMARK    1  A    between atoms: C_1  and  C_2
REMARK    2  A    between atoms: C_2  and  N_3
REMARK    3  A    between atoms: N_3  and  C_4
REMARK    4  A    between atoms: N_3  and  C_6
REMARK    5  A    between atoms: C_4  and  C_5
REMARK    6  A    between atoms: C_9  and  C_12
REMARK    7  A    between atoms: C_17  and  S_21
REMARK    8  A    between atoms: S_21  and  C_22
REMARK    9  A    between atoms: C_22  and  C_23
REMARK                            x       y       z     vdW  Elec       q    Type
REMARK                         _______ _______ _______ _____ _____    ______ ____
ROOT
ATOM      1  C   UNL     1       6.311  -1.357   0.990  0.00  0.00    +0.092 C 
ATOM      2  C   UNL     1       6.981  -0.472   1.997  0.00  0.00    +0.071 A 
ATOM      3  C   UNL     1       7.443  -0.988   3.201  0.00  0.00    +0.135 A 
ATOM      4  N   UNL     1       8.028  -0.176   4.076  0.00  0.00    -0.206 NA
ATOM      5  C   UNL     1       8.172   1.114   3.805  0.00  0.00    +0.194 A 
ATOM      6  N   UNL     1       7.745   1.639   2.666  0.00  0.00    -0.183 NA
ATOM      7  C   UNL     1       7.151   0.884   1.747  0.00  0.00    +0.280 A 
ATOM      8  O   UNL     1       6.718   1.429   0.584  0.00  0.00    -0.265 OA
ATOM      9  N   UNL     1       7.294  -2.337   3.472  0.00  0.00    -0.302 N 
ATOM     10  C   UNL     1       7.061  -3.227   2.459  0.00  0.00    +0.017 C 
ATOM     11  C   UNL     1       6.594  -2.813   1.264  0.00  0.00    +0.024 C 
ATOM     12  C   UNL     1       6.351  -3.732   0.228  0.00  0.00    +0.162 C 
ATOM     13  C   UNL     1       6.579  -5.206   0.419  0.00  0.00    +0.080 C 
ATOM     14  C   UNL     1       6.390  -5.550   1.900  0.00  0.00    +0.014 C 
ATOM     15  C   UNL     1       7.347  -4.687   2.720  0.00  0.00    +0.051 C 
ATOM     16  O   UNL     1       5.947  -3.326  -0.845  0.00  0.00    -0.292 OA
ATOM     17  H   UNL     1       7.356  -2.654   4.387  0.00  0.00    +0.153 HD
ENDROOT
BRANCH   1  21
ATOM     18  C   UNL     1       2.090  -0.703   1.140  0.00  0.00    +0.030 A 
ATOM     19  C   UNL     1       2.792  -0.451  -0.032  0.00  0.00    +0.023 A 
ATOM     20  C   UNL     1       4.156  -0.663  -0.076  0.00  0.00    +0.006 A 
ATOM     21  C   UNL     1       4.823  -1.126   1.043  0.00  0.00    -0.035 A 
ATOM     22  C   UNL     1       4.127  -1.379   2.211  0.00  0.00    +0.006 A 
ATOM     23  C   UNL     1       2.763  -1.163   2.264  0.00  0.00    +0.023 A 
BRANCH  18  24
ATOM     24  N   UNL     1       0.711  -0.489   1.189  0.00  0.00    -0.330 N 
BRANCH  24  26
ATOM     25  C   UNL     1      -0.019   1.526   0.010  0.00  0.00    +0.024 C 
ATOM     26  C   UNL     1       0.002  -0.004   0.002  0.00  0.00    +0.102 C 
ENDBRANCH  24  26
BRANCH  24  27
ATOM     27  C   UNL     1      -0.028  -0.750   2.427  0.00  0.00    +0.102 C 
ATOM     28  C   UNL     1      -0.511  -2.202   2.437  0.00  0.00    +0.024 C 
ENDBRANCH  24  27
ENDBRANCH  18  24
ENDBRANCH   1  21
BRANCH   5  29
ATOM     29  S   UNL     1       8.951   2.158   4.992  0.00  0.00    -0.081 S 
BRANCH  29  30
ATOM     30  C   UNL     1       8.931   3.797   4.216  0.00  0.00    +0.115 C 
BRANCH  30  31
ATOM     31  C   UNL     1       9.577   4.798   5.138  0.00  0.00    -0.002 A 
ATOM     32  C   UNL     1       8.811   5.477   6.067  0.00  0.00    +0.007 A 
ATOM     33  C   UNL     1       9.403   6.395   6.914  0.00  0.00    +0.000 A 
ATOM     34  C   UNL     1      10.762   6.636   6.833  0.00  0.00    +0.003 A 
ATOM     35  C   UNL     1      11.530   5.957   5.906  0.00  0.00    +0.038 A 
ATOM     36  C   UNL     1      10.939   5.033   5.060  0.00  0.00    +0.127 A 
ATOM     37  F   UNL     1      11.690   4.366   4.157  0.00  0.00    -0.205 F 
ENDBRANCH  30  31
ENDBRANCH  29  30
ENDBRANCH   5  29
TORSDOF 7
