REMARK  Name = ZINC10613128
REMARK  5 active torsions:
REMARK  status: ('A' for Active; 'I' for Inactive)
REMARK    1  A    between atoms: C_6  and  N_7
REMARK    2  A    between atoms: C_16  and  S_18
REMARK    3  A    between atoms: S_18  and  C_19
REMARK    4  A    between atoms: C_19  and  C_20
REMARK    5  A    between atoms: N_22  and  C_23
REMARK                            x       y       z     vdW  Elec       q    Type
REMARK                         _______ _______ _______ _____ _____    ______ ____
ROOT
ATOM      1  N   UNL     1       3.066  -1.082  -3.247  0.00  0.00    -0.214 N 
ATOM      2  C   UNL     1       1.949  -0.303  -3.305  0.00  0.00    +0.171 A 
ATOM      3  C   UNL     1       1.665  -0.109  -4.667  0.00  0.00    +0.103 A 
ATOM      4  C   UNL     1       2.651  -0.800  -5.400  0.00  0.00    +0.150 A 
ATOM      5  N   UNL     1       3.469  -1.367  -4.558  0.00  0.00    -0.172 NA
ATOM      6  C   UNL     1       0.539   0.676  -5.022  0.00  0.00    +0.263 A 
ATOM      7  O   UNL     1       0.255   0.869  -6.191  0.00  0.00    -0.267 OA
ATOM      8  N   UNL     1      -0.216   1.198  -4.029  0.00  0.00    -0.301 N 
ATOM      9  H   UNL     1      -0.994   1.735  -4.246  0.00  0.00    +0.171 HD
ATOM     10  C   UNL     1       0.115   0.979  -2.723  0.00  0.00    +0.172 A 
ATOM     11  N   UNL     1       1.156   0.254  -2.380  0.00  0.00    -0.204 NA
ENDROOT
BRANCH   1  17
ATOM     12  C   UNL     1       3.744  -0.699  -0.960  0.00  0.00    +0.029 A 
ATOM     13  C   UNL     1       4.367  -1.137   0.193  0.00  0.00    +0.022 A 
ATOM     14  C   UNL     1       4.958  -2.388   0.230  0.00  0.00    +0.041 A 
ATOM     15  C   UNL     1       4.922  -3.205  -0.886  0.00  0.00    +0.022 A 
ATOM     16  C   UNL     1       4.296  -2.775  -2.039  0.00  0.00    +0.029 A 
ATOM     17  C   UNL     1       3.702  -1.521  -2.079  0.00  0.00    +0.068 A 
ATOM     18 CL   UNL     1       5.746  -2.931   1.678  0.00  0.00    -0.084 Cl
ENDBRANCH   1  17
BRANCH  10  19
ATOM     19  S   UNL     1      -0.889   1.683  -1.458  0.00  0.00    -0.078 S 
BRANCH  19  20
ATOM     20  C   UNL     1      -0.016   1.080   0.008  0.00  0.00    +0.173 C 
BRANCH  20  21
ATOM     21  C   UNL     1      -0.717   1.573   1.248  0.00  0.00    +0.227 C 
ATOM     22  O   UNL     1      -1.709   2.265   1.150  0.00  0.00    -0.275 OA
ATOM     23  N   UNL     1      -0.242   1.246   2.466  0.00  0.00    -0.285 N 
ATOM     24  H   UNL     1       0.511   0.639   2.546  0.00  0.00    +0.155 HD
BRANCH  23  25
ATOM     25  C   UNL     1      -0.834   1.782   3.615  0.00  0.00    +0.035 A 
ATOM     26  C   UNL     1      -0.052   2.086   4.723  0.00  0.00    +0.025 A 
ATOM     27  C   UNL     1      -0.637   2.621   5.854  0.00  0.00    +0.023 A 
ATOM     28  C   UNL     1      -2.002   2.843   5.889  0.00  0.00    +0.059 A 
ATOM     29  C   UNL     1      -2.785   2.535   4.789  0.00  0.00    +0.061 A 
ATOM     30  C   UNL     1      -2.203   2.006   3.652  0.00  0.00    +0.044 A 
ATOM     31 CL   UNL     1      -4.498   2.815   4.837  0.00  0.00    -0.082 Cl
ATOM     32 CL   UNL     1      -2.736   3.509   7.315  0.00  0.00    -0.082 Cl
ENDBRANCH  23  25
ENDBRANCH  20  21
ENDBRANCH  19  20
ENDBRANCH  10  19
TORSDOF 5
