REMARK  Name = ZINC06445054
REMARK  4 active torsions:
REMARK  status: ('A' for Active; 'I' for Inactive)
REMARK    1  A    between atoms: C_3  and  S_24
REMARK    2  A    between atoms: C_6  and  N_7
REMARK    3  A    between atoms: C_8  and  C_14
REMARK    4  A    between atoms: S_24  and  N_27
REMARK                            x       y       z     vdW  Elec       q    Type
REMARK                         _______ _______ _______ _____ _____    ______ ____
ROOT
ATOM      1  N   UNL     1      -3.320   4.437   6.112  0.00  0.00    -0.275 N 
ATOM      2  C   UNL     1      -2.528   3.321   5.973  0.00  0.00    +0.143 A 
ATOM      3  N   UNL     1      -3.268   2.329   5.594  0.00  0.00    -0.158 NA
ATOM      4  N   UNL     1      -4.587   2.788   5.475  0.00  0.00    -0.254 N 
ATOM      5  H   UNL     1      -5.356   2.263   5.207  0.00  0.00    +0.191 HD
ATOM      6  C   UNL     1      -4.588   4.096   5.808  0.00  0.00    +0.180 A 
ATOM      7  S   UNL     1      -5.950   5.133   5.835  0.00  0.00    -0.011 S 
ENDROOT
BRANCH   2   8
ATOM      8  C   UNL     1      -1.043   3.263   6.223  0.00  0.00    +0.032 C 
ATOM      9  C   UNL     1      -0.348   4.367   5.424  0.00  0.00    +0.018 C 
ATOM     10  C   UNL     1       1.160   4.307   5.678  0.00  0.00    -0.010 C 
ATOM     11  C   UNL     1       1.434   4.508   7.170  0.00  0.00    +0.007 C 
ATOM     12  C   UNL     1       0.739   3.404   7.969  0.00  0.00    -0.010 C 
ATOM     13  C   UNL     1      -0.769   3.463   7.715  0.00  0.00    +0.018 C 
ATOM     14  C   UNL     1       1.277   2.040   7.530  0.00  0.00    +0.007 C 
ATOM     15  C   UNL     1       1.002   1.840   6.038  0.00  0.00    -0.010 C 
ATOM     16  C   UNL     1       1.698   2.944   5.239  0.00  0.00    +0.007 C 
ATOM     17  C   UNL     1      -0.505   1.899   5.785  0.00  0.00    +0.018 C 
ENDBRANCH   2   8
BRANCH   1  23
ATOM     18  C   UNL     1      -2.729   6.715   5.564  0.00  0.00    +0.028 A 
ATOM     19  C   UNL     1      -2.299   7.968   5.956  0.00  0.00    +0.030 A 
ATOM     20  C   UNL     1      -2.022   8.219   7.287  0.00  0.00    +0.105 A 
ATOM     21  C   UNL     1      -2.170   7.217   8.229  0.00  0.00    +0.030 A 
ATOM     22  C   UNL     1      -2.605   5.964   7.843  0.00  0.00    +0.028 A 
ATOM     23  C   UNL     1      -2.884   5.708   6.507  0.00  0.00    +0.050 A 
BRANCH  20  24
ATOM     24  S   UNL     1      -1.473   9.818   7.785  0.00  0.00    +0.056 S 
ATOM     25  O   UNL     1      -0.889  10.421   6.638  0.00  0.00    -0.153 OA
ATOM     26  O   UNL     1      -0.760   9.643   9.001  0.00  0.00    -0.153 OA
BRANCH  24  27
ATOM     27  N   UNL     1      -2.822  10.706   8.151  0.00  0.00    -0.204 NA
ATOM     28  H   UNL     1      -3.703  10.308   8.068  0.00  0.00    +0.144 HD
ATOM     29  H   UNL     1      -2.731  11.625   8.449  0.00  0.00    +0.144 HD
ENDBRANCH  24  27
ENDBRANCH  20  24
ENDBRANCH   1  23
TORSDOF 4
