REMARK  Name = ZINC20445651
REMARK  7 active torsions:
REMARK  status: ('A' for Active; 'I' for Inactive)
REMARK    1  A    between atoms: C_1  and  C_2
REMARK    2  A    between atoms: C_2  and  C_3
REMARK    3  A    between atoms: C_6  and  N_9
REMARK    4  A    between atoms: C_10  and  C_12
REMARK    5  A    between atoms: C_14  and  C_25
REMARK    6  A    between atoms: C_18  and  C_23
REMARK    7  A    between atoms: C_23  and  C_24
REMARK                            x       y       z     vdW  Elec       q    Type
REMARK                         _______ _______ _______ _____ _____    ______ ____
ROOT
ATOM      1  C   UNL     1       0.048  -0.159   0.000  0.00  0.00    +0.166 C 
ATOM      2  C   UNL     1       1.110  -0.776  -0.919  0.00  0.00    +0.140 C 
ATOM      3  N   UNL     1       2.453  -0.500  -0.408  0.00  0.00    -0.272 N 
ATOM      4  N   UNL     1       2.736   0.824  -0.303  0.00  0.00    -0.225 N 
ATOM      5  C   UNL     1       3.968   1.413  -0.260  0.00  0.00    +0.151 A 
ATOM      6  N   UNL     1       3.780   2.698  -0.140  0.00  0.00    -0.132 NA
ATOM      7  N   UNL     1       2.519   2.962  -0.110  0.00  0.00    -0.121 NA
ATOM      8  C   UNL     1       1.841   1.853  -0.212  0.00  0.00    +0.209 A 
ATOM      9  S   UNL     1       0.088   1.644  -0.235  0.00  0.00    -0.069 S 
ATOM     10  H   UNL     1       3.126  -1.331  -0.150  0.00  0.00    +0.167 HD
ENDROOT
BRANCH   2  11
ATOM     11  C   UNL     1       0.901  -2.267  -0.990  0.00  0.00    -0.024 A 
ATOM     12  C   UNL     1       1.365  -3.079   0.028  0.00  0.00    +0.007 A 
ATOM     13  C   UNL     1       1.169  -4.446  -0.034  0.00  0.00    +0.020 A 
ATOM     14  C   UNL     1       0.518  -5.003  -1.120  0.00  0.00    +0.041 A 
ATOM     15  C   UNL     1       0.059  -4.190  -2.142  0.00  0.00    +0.020 A 
ATOM     16  C   UNL     1       0.251  -2.823  -2.076  0.00  0.00    +0.007 A 
ATOM     17 CL   UNL     1       0.277  -6.720  -1.201  0.00  0.00    -0.084 Cl
ENDBRANCH   2  11
BRANCH   1  19
ATOM     18  N   UNL     1      -2.276  -0.776   0.578  0.00  0.00    -0.285 N 
ATOM     19  C   UNL     1      -1.314  -0.691  -0.362  0.00  0.00    +0.233 C 
ATOM     20  O   UNL     1      -1.545  -1.041  -1.500  0.00  0.00    -0.274 OA
ATOM     21  H   UNL     1      -2.043  -0.541   1.627  0.00  0.00    +0.155 HD
BRANCH  18  25
ATOM     22  C   UNL     1      -6.134  -1.934  -0.489  0.00  0.00    -0.048 A 
ATOM     23  C   UNL     1      -5.626  -2.283   0.749  0.00  0.00    +0.005 A 
ATOM     24  C   UNL     1      -4.348  -1.900   1.106  0.00  0.00    +0.023 A 
ATOM     25  C   UNL     1      -3.572  -1.165   0.219  0.00  0.00    +0.033 A 
ATOM     26  C   UNL     1      -4.086  -0.811  -1.021  0.00  0.00    +0.023 A 
ATOM     27  C   UNL     1      -5.364  -1.201  -1.374  0.00  0.00    +0.005 A 
BRANCH  22  29
ATOM     28  C   UNL     1      -8.523  -1.270  -0.447  0.00  0.00    +0.009 C 
ATOM     29  C   UNL     1      -7.529  -2.352  -0.875  0.00  0.00    +0.032 C 
ENDBRANCH  22  29
ENDBRANCH  18  25
ENDBRANCH   1  19
BRANCH   5  30
ATOM     30  C   UNL     1       5.297   0.708  -0.336  0.00  0.00    +0.074 C 
ATOM     31  C   UNL     1       5.735   0.601  -1.798  0.00  0.00    +0.012 C 
ENDBRANCH   5  30
TORSDOF 5
