REMARK  Name = ZINC08800264
REMARK  11 active torsions:
REMARK  status: ('A' for Active; 'I' for Inactive)
REMARK    1  A    between atoms: C_1  and  C_2
REMARK    2  A    between atoms: C_4  and  S_11
REMARK    3  A    between atoms: C_6  and  C_10
REMARK    4  A    between atoms: C_7  and  O_8
REMARK    5  A    between atoms: O_8  and  C_9
REMARK    6  A    between atoms: S_11  and  N_14
REMARK    7  A    between atoms: N_14  and  C_15
REMARK    8  A    between atoms: C_15  and  C_16
REMARK    9  A    between atoms: C_16  and  C_18
REMARK   10  A    between atoms: C_16  and  N_70
REMARK   11  A    between atoms: N_27  and  C_28
REMARK                            x       y       z     vdW  Elec       q    Type
REMARK                         _______ _______ _______ _____ _____    ______ ____
ROOT
ATOM      1  C   UNL     1       2.479  -1.943   4.387  0.00  0.00    -0.022 C 
ENDROOT
BRANCH   1   2
ATOM      2  C   UNL     1       1.897  -1.097   3.285  0.00  0.00    -0.059 A 
ATOM      3  C   UNL     1       0.747  -1.504   2.632  0.00  0.00    +0.004 A 
ATOM      4  C   UNL     1       0.218  -0.730   1.622  0.00  0.00    +0.023 A 
ATOM      5  C   UNL     1       0.835   0.466   1.252  0.00  0.00    +0.033 A 
ATOM      6  C   UNL     1       1.982   0.871   1.911  0.00  0.00    -0.026 A 
ATOM      7  C   UNL     1       2.510   0.086   2.924  0.00  0.00    +0.007 A 
ATOM      8  C   UNL     1       2.691   2.157   1.566  0.00  0.00    +0.038 C 
ATOM      9  C   UNL     1       2.198   2.669   0.210  0.00  0.00    +0.024 C 
ATOM     10  C   UNL     1       0.666   2.606   0.210  0.00  0.00    +0.105 C 
ATOM     11  N   UNL     1       0.254   1.201   0.219  0.00  0.00    -0.333 N 
ATOM     12  C   UNL     1      -1.210   1.081   0.247  0.00  0.00    +0.129 C 
ENDBRANCH   1   2
BRANCH   1  18
ATOM     13  C   UNL     1       3.670  -2.962   2.542  0.00  0.00    -0.078 C 
ATOM     14  C   UNL     1       4.314  -4.262   2.056  0.00  0.00    -0.019 C 
ATOM     15  C   UNL     1       3.231  -5.332   1.890  0.00  0.00    -0.004 C 
ATOM     16  C   UNL     1       2.507  -5.525   3.226  0.00  0.00    -0.019 C 
ATOM     17  C   UNL     1       1.915  -4.188   3.678  0.00  0.00    -0.078 C 
ATOM     18  N   UNL     1       3.011  -3.209   3.842  0.00  0.00    +0.385 N 
ATOM     19  H   UNL     1       3.702  -3.591   4.498  0.00  0.00    -0.081 HD
ENDBRANCH   1  18
BRANCH   1  20
ATOM     20  C   UNL     1       1.393  -2.254   5.420  0.00  0.00    +0.095 C 
BRANCH  20  21
ATOM     21  N   UNL     1       1.965  -3.058   6.503  0.00  0.00    -0.191 NA
ATOM     22  H   UNL     1       2.768  -3.580   6.348  0.00  0.00    +0.148 HD
BRANCH  21  23
ATOM     23  S   UNL     1       1.241  -3.075   7.992  0.00  0.00    +0.058 S 
ATOM     24  O   UNL     1       2.005  -3.955   8.805  0.00  0.00    -0.153 OA
ATOM     25  O   UNL     1       1.008  -1.719   8.346  0.00  0.00    -0.153 OA
BRANCH  23  29
ATOM     26  C   UNL     1      -1.877  -7.269   7.934  0.00  0.00    +0.047 C 
ATOM     27  C   UNL     1      -1.724  -5.778   7.778  0.00  0.00    -0.007 A 
ATOM     28  C   UNL     1      -0.484  -5.190   7.934  0.00  0.00    +0.035 A 
ATOM     29  C   UNL     1      -0.343  -3.822   7.792  0.00  0.00    +0.106 A 
ATOM     30  C   UNL     1      -1.443  -3.038   7.499  0.00  0.00    +0.035 A 
ATOM     31  C   UNL     1      -2.685  -3.622   7.336  0.00  0.00    -0.007 A 
ATOM     32  C   UNL     1      -2.829  -4.994   7.479  0.00  0.00    +0.126 A 
ATOM     33  C   UNL     1      -3.883  -2.767   7.011  0.00  0.00    +0.047 C 
BRANCH  32  34
ATOM     34  O   UNL     1      -4.050  -5.570   7.324  0.00  0.00    -0.495 OA
ATOM     35  C   UNL     1      -4.862  -5.692   8.494  0.00  0.00    +0.277 C 
ENDBRANCH  32  34
ENDBRANCH  23  29
ENDBRANCH  21  23
ENDBRANCH  20  21
ENDBRANCH   1  20
TORSDOF 7
