REMARK  Name = ZINC44173724
REMARK  9 active torsions:
REMARK  status: ('A' for Active; 'I' for Inactive)
REMARK    1  A    between atoms: C_1  and  C_2
REMARK    2  A    between atoms: C_2  and  C_4
REMARK    3  A    between atoms: C_7  and  N_10
REMARK    4  A    between atoms: C_15  and  C_34
REMARK    5  A    between atoms: C_18  and  C_23
REMARK    6  A    between atoms: C_18  and  C_31
REMARK    7  A    between atoms: C_23  and  C_24
REMARK    8  A    between atoms: C_27  and  O_30
REMARK    9  A    between atoms: C_35  and  C_36
REMARK                            x       y       z     vdW  Elec       q    Type
REMARK                         _______ _______ _______ _____ _____    ______ ____
ROOT
ATOM      1  N   UNL     1      -0.008  -2.796  -4.896  0.00  0.00    -0.210 N 
ATOM      2  C   UNL     1      -0.017  -2.180  -6.122  0.00  0.00    +0.229 C 
ATOM      3  O   UNL     1       0.195  -1.011  -6.365  0.00  0.00    -0.275 OA
ATOM      4  C   UNL     1      -0.335  -3.229  -7.059  0.00  0.00    +0.077 C 
ATOM      5  C   UNL     1      -0.217  -3.548  -8.493  0.00  0.00    -0.034 C 
ATOM      6  N   UNL     1      -0.603  -5.001  -8.525  0.00  0.00    +0.395 N 
ATOM      7  C   UNL     1      -0.364  -5.567  -7.163  0.00  0.00    +0.052 C 
ATOM      8  C   UNL     1       0.398  -4.469  -6.407  0.00  0.00    +0.086 C 
ATOM      9  C   UNL     1       0.004  -4.159  -4.990  0.00  0.00    +0.229 C 
ATOM     10  O   UNL     1      -0.253  -4.956  -4.113  0.00  0.00    -0.275 OA
ATOM     11  H   UNL     1      -1.578  -5.091  -8.766  0.00  0.00    -0.083 HD
ATOM     12  H   UNL     1      -0.036  -5.490  -9.202  0.00  0.00    -0.083 HD
ENDROOT
BRANCH   1  16
ATOM     13  C   UNL     1      -0.000  -0.732  -1.274  0.00  0.00    +0.017 A 
ATOM     14  C   UNL     1      -0.015  -0.027  -2.484  0.00  0.00    +0.013 A 
ATOM     15  C   UNL     1      -0.017  -0.713  -3.677  0.00  0.00    +0.024 A 
ATOM     16  C   UNL     1      -0.005  -2.104  -3.682  0.00  0.00    +0.044 A 
ATOM     17  C   UNL     1       0.010  -2.809  -2.482  0.00  0.00    +0.024 A 
ATOM     18  C   UNL     1       0.019  -2.132  -1.284  0.00  0.00    +0.013 A 
BRANCH  13  20
ATOM     19  C   UNL     1      -0.018   1.503   0.010  0.00  0.00    +0.091 C 
ATOM     20  C   UNL     1       0.002  -0.004   0.002  0.00  0.00    +0.160 C 
ATOM     21  O   UNL     1       0.020  -0.616   1.049  0.00  0.00    -0.292 OA
ENDBRANCH  13  20
ENDBRANCH   1  16
BRANCH   7  22
ATOM     22  C   UNL     1       0.486  -6.808  -7.255  0.00  0.00    +0.347 C 
ATOM     23  O   UNL     1       0.849  -7.219  -8.345  0.00  0.00    -0.248 OA
ATOM     24  O   UNL     1       0.812  -7.400  -6.241  0.00  0.00    -0.248 OA
ENDBRANCH   7  22
BRANCH   5  25
ATOM     25  C   UNL     1      -1.176  -2.719  -9.308  0.00  0.00    -0.041 C 
ATOM     26  C   UNL     1      -0.725  -1.978 -10.311  0.00  0.00    +0.002 C 
BRANCH  26  27
ATOM     27  C   UNL     1      -1.665  -1.165 -11.110  0.00  0.00    -0.025 A 
ATOM     28  C   UNL     1      -3.027  -1.170 -10.809  0.00  0.00    +0.008 A 
ATOM     29  C   UNL     1      -3.899  -0.408 -11.559  0.00  0.00    +0.001 A 
ATOM     30  C   UNL     1      -3.426   0.358 -12.609  0.00  0.00    +0.000 A 
ATOM     31  C   UNL     1      -2.077   0.367 -12.913  0.00  0.00    +0.001 A 
ATOM     32  C   UNL     1      -1.193  -0.385 -12.167  0.00  0.00    +0.008 A 
ENDBRANCH  26  27
ENDBRANCH   5  25
BRANCH   7  33
ATOM     33  C   UNL     1      -1.697  -5.886  -6.482  0.00  0.00    +0.035 C 
BRANCH  33  34
ATOM     34  C   UNL     1      -2.439  -6.920  -7.290  0.00  0.00    -0.048 A 
ATOM     35  C   UNL     1      -3.305  -6.521  -8.291  0.00  0.00    +0.007 A 
ATOM     36  C   UNL     1      -3.987  -7.467  -9.033  0.00  0.00    +0.045 A 
ATOM     37  C   UNL     1      -3.802  -8.817  -8.772  0.00  0.00    +0.117 A 
ATOM     38  C   UNL     1      -2.932  -9.214  -7.767  0.00  0.00    +0.045 A 
ATOM     39  C   UNL     1      -2.249  -8.265  -7.031  0.00  0.00    +0.007 A 
BRANCH  37  40
ATOM     40  O   UNL     1      -4.472  -9.749  -9.500  0.00  0.00    -0.507 OA
ATOM     41  H   UNL     1      -4.003 -10.040 -10.293  0.00  0.00    +0.292 HD
ENDBRANCH  37  40
ENDBRANCH  33  34
ENDBRANCH   7  33
TORSDOF 8
