REMARK  Name = ZINC39344554
REMARK  13 active torsions:
REMARK  status: ('A' for Active; 'I' for Inactive)
REMARK    1  A    between atoms: C_1  and  C_2
REMARK    2  A    between atoms: C_3  and  C_4
REMARK    3  A    between atoms: C_3  and  C_5
REMARK    4  A    between atoms: C_5  and  N_6
REMARK    5  A    between atoms: N_6  and  C_7
REMARK    6  A    between atoms: N_13  and  C_26
REMARK    7  A    between atoms: C_14  and  C_22
REMARK    8  A    between atoms: C_16  and  N_18
REMARK    9  A    between atoms: C_19  and  C_21
REMARK   10  A    between atoms: C_22  and  O_24
REMARK   11  A    between atoms: O_24  and  C_25
REMARK   12  A    between atoms: C_26  and  C_27
REMARK   13  A    between atoms: C_27  and  C_28
REMARK                            x       y       z     vdW  Elec       q    Type
REMARK                         _______ _______ _______ _____ _____    ______ ____
ROOT
ATOM      1  C   UNL     1      -1.205  -4.057   1.623  0.00  0.00    +0.044 A 
ATOM      2  C   UNL     1      -1.306  -4.545   2.925  0.00  0.00    +0.033 A 
ATOM      3  C   UNL     1      -1.302  -5.913   3.118  0.00  0.00    +0.015 A 
ATOM      4  C   UNL     1      -1.200  -6.768   2.030  0.00  0.00    +0.105 A 
ATOM      5  N   UNL     1      -1.106  -6.260   0.801  0.00  0.00    -0.348 N 
ATOM      6  C   UNL     1      -1.111  -4.962   0.577  0.00  0.00    +0.107 A 
ATOM      7  N   UNL     1      -1.214  -8.103   2.427  0.00  0.00    -0.301 N 
ATOM      8  C   UNL     1      -1.334  -8.197   3.884  0.00  0.00    +0.208 C 
ATOM      9  C   UNL     1      -1.395  -6.742   4.378  0.00  0.00    +0.138 C 
ATOM     10  H   UNL     1      -1.035  -6.866   0.047  0.00  0.00    +0.167 HD
ENDROOT
BRANCH   9  11
ATOM     11  N   UNL     1      -2.663  -6.488   5.066  0.00  0.00    -0.306 N 
ATOM     12  C   UNL     1      -2.765  -5.462   5.934  0.00  0.00    +0.210 C 
ATOM     13  O   UNL     1      -1.807  -4.750   6.146  0.00  0.00    -0.276 OA
ATOM     14  C   UNL     1      -4.070  -5.201   6.641  0.00  0.00    +0.109 C 
ATOM     15  H   UNL     1      -3.430  -7.057   4.896  0.00  0.00    +0.149 HD
ENDBRANCH   9  11
BRANCH   1  16
ATOM     16  N   UNL     1      -1.204  -2.679   1.375  0.00  0.00    -0.339 N 
ATOM     17  H   UNL     1      -1.269  -2.053   2.114  0.00  0.00    +0.146 HD
BRANCH  16  18
ATOM     18  C   UNL     1      -1.103  -2.181   0.001  0.00  0.00    +0.132 C 
BRANCH  18  21
ATOM     19  C   UNL     1      -0.018   1.503   0.010  0.00  0.00    +0.035 C 
ATOM     20  C   UNL     1       0.002  -0.004   0.002  0.00  0.00    -0.030 C 
ATOM     21  C   UNL     1      -1.123  -0.674   0.009  0.00  0.00    -0.060 C 
ATOM     22  C   UNL     1      -2.438   0.061   0.026  0.00  0.00    +0.040 C 
ENDBRANCH  18  21
ENDBRANCH  16  18
ENDBRANCH   1  16
BRANCH   8  23
ATOM     23  C   UNL     1      -2.595  -8.932   4.260  0.00  0.00    +0.330 C 
ATOM     24  O   UNL     1      -3.488  -9.050   3.454  0.00  0.00    -0.249 OA
BRANCH  23  25
ATOM     25  O   UNL     1      -2.726  -9.455   5.489  0.00  0.00    -0.467 OA
ATOM     26  C   UNL     1      -3.948 -10.139   5.776  0.00  0.00    +0.280 C 
ENDBRANCH  23  25
ENDBRANCH   8  23
BRANCH   7  27
ATOM     27  C   UNL     1      -1.124  -9.249   1.518  0.00  0.00    +0.112 C 
BRANCH  27  28
ATOM     28  C   UNL     1       0.345  -9.628   1.321  0.00  0.00    +0.056 C 
BRANCH  28  29
ATOM     29  C   UNL     1       0.438 -10.807   0.386  0.00  0.00    -0.021 A 
ATOM     30  C   UNL     1       0.455 -10.758  -1.078  0.00  0.00    +0.003 A 
ATOM     31  C   UNL     1       0.399  -9.726  -2.016  0.00  0.00    +0.010 A 
ATOM     32  C   UNL     1       0.437 -10.018  -3.350  0.00  0.00    +0.001 A 
ATOM     33  C   UNL     1       0.532 -11.334  -3.781  0.00  0.00    +0.002 A 
ATOM     34  C   UNL     1       0.590 -12.369  -2.873  0.00  0.00    +0.026 A 
ATOM     35  C   UNL     1       0.552 -12.094  -1.510  0.00  0.00    +0.047 A 
ATOM     36  N   UNL     1       0.590 -12.884  -0.382  0.00  0.00    -0.360 N 
ATOM     37  C   UNL     1       0.527 -12.099   0.737  0.00  0.00    +0.087 A 
ATOM     38  H   UNL     1       0.656 -13.851  -0.382  0.00  0.00    +0.165 HD
ENDBRANCH  28  29
ENDBRANCH  27  28
ENDBRANCH   7  27
TORSDOF 9
