REMARK  Name = ZINC39467523
REMARK  5 active torsions:
REMARK  status: ('A' for Active; 'I' for Inactive)
REMARK    1  A    between atoms: C_1  and  C_2
REMARK    2  A    between atoms: C_2  and  O_3
REMARK    3  A    between atoms: O_3  and  C_4
REMARK    4  A    between atoms: P_13  and  C_23
REMARK    5  A    between atoms: C_28  and  O_29
REMARK                            x       y       z     vdW  Elec       q    Type
REMARK                         _______ _______ _______ _____ _____    ______ ____
ROOT
ATOM      1  C   UNL     1      -1.498  -1.848   0.006  0.00  0.00    +0.130 C 
ATOM      2  C   UNL     1      -0.431  -2.651  -0.003  0.00  0.00    +0.023 C 
ATOM      3  C   UNL     1      -0.619  -4.144   0.003  0.00  0.00    +0.019 C 
ATOM      4  C   UNL     1       0.605  -4.829   0.596  0.00  0.00    -0.002 C 
ATOM      5  C   UNL     1       0.234  -6.183   1.217  0.00  0.00    -0.020 C 
ATOM      6  C   UNL     1       1.501  -7.046   1.119  0.00  0.00    +0.157 C 
ATOM      7  O   UNL     1       1.273  -8.338   1.703  0.00  0.00    -0.316 OA
ATOM      8  P   UNL     1      -0.043  -9.158   1.207  0.00  0.00    +0.291 P 
ATOM      9  O   UNL     1      -0.421 -10.180   2.208  0.00  0.00    -0.269 OA
ATOM     10  N   UNL     1      -1.226  -8.017   1.077  0.00  0.00    -0.288 NA
ATOM     11  N   UNL     1      -0.894  -6.796   0.525  0.00  0.00    +0.398 N 
ATOM     12  C   UNL     1      -2.128  -6.006   0.663  0.00  0.00    -0.046 C 
ATOM     13  C   UNL     1      -1.837  -4.509   0.848  0.00  0.00    +0.005 C 
ATOM     14  C   UNL     1      -3.023  -3.691   0.412  0.00  0.00    -0.007 C 
ATOM     15  C   UNL     1      -2.852  -2.436   0.016  0.00  0.00    +0.051 C 
ATOM     16  I   UNL     1      -4.499  -1.295  -0.599  0.00  0.00    -0.040 I 
ATOM     17  H   UNL     1      -2.129  -8.206   1.375  0.00  0.00    +0.111 HD
ATOM     18  H   UNL     1      -0.670  -6.906  -0.453  0.00  0.00    -0.055 HD
ENDROOT
BRANCH   8  19
ATOM     19  C   UNL     1       0.267  -9.937  -0.402  0.00  0.00    +0.091 A 
ATOM     20  C   UNL     1      -0.011  -9.250  -1.568  0.00  0.00    +0.018 A 
ATOM     21  C   UNL     1       0.225  -9.844  -2.794  0.00  0.00    +0.001 A 
ATOM     22  C   UNL     1       0.741 -11.125  -2.857  0.00  0.00    +0.004 A 
ATOM     23  C   UNL     1       1.022 -11.816  -1.694  0.00  0.00    +0.046 A 
ATOM     24  C   UNL     1       0.790 -11.220  -0.462  0.00  0.00    +0.131 A 
BRANCH  24  25
ATOM     25  O   UNL     1       1.071 -11.895   0.684  0.00  0.00    -0.506 OA
ATOM     26  H   UNL     1       0.335 -12.424   1.019  0.00  0.00    +0.292 HD
ENDBRANCH  24  25
ENDBRANCH   8  19
BRANCH   1  27
ATOM     27  O   UNL     1      -1.339  -0.499   0.012  0.00  0.00    -0.492 OA
BRANCH  27  29
ATOM     28  C   UNL     1      -0.019   1.526   0.010  0.00  0.00    +0.048 C 
ATOM     29  C   UNL     1       0.002  -0.004   0.002  0.00  0.00    +0.226 C 
ENDBRANCH  27  29
ENDBRANCH   1  27
TORSDOF 4
