REMARK  Name = ZINC08680707
REMARK  8 active torsions:
REMARK  status: ('A' for Active; 'I' for Inactive)
REMARK    1  A    between atoms: C_4  and  C_7
REMARK    2  A    between atoms: C_7  and  N_58
REMARK    3  A    between atoms: C_8  and  C_9
REMARK    4  A    between atoms: C_8  and  N_58
REMARK    5  A    between atoms: C_16  and  C_18
REMARK    6  A    between atoms: C_16  and  C_23
REMARK    7  A    between atoms: C_16  and  N_58
REMARK    8  A    between atoms: N_27  and  C_28
REMARK                            x       y       z     vdW  Elec       q    Type
REMARK                         _______ _______ _______ _____ _____    ______ ____
ROOT
ATOM      1  N   UNL     1       3.926  -0.693  -0.933  0.00  0.00    +0.395 N 
ATOM      2  H   UNL     1       3.804  -1.641  -0.559  0.00  0.00    -0.079 HD
ENDROOT
BRANCH   1   3
ATOM      3  C   UNL     1       3.748  -0.728  -2.400  0.00  0.00    -0.041 C 
BRANCH   3   7
ATOM      4  C   UNL     1       6.019  -3.981  -3.982  0.00  0.00    +0.000 A 
ATOM      5  C   UNL     1       4.758  -4.207  -3.462  0.00  0.00    +0.000 A 
ATOM      6  C   UNL     1       4.023  -3.154  -2.950  0.00  0.00    +0.002 A 
ATOM      7  C   UNL     1       4.549  -1.875  -2.958  0.00  0.00    -0.064 A 
ATOM      8  C   UNL     1       5.807  -1.649  -3.483  0.00  0.00    +0.002 A 
ATOM      9  C   UNL     1       6.544  -2.703  -3.990  0.00  0.00    +0.000 A 
ENDBRANCH   3   7
ENDBRANCH   1   3
BRANCH   1  10
ATOM     10  C   UNL     1       5.286  -0.217  -0.601  0.00  0.00    -0.041 C 
BRANCH  10  11
ATOM     11  C   UNL     1       5.615  -0.640   0.808  0.00  0.00    -0.064 A 
ATOM     12  C   UNL     1       5.502   0.265   1.846  0.00  0.00    +0.003 A 
ATOM     13  C   UNL     1       5.798  -0.124   3.139  0.00  0.00    +0.020 A 
ATOM     14  C   UNL     1       6.218  -1.418   3.392  0.00  0.00    +0.041 A 
ATOM     15  C   UNL     1       6.336  -2.322   2.352  0.00  0.00    +0.020 A 
ATOM     16  C   UNL     1       6.034  -1.933   1.060  0.00  0.00    +0.003 A 
ATOM     17 CL   UNL     1       6.596  -1.906   5.014  0.00  0.00    -0.084 Cl
ENDBRANCH  10  11
ENDBRANCH   1  10
BRANCH   1  18
ATOM     18  C   UNL     1       2.917   0.197  -0.322  0.00  0.00    +0.041 C 
BRANCH  18  19
ATOM     19  C   UNL     1       2.810  -0.129   1.146  0.00  0.00    -0.016 A 
ATOM     20  C   UNL     1       2.643   0.711   2.196  0.00  0.00    +0.010 A 
ATOM     21  C   UNL     1       2.571   0.183   3.472  0.00  0.00    +0.008 A 
ATOM     22  C   UNL     1       2.670  -1.159   3.634  0.00  0.00    +0.045 A 
ATOM     23  S   UNL     1       2.865  -1.721   1.950  0.00  0.00    -0.103 S 
ENDBRANCH  18  19
BRANCH  18  24
ATOM     24  C   UNL     1       1.584  -0.035  -0.986  0.00  0.00    +0.143 A 
ATOM     25  N   UNL     1       1.050  -1.194  -1.286  0.00  0.00    -0.115 NA
ATOM     26  N   UNL     1      -0.091  -0.974  -1.842  0.00  0.00    -0.023 NA
ATOM     27  N   UNL     1      -0.300   0.295  -1.903  0.00  0.00    -0.044 NA
ATOM     28  N   UNL     1       0.710   0.908  -1.385  0.00  0.00    -0.227 N 
BRANCH  28  29
ATOM     29  C   UNL     1       0.875   2.358  -1.257  0.00  0.00    +0.111 C 
ATOM     30  C   UNL     1      -0.292   2.953  -0.444  0.00  0.00    +0.027 C 
ATOM     31  C   UNL     1      -0.576   4.314  -1.128  0.00  0.00    +0.002 C 
ATOM     32  C   UNL     1      -0.369   3.993  -2.629  0.00  0.00    +0.002 C 
ATOM     33  C   UNL     1       0.827   3.019  -2.646  0.00  0.00    +0.027 C 
ENDBRANCH  28  29
ENDBRANCH  18  24
ENDBRANCH   1  18
TORSDOF 8
