REMARK  Name = ZINC39562048
REMARK  6 active torsions:
REMARK  status: ('A' for Active; 'I' for Inactive)
REMARK    1  A    between atoms: C_1  and  C_2
REMARK    2  A    between atoms: C_11  and  O_15
REMARK    3  A    between atoms: O_15  and  C_16
REMARK    4  A    between atoms: C_16  and  C_17
REMARK    5  A    between atoms: N_19  and  C_20
REMARK    6  A    between atoms: C_22  and  N_27
REMARK                            x       y       z     vdW  Elec       q    Type
REMARK                         _______ _______ _______ _____ _____    ______ ____
ROOT
ATOM      1  O   UNL     1      -2.356  -4.770  -0.405  0.00  0.00    -0.466 OA
ENDROOT
BRANCH   1  11
ATOM      2  C   UNL     1      -0.001   1.522  -0.017  0.00  0.00    +0.008 C 
ATOM      3  C   UNL     1       0.020  -0.007  -0.028  0.00  0.00    -0.009 C 
ATOM      4  C   UNL     1      -1.415  -0.541   0.002  0.00  0.00    +0.008 C 
ATOM      5  C   UNL     1      -1.413  -2.048  -0.258  0.00  0.00    +0.037 C 
ATOM      6  C   UNL     1      -0.446  -2.716   0.715  0.00  0.00    -0.023 A 
ATOM      7  C   UNL     1       0.505  -1.991   1.346  0.00  0.00    -0.004 A 
ATOM      8  S   UNL     1       1.383  -3.153   2.361  0.00  0.00    -0.073 S 
ATOM      9  C   UNL     1       0.477  -4.607   1.944  0.00  0.00    +0.116 A 
ATOM     10  C   UNL     1      -0.490  -4.138   1.017  0.00  0.00    +0.073 A 
ATOM     11  C   UNL     1      -1.391  -5.101   0.486  0.00  0.00    +0.227 A 
ATOM     12  N   UNL     1      -1.229  -6.348   0.920  0.00  0.00    -0.201 NA
ATOM     13  C   UNL     1      -0.305  -6.713   1.786  0.00  0.00    +0.226 A 
ATOM     14  N   UNL     1       0.568  -5.866   2.319  0.00  0.00    -0.228 NA
ATOM     15  C   UNL     1       0.765  -0.521   1.212  0.00  0.00    +0.046 C 
ENDBRANCH   1  11
BRANCH   1  16
ATOM     16  C   UNL     1      -3.202  -5.824  -0.868  0.00  0.00    +0.326 C 
BRANCH  16  17
ATOM     17  C   UNL     1      -4.206  -5.270  -1.846  0.00  0.00    +0.255 C 
ATOM     18  O   UNL     1      -4.197  -4.088  -2.120  0.00  0.00    -0.272 OA
ATOM     19  N   UNL     1      -5.113  -6.087  -2.416  0.00  0.00    -0.280 N 
ATOM     20  H   UNL     1      -5.080  -7.042  -2.247  0.00  0.00    +0.155 HD
BRANCH  19  21
ATOM     21  C   UNL     1      -6.105  -5.559  -3.252  0.00  0.00    +0.071 A 
ATOM     22  C   UNL     1      -5.821  -4.469  -4.064  0.00  0.00    +0.059 A 
ATOM     23  C   UNL     1      -6.801  -3.950  -4.888  0.00  0.00    +0.128 A 
ATOM     24  C   UNL     1      -8.063  -4.513  -4.905  0.00  0.00    +0.035 A 
ATOM     25  C   UNL     1      -8.351  -5.598  -4.098  0.00  0.00    +0.042 A 
ATOM     26  C   UNL     1      -7.373  -6.127  -3.275  0.00  0.00    +0.145 A 
ATOM     27  F   UNL     1      -7.652  -7.191  -2.490  0.00  0.00    -0.204 F 
BRANCH  23  28
ATOM     28  N   UNL     1      -6.498  -2.788  -5.753  0.00  0.00    +0.056 N 
ATOM     29  O   UNL     1      -5.395  -2.294  -5.739  0.00  0.00    -0.126 OA
ATOM     30  O   UNL     1      -7.355  -2.332  -6.475  0.00  0.00    -0.126 OA
ENDBRANCH  23  28
ENDBRANCH  19  21
ENDBRANCH  16  17
ENDBRANCH   1  16
TORSDOF 5
