REMARK  Name = ZINC31161288
REMARK  10 active torsions:
REMARK  status: ('A' for Active; 'I' for Inactive)
REMARK    1  A    between atoms: C_1  and  C_2
REMARK    2  A    between atoms: C_7  and  C_30
REMARK    3  A    between atoms: C_7  and  C_31
REMARK    4  A    between atoms: C_11  and  C_29
REMARK    5  A    between atoms: C_12  and  C_14
REMARK    6  A    between atoms: C_14  and  C_15
REMARK    7  A    between atoms: C_16  and  O_28
REMARK    8  A    between atoms: C_19  and  C_26
REMARK    9  A    between atoms: C_20  and  O_25
REMARK   10  A    between atoms: C_26  and  O_27
REMARK                            x       y       z     vdW  Elec       q    Type
REMARK                         _______ _______ _______ _____ _____    ______ ____
ROOT
ATOM      1  C   UNL     1       3.720   3.134  -1.217  0.00  0.00    +0.049 C 
ENDROOT
BRANCH   1  12
ATOM      2  C   UNL     1       4.455   0.923   0.420  0.00  0.00    +0.039 C 
ATOM      3  C   UNL     1       4.849   0.935  -1.030  0.00  0.00    -0.073 C 
ATOM      4  C   UNL     1       5.769   0.128  -1.442  0.00  0.00    -0.027 C 
ATOM      5  C   UNL     1       6.258   0.041  -2.850  0.00  0.00    +0.031 C 
ATOM      6  C   UNL     1       5.555   0.988  -3.833  0.00  0.00    +0.005 C 
ATOM      7  C   UNL     1       6.551   1.252  -4.965  0.00  0.00    -0.031 C 
ATOM      8  C   UNL     1       7.711   2.119  -4.491  0.00  0.00    +0.007 C 
ATOM      9  C   UNL     1       7.241   3.378  -3.776  0.00  0.00    +0.001 C 
ATOM     10  C   UNL     1       6.324   3.022  -2.605  0.00  0.00    +0.007 C 
ATOM     11  C   UNL     1       5.108   2.259  -3.118  0.00  0.00    -0.022 C 
ATOM     12  C   UNL     1       4.166   1.882  -1.965  0.00  0.00    +0.023 C 
ATOM     13  C   UNL     1       4.278   3.176  -4.027  0.00  0.00    +0.012 C 
ATOM     14  C   UNL     1       7.143  -0.105  -5.418  0.00  0.00    +0.011 C 
ATOM     15  C   UNL     1       5.896   1.859  -6.205  0.00  0.00    +0.011 C 
ENDBRANCH   1  12
BRANCH   1  16
ATOM     16  C   UNL     1       2.354   2.885  -0.575  0.00  0.00    +0.129 C 
ATOM     17  C   UNL     1       1.174   2.685  -1.538  0.00  0.00    +0.172 C 
ATOM     18  C   UNL     1      -0.037   2.277  -0.736  0.00  0.00    +0.011 C 
ATOM     19  C   UNL     1      -0.333   2.895   0.381  0.00  0.00    -0.015 C 
ATOM     20  C   UNL     1       0.533   4.025   0.881  0.00  0.00    +0.174 C 
ATOM     21  C   UNL     1       2.007   3.611   0.738  0.00  0.00    +0.186 C 
ATOM     22  O   UNL     1       2.299   2.190   0.673  0.00  0.00    -0.359 OA
BRANCH  20  23
ATOM     23  O   UNL     1       0.286   5.199   0.105  0.00  0.00    -0.385 OA
ATOM     24  H   UNL     1       0.830   6.129   0.326  0.00  0.00    +0.210 HD
ENDBRANCH  20  23
BRANCH  17  25
ATOM     25  O   UNL     1       1.492   1.660  -2.482  0.00  0.00    -0.385 OA
ATOM     26  H   UNL     1       0.762   1.378  -3.255  0.00  0.00    +0.210 HD
ENDBRANCH  17  25
BRANCH  19  27
ATOM     27  C   UNL     1      -1.545   2.475   1.171  0.00  0.00    +0.189 C 
BRANCH  27  28
ATOM     28  O   UNL     1      -2.199   1.395   0.501  0.00  0.00    -0.391 OA
ATOM     29  H   UNL     1      -3.110   0.952   0.931  0.00  0.00    +0.210 HD
ENDBRANCH  27  28
ENDBRANCH  19  27
ENDBRANCH   1  16
TORSDOF 6
