REMARK  Name = ZINC08622673
REMARK  7 active torsions:
REMARK  status: ('A' for Active; 'I' for Inactive)
REMARK    1  A    between atoms: C_1  and  C_2
REMARK    2  A    between atoms: C_2  and  C_4
REMARK    3  A    between atoms: C_2  and  N_12
REMARK    4  A    between atoms: C_13  and  C_15
REMARK    5  A    between atoms: C_15  and  N_16
REMARK    6  A    between atoms: C_19  and  C_23
REMARK    7  A    between atoms: C_19  and  C_24
REMARK                            x       y       z     vdW  Elec       q    Type
REMARK                         _______ _______ _______ _____ _____    ______ ____
ROOT
ATOM      1  N   UNL     1      -1.083   3.523   0.026  0.00  0.00    -0.215 N 
ATOM      2  C   UNL     1      -0.960   4.275  -1.085  0.00  0.00    +0.251 C 
ATOM      3  O   UNL     1      -1.030   3.899  -2.235  0.00  0.00    -0.272 OA
ATOM      4  C   UNL     1      -0.716   5.690  -0.598  0.00  0.00    +0.135 C 
ATOM      5  N   UNL     1      -0.730   5.558   0.869  0.00  0.00    -0.281 N 
ATOM      6  C   UNL     1      -0.956   4.259   1.137  0.00  0.00    +0.310 C 
ATOM      7  O   UNL     1      -1.034   3.804   2.261  0.00  0.00    -0.252 OA
ATOM      8  C   UNL     1       0.645   6.197  -1.079  0.00  0.00    +0.047 C 
ATOM      9  H   UNL     1      -0.605   6.269   1.516  0.00  0.00    +0.152 HD
ENDROOT
BRANCH   4  10
ATOM     10  C   UNL     1      -1.818   6.607  -1.059  0.00  0.00    -0.015 A 
ATOM     11  C   UNL     1      -2.476   6.354  -2.248  0.00  0.00    +0.007 A 
ATOM     12  C   UNL     1      -3.491   7.193  -2.668  0.00  0.00    +0.020 A 
ATOM     13  C   UNL     1      -3.841   8.292  -1.905  0.00  0.00    +0.041 A 
ATOM     14  C   UNL     1      -3.179   8.548  -0.717  0.00  0.00    +0.020 A 
ATOM     15  C   UNL     1      -2.167   7.706  -0.295  0.00  0.00    +0.007 A 
ATOM     16 CL   UNL     1      -5.111   9.350  -2.436  0.00  0.00    -0.084 Cl
ENDBRANCH   4  10
BRANCH   1  17
ATOM     17  C   UNL     1      -1.331   2.079   0.020  0.00  0.00    +0.213 C 
BRANCH  17  19
ATOM     18  N   UNL     1       0.002  -0.004   0.002  0.00  0.00    -0.307 N 
ATOM     19  C   UNL     1      -0.016   1.344   0.009  0.00  0.00    +0.231 C 
ATOM     20  O   UNL     1       1.026   1.964   0.003  0.00  0.00    -0.274 OA
ATOM     21  H   UNL     1      -0.831  -0.500   0.007  0.00  0.00    +0.149 HD
BRANCH  18  23
ATOM     22  C   UNL     1       1.801  -0.866   1.417  0.00  0.00    +0.033 C 
ATOM     23  C   UNL     1       1.281  -0.719  -0.014  0.00  0.00    +0.100 C 
BRANCH  23  24
ATOM     24  C   UNL     1       1.085  -2.085  -0.620  0.00  0.00    -0.026 A 
ATOM     25  C   UNL     1       2.038  -2.605  -1.476  0.00  0.00    +0.007 A 
ATOM     26  C   UNL     1       1.860  -3.857  -2.032  0.00  0.00    +0.022 A 
ATOM     27  C   UNL     1       0.727  -4.592  -1.733  0.00  0.00    +0.059 A 
ATOM     28  C   UNL     1      -0.228  -4.072  -0.875  0.00  0.00    +0.060 A 
ATOM     29  C   UNL     1      -0.046  -2.820  -0.316  0.00  0.00    +0.027 A 
ATOM     30 CL   UNL     1      -1.651  -4.993  -0.499  0.00  0.00    -0.082 Cl
ATOM     31 CL   UNL     1       0.502  -6.165  -2.431  0.00  0.00    -0.082 Cl
ENDBRANCH  23  24
ENDBRANCH  18  23
ENDBRANCH  17  19
ENDBRANCH   1  17
TORSDOF 5
