REMARK  Name = ZINC23871464
REMARK  10 active torsions:
REMARK  status: ('A' for Active; 'I' for Inactive)
REMARK    1  A    between atoms: C_1  and  C_2
REMARK    2  A    between atoms: C_2  and  C_4
REMARK    3  A    between atoms: C_2  and  N_12
REMARK    4  A    between atoms: C_13  and  C_15
REMARK    5  A    between atoms: C_15  and  S_16
REMARK    6  A    between atoms: S_16  and  C_17
REMARK    7  A    between atoms: C_20  and  C_23
REMARK    8  A    between atoms: N_21  and  N_22
REMARK    9  A    between atoms: C_26  and  O_29
REMARK   10  A    between atoms: O_29  and  C_30
REMARK                            x       y       z     vdW  Elec       q    Type
REMARK                         _______ _______ _______ _____ _____    ______ ____
ROOT
ATOM      1  C   UNL     1       2.386   6.013   0.178  0.00  0.00    +0.209 A 
ATOM      2  N   UNL     1       1.278   6.720   0.173  0.00  0.00    -0.121 NA
ATOM      3  N   UNL     1       1.545   7.959  -0.034  0.00  0.00    -0.127 NA
ATOM      4  C   UNL     1       2.840   8.120  -0.183  0.00  0.00    +0.182 A 
ATOM      5  N   UNL     1       3.418   6.878  -0.051  0.00  0.00    -0.224 N 
ENDROOT
BRANCH   4   6
ATOM      6  C   UNL     1       3.543   9.394  -0.443  0.00  0.00    +0.021 A 
ATOM      7  C   UNL     1       2.898  10.610  -0.209  0.00  0.00    +0.015 A 
ATOM      8  C   UNL     1       3.559  11.795  -0.449  0.00  0.00    +0.046 A 
ATOM      9  C   UNL     1       4.861  11.781  -0.931  0.00  0.00    +0.127 A 
ATOM     10  C   UNL     1       5.504  10.574  -1.170  0.00  0.00    +0.046 A 
ATOM     11  C   UNL     1       4.852   9.384  -0.928  0.00  0.00    +0.015 A 
BRANCH   9  12
ATOM     12  O   UNL     1       5.507  12.952  -1.171  0.00  0.00    -0.434 OA
BRANCH  12  13
ATOM     13  C   UNL     1       4.787  14.157  -0.904  0.00  0.00    +0.541 C 
ATOM     14  F   UNL     1       3.633  14.196  -1.694  0.00  0.00    -0.166 F 
ATOM     15  F   UNL     1       4.428  14.196   0.448  0.00  0.00    -0.166 F 
ENDBRANCH  12  13
ENDBRANCH   9  12
ENDBRANCH   4   6
BRANCH   5  16
ATOM     16  N   UNL     1       4.747   6.574  -0.133  0.00  0.00    -0.295 N 
ATOM     17  H   UNL     1       5.483   7.369  -0.323  0.00  0.00    +0.163 HD
ATOM     18  H   UNL     1       5.082   5.534  -0.008  0.00  0.00    +0.163 HD
ENDBRANCH   5  16
BRANCH   1  19
ATOM     19  S   UNL     1       2.515   4.274   0.427  0.00  0.00    -0.075 S 
BRANCH  19  20
ATOM     20  C   UNL     1       0.769   3.858   0.658  0.00  0.00    +0.173 C 
BRANCH  20  22
ATOM     21  N   UNL     1      -0.586   1.835   1.093  0.00  0.00    -0.308 N 
ATOM     22  C   UNL     1       0.632   2.376   0.894  0.00  0.00    +0.224 C 
ATOM     23  O   UNL     1       1.618   1.671   0.905  0.00  0.00    -0.275 OA
ATOM     24  H   UNL     1      -1.481   2.476   1.083  0.00  0.00    +0.149 HD
BRANCH  21  26
ATOM     25  C   UNL     1      -0.777  -0.333  -0.022  0.00  0.00    +0.033 C 
ATOM     26  C   UNL     1      -0.720   0.395   1.323  0.00  0.00    +0.100 C 
BRANCH  26  27
ATOM     27  C   UNL     1      -1.985   0.124   2.095  0.00  0.00    -0.026 A 
ATOM     28  C   UNL     1      -1.992  -0.830   3.096  0.00  0.00    +0.007 A 
ATOM     29  C   UNL     1      -3.152  -1.079   3.806  0.00  0.00    +0.022 A 
ATOM     30  C   UNL     1      -4.306  -0.375   3.514  0.00  0.00    +0.059 A 
ATOM     31  C   UNL     1      -4.299   0.580   2.512  0.00  0.00    +0.060 A 
ATOM     32  C   UNL     1      -3.135   0.833   1.806  0.00  0.00    +0.027 A 
ATOM     33 CL   UNL     1      -5.746   1.465   2.144  0.00  0.00    -0.082 Cl
ATOM     34 CL   UNL     1      -5.763  -0.688   4.404  0.00  0.00    -0.082 Cl
ENDBRANCH  26  27
ENDBRANCH  21  26
ENDBRANCH  20  22
ENDBRANCH  19  20
ENDBRANCH   1  19
TORSDOF 9
