REMARK  Name = ZINC21056907
REMARK  17 active torsions:
REMARK  status: ('A' for Active; 'I' for Inactive)
REMARK    1  A    between atoms: C_1  and  C_2
REMARK    2  A    between atoms: C_2  and  N_3
REMARK    3  A    between atoms: N_3  and  C_4
REMARK    4  A    between atoms: N_3  and  S_6
REMARK    5  A    between atoms: C_4  and  C_5
REMARK    6  A    between atoms: S_6  and  C_9
REMARK    7  A    between atoms: C_13  and  C_15
REMARK    8  A    between atoms: N_17  and  C_18
REMARK    9  A    between atoms: N_17  and  C_22
REMARK   10  A    between atoms: C_18  and  C_19
REMARK   11  A    between atoms: C_19  and  C_20
REMARK   12  A    between atoms: C_19  and  C_21
REMARK   13  A    between atoms: C_23  and  N_35
REMARK   14  A    between atoms: N_24  and  C_31
REMARK   15  A    between atoms: C_31  and  C_32
REMARK   16  A    between atoms: C_32  and  C_33
REMARK   17  A    between atoms: C_32  and  C_34
REMARK                            x       y       z     vdW  Elec       q    Type
REMARK                         _______ _______ _______ _____ _____    ______ ____
ROOT
ATOM      1  C   UNL     1      -0.232  -2.091   3.825  0.00  0.00    +0.251 C 
ATOM      2  O   UNL     1      -0.415  -2.751   4.829  0.00  0.00    -0.270 OA
ATOM      3  N   UNL     1       0.361  -2.648   2.750  0.00  0.00    -0.260 N 
ENDROOT
BRANCH   3   4
ATOM      4  C   UNL     1       0.628  -1.866   1.607  0.00  0.00    +0.140 A 
ATOM      5  C   UNL     1       1.468  -0.773   1.686  0.00  0.00    +0.127 A 
ATOM      6  N   UNL     1       1.710  -0.030   0.554  0.00  0.00    -0.280 N 
ATOM      7  C   UNL     1       1.132  -0.362  -0.615  0.00  0.00    +0.331 A 
ATOM      8  O   UNL     1       1.355   0.311  -1.603  0.00  0.00    -0.246 OA
ATOM      9  N   UNL     1       0.316  -1.427  -0.711  0.00  0.00    -0.273 N 
ATOM     10  H   UNL     1      -0.140  -1.685  -1.679  0.00  0.00    +0.173 HD
ATOM     11  C   UNL     1       0.045  -2.187   0.367  0.00  0.00    +0.277 A 
ATOM     12  O   UNL     1      -0.700  -3.148   0.270  0.00  0.00    -0.266 OA
BRANCH   5  13
ATOM     13  N   UNL     1       2.054  -0.431   2.881  0.00  0.00    -0.343 N 
ATOM     14  H   UNL     1       2.721   0.441   2.936  0.00  0.00    +0.144 HD
ATOM     15  H   UNL     1       1.855  -1.029   3.782  0.00  0.00    +0.144 HD
ENDBRANCH   5  13
BRANCH   6  16
ATOM     16  C   UNL     1       2.598   1.133   0.622  0.00  0.00    +0.131 C 
BRANCH  16  17
ATOM     17  C   UNL     1       4.035   0.695   0.334  0.00  0.00    +0.003 C 
ATOM     18  C   UNL     1       4.943   1.925   0.283  0.00  0.00    +0.009 C 
ATOM     19  C   UNL     1       4.513  -0.246   1.442  0.00  0.00    +0.009 C 
ENDBRANCH  16  17
ENDBRANCH   6  16
ENDBRANCH   3   4
BRANCH   1  24
ATOM     20  C   UNL     1      -1.190   1.372   4.919  0.00  0.00    +0.106 A 
ATOM     21  C   UNL     1      -1.457   1.974   3.702  0.00  0.00    +0.028 A 
ATOM     22  C   UNL     1      -1.327   1.259   2.526  0.00  0.00    +0.003 A 
ATOM     23  C   UNL     1      -0.925  -0.061   2.558  0.00  0.00    +0.013 A 
ATOM     24  C   UNL     1      -0.659  -0.676   3.782  0.00  0.00    +0.039 A 
ATOM     25  C   UNL     1      -0.792   0.052   4.966  0.00  0.00    +0.041 A 
BRANCH  20  26
ATOM     26  S   UNL     1      -1.359   2.292   6.412  0.00  0.00    +0.061 S 
ATOM     27  O   UNL     1      -2.271   3.347   6.138  0.00  0.00    -0.153 OA
ATOM     28  O   UNL     1      -1.578   1.347   7.450  0.00  0.00    -0.153 OA
BRANCH  26  29
ATOM     29  N   UNL     1       0.106   3.001   6.718  0.00  0.00    -0.177 NA
BRANCH  29  31
ATOM     30  C   UNL     1       0.081   5.389   7.246  0.00  0.00    +0.022 C 
ATOM     31  C   UNL     1       0.402   4.333   6.186  0.00  0.00    +0.106 C 
ENDBRANCH  29  31
BRANCH  29  32
ATOM     32  C   UNL     1       1.107   2.295   7.522  0.00  0.00    +0.106 C 
ATOM     33  C   UNL     1       2.072   1.551   6.597  0.00  0.00    +0.022 C 
ENDBRANCH  29  32
ENDBRANCH  26  29
ENDBRANCH  20  26
ENDBRANCH   1  24
BRANCH   3  34
ATOM     34  C   UNL     1       0.726  -4.067   2.769  0.00  0.00    +0.117 C 
BRANCH  34  35
ATOM     35  C   UNL     1       2.197  -4.209   3.167  0.00  0.00    +0.001 C 
ATOM     36  C   UNL     1       2.391  -3.696   4.595  0.00  0.00    +0.009 C 
ATOM     37  C   UNL     1       2.604  -5.682   3.094  0.00  0.00    +0.009 C 
ENDBRANCH  34  35
ENDBRANCH   3  34
TORSDOF 11
