REMARK  Name = ZINC08587509
REMARK  5 active torsions:
REMARK  status: ('A' for Active; 'I' for Inactive)
REMARK    1  A    between atoms: C_1  and  N_2
REMARK    2  A    between atoms: C_5  and  C_25
REMARK    3  A    between atoms: C_8  and  C_17
REMARK    4  A    between atoms: C_22  and  O_23
REMARK    5  A    between atoms: N_33  and  C_36
REMARK                            x       y       z     vdW  Elec       q    Type
REMARK                         _______ _______ _______ _____ _____    ______ ____
ROOT
ATOM      1  C   UNL     1      -0.090   1.714  -0.257  0.00  0.00    +0.154 C 
ATOM      2  N   UNL     1       0.067   0.258  -0.201  0.00  0.00    -0.294 N 
ATOM      3  C   UNL     1      -1.024  -0.584   0.065  0.00  0.00    +0.082 A 
ATOM      4  C   UNL     1      -0.800  -2.051   0.109  0.00  0.00    +0.089 A 
ATOM      5  C   UNL     1      -2.018  -2.624   0.377  0.00  0.00    +0.069 A 
ATOM      6  N   UNL     1      -2.930  -1.620   0.482  0.00  0.00    -0.306 N 
ATOM      7  C   UNL     1      -2.310  -0.389   0.316  0.00  0.00    +0.073 A 
ATOM      8  C   UNL     1      -3.078   0.908   0.442  0.00  0.00    +0.154 C 
ATOM      9  N   UNL     1      -4.489   0.630   0.129  0.00  0.00    -0.330 N 
ATOM     10  C   UNL     1      -5.083  -0.559   0.566  0.00  0.00    +0.052 A 
ATOM     11  C   UNL     1      -4.306  -1.710   0.733  0.00  0.00    +0.068 A 
ATOM     12  C   UNL     1      -4.893  -2.894   1.137  0.00  0.00    +0.028 A 
ATOM     13  C   UNL     1      -6.252  -2.935   1.392  0.00  0.00    +0.002 A 
ATOM     14  C   UNL     1      -7.022  -1.796   1.242  0.00  0.00    +0.002 A 
ATOM     15  C   UNL     1      -6.443  -0.609   0.831  0.00  0.00    +0.025 A 
ATOM     16  C   UNL     1       0.549  -2.577  -0.121  0.00  0.00    +0.266 A 
ATOM     17  O   UNL     1       0.796  -3.768  -0.095  0.00  0.00    -0.267 OA
ATOM     18  N   UNL     1       1.505  -1.643  -0.367  0.00  0.00    -0.263 N 
ATOM     19  C   UNL     1       1.266  -0.329  -0.408  0.00  0.00    +0.332 A 
ATOM     20  O   UNL     1       2.209   0.401  -0.647  0.00  0.00    -0.246 OA
ATOM     21  C   UNL     1       2.874  -2.104  -0.606  0.00  0.00    +0.157 C 
ATOM     22  H   UNL     1      -5.007   1.272  -0.380  0.00  0.00    +0.147 HD
ENDROOT
BRANCH   8  23
ATOM     23  C   UNL     1      -2.961   1.436   1.849  0.00  0.00    +0.021 A 
ATOM     24  C   UNL     1      -2.515   0.609   2.862  0.00  0.00    +0.029 A 
ATOM     25  C   UNL     1      -2.407   1.093   4.153  0.00  0.00    +0.042 A 
ATOM     26  C   UNL     1      -2.746   2.405   4.433  0.00  0.00    +0.023 A 
ATOM     27  C   UNL     1      -3.192   3.235   3.423  0.00  0.00    +0.047 A 
ATOM     28  C   UNL     1      -3.296   2.753   2.126  0.00  0.00    +0.122 A 
ATOM     29 CL   UNL     1      -1.847   0.052   5.425  0.00  0.00    -0.084 Cl
BRANCH  28  30
ATOM     30  O   UNL     1      -3.729   3.569   1.129  0.00  0.00    -0.506 OA
ATOM     31  H   UNL     1      -4.678   3.504   0.952  0.00  0.00    +0.292 HD
ENDBRANCH  28  30
ENDBRANCH   8  23
BRANCH   5  32
ATOM     32  C   UNL     1      -2.290  -4.067   0.525  0.00  0.00    -0.000 A 
ATOM     33  C   UNL     1      -1.610  -4.814   1.491  0.00  0.00    +0.010 A 
ATOM     34  C   UNL     1      -1.869  -6.162   1.623  0.00  0.00    +0.001 A 
ATOM     35  C   UNL     1      -2.799  -6.775   0.802  0.00  0.00    +0.000 A 
ATOM     36  C   UNL     1      -3.475  -6.042  -0.156  0.00  0.00    +0.001 A 
ATOM     37  C   UNL     1      -3.232  -4.692  -0.296  0.00  0.00    +0.010 A 
ENDBRANCH   5  32
TORSDOF 3
