REMARK  Name = ZINC21218532
REMARK  12 active torsions:
REMARK  status: ('A' for Active; 'I' for Inactive)
REMARK    1  A    between atoms: C_1  and  C_2
REMARK    2  A    between atoms: C_2  and  O_3
REMARK    3  A    between atoms: O_3  and  C_4
REMARK    4  A    between atoms: C_6  and  C_14
REMARK    5  A    between atoms: C_9  and  O_10
REMARK    6  A    between atoms: O_10  and  C_11
REMARK    7  A    between atoms: C_11  and  C_13
REMARK    8  A    between atoms: C_19  and  C_24
REMARK    9  A    between atoms: C_27  and  O_30
REMARK   10  A    between atoms: O_30  and  C_31
REMARK   11  A    between atoms: C_31  and  C_32
REMARK   12  A    between atoms: C_31  and  C_33
REMARK                            x       y       z     vdW  Elec       q    Type
REMARK                         _______ _______ _______ _____ _____    ______ ____
ROOT
ATOM      1  C   UNL     1      -1.322   1.921   3.708  0.00  0.00    +0.136 C 
ATOM      2  C   UNL     1      -1.021   1.529   2.281  0.00  0.00    +0.036 C 
ATOM      3  C   UNL     1      -1.890   1.557   1.256  0.00  0.00    +0.017 C 
ATOM      4  C   UNL     1      -1.453   1.129  -0.135  0.00  0.00    +0.059 C 
ATOM      5  C   UNL     1       0.020   1.471  -0.347  0.00  0.00    +0.032 C 
ATOM      6  C   UNL     1       0.831   0.725   0.719  0.00  0.00    +0.088 C 
ATOM      7  C   UNL     1       0.320   1.115   2.073  0.00  0.00    +0.163 C 
ATOM      8  O   UNL     1       1.080   1.076   3.020  0.00  0.00    -0.292 OA
ATOM      9  N   UNL     1      -3.188   1.940   1.353  0.00  0.00    -0.316 N 
ATOM     10  C   UNL     1      -3.635   3.080   2.014  0.00  0.00    +0.052 A 
ATOM     11  C   UNL     1      -4.293   4.105   1.358  0.00  0.00    +0.025 A 
ATOM     12  C   UNL     1      -4.813   5.157   2.092  0.00  0.00    +0.002 A 
ATOM     13  C   UNL     1      -4.674   5.183   3.468  0.00  0.00    +0.002 A 
ATOM     14  C   UNL     1      -3.996   4.169   4.123  0.00  0.00    +0.025 A 
ATOM     15  C   UNL     1      -3.459   3.124   3.389  0.00  0.00    +0.049 A 
ATOM     16  N   UNL     1      -2.728   2.105   3.997  0.00  0.00    -0.331 N 
ATOM     17  H   UNL     1      -3.977   1.332   0.887  0.00  0.00    +0.152 HD
ATOM     18  H   UNL     1      -3.236   1.435   4.707  0.00  0.00    +0.147 HD
ENDROOT
BRANCH   1  21
ATOM     19  C   UNL     1       1.065   4.414   5.245  0.00  0.00    +0.163 A 
ATOM     20  C   UNL     1       0.400   3.231   4.965  0.00  0.00    +0.055 A 
ATOM     21  C   UNL     1      -0.600   3.209   4.011  0.00  0.00    -0.019 A 
ATOM     22  C   UNL     1      -0.935   4.365   3.330  0.00  0.00    +0.009 A 
ATOM     23  C   UNL     1      -0.280   5.550   3.608  0.00  0.00    +0.050 A 
ATOM     24  C   UNL     1       0.724   5.578   4.564  0.00  0.00    +0.173 A 
BRANCH  19  25
ATOM     25  O   UNL     1       2.049   4.437   6.183  0.00  0.00    -0.489 OA
BRANCH  25  27
ATOM     26  C   UNL     1       3.471   3.426   7.856  0.00  0.00    +0.048 C 
ATOM     27  C   UNL     1       2.346   3.204   6.842  0.00  0.00    +0.226 C 
ENDBRANCH  25  27
ENDBRANCH  19  25
BRANCH  24  28
ATOM     28  O   UNL     1       1.373   6.742   4.835  0.00  0.00    -0.422 OA
BRANCH  28  29
ATOM     29  C   UNL     1       2.559   6.932   4.236  0.00  0.00    +0.309 C 
ATOM     30  O   UNL     1       2.970   6.123   3.439  0.00  0.00    -0.251 OA
ATOM     31  C   UNL     1       3.378   8.156   4.558  0.00  0.00    +0.136 C 
ENDBRANCH  28  29
ENDBRANCH  24  28
ENDBRANCH   1  21
BRANCH   5  32
ATOM     32  C   UNL     1       0.455   1.030  -1.721  0.00  0.00    -0.043 A 
ATOM     33  C   UNL     1       0.345  -0.298  -2.087  0.00  0.00    +0.007 A 
ATOM     34  C   UNL     1       0.738  -0.704  -3.348  0.00  0.00    +0.046 A 
ATOM     35  C   UNL     1       1.254   0.222  -4.244  0.00  0.00    +0.121 A 
ATOM     36  C   UNL     1       1.369   1.554  -3.872  0.00  0.00    +0.046 A 
ATOM     37  C   UNL     1       0.969   1.955  -2.612  0.00  0.00    +0.007 A 
BRANCH  35  38
ATOM     38  O   UNL     1       1.646  -0.175  -5.483  0.00  0.00    -0.489 OA
BRANCH  38  39
ATOM     39  C   UNL     1       2.080   0.845  -6.384  0.00  0.00    +0.167 C 
ATOM     40  C   UNL     1       3.558   1.150  -6.135  0.00  0.00    +0.051 C 
ATOM     41  C   UNL     1       1.893   0.366  -7.825  0.00  0.00    +0.051 C 
ENDBRANCH  38  39
ENDBRANCH  35  38
ENDBRANCH   5  32
TORSDOF 8
