REMARK  Name = ZINC32586161
REMARK  7 active torsions:
REMARK  status: ('A' for Active; 'I' for Inactive)
REMARK    1  A    between atoms: C_1  and  C_2
REMARK    2  A    between atoms: C_4  and  N_17
REMARK    3  A    between atoms: C_7  and  S_8
REMARK    4  A    between atoms: S_8  and  N_11
REMARK    5  A    between atoms: N_11  and  N_12
REMARK    6  A    between atoms: C_13  and  O_15
REMARK    7  A    between atoms: O_15  and  C_16
REMARK                            x       y       z     vdW  Elec       q    Type
REMARK                         _______ _______ _______ _____ _____    ______ ____
ROOT
ATOM      1  C   UNL     1      -0.072   1.720   0.002  0.00  0.00    +0.046 C 
ATOM      2  C   UNL     1      -0.080   0.214  -0.068  0.00  0.00    -0.022 A 
ATOM      3  C   UNL     1      -0.099  -0.420  -1.296  0.00  0.00    +0.038 A 
ATOM      4  C   UNL     1      -0.107  -1.801  -1.361  0.00  0.00    +0.127 A 
ATOM      5  C   UNL     1      -0.093  -2.547  -0.197  0.00  0.00    +0.034 A 
ATOM      6  C   UNL     1      -0.072  -1.913   1.031  0.00  0.00    +0.031 A 
ATOM      7  C   UNL     1      -0.061  -0.532   1.095  0.00  0.00    +0.115 A 
ENDROOT
BRANCH   7   8
ATOM      8  S   UNL     1      -0.028   0.277   2.660  0.00  0.00    +0.108 S 
ATOM      9  O   UNL     1      -1.050   1.264   2.629  0.00  0.00    -0.147 OA
ATOM     10  O   UNL     1       0.013  -0.746   3.646  0.00  0.00    -0.147 OA
BRANCH   8  11
ATOM     11  N   UNL     1       1.411   1.090   2.762  0.00  0.00    +0.012 NA
BRANCH  11  12
ATOM     12  N   UNL     1       1.717   1.832   3.910  0.00  0.00    -0.065 NA
ATOM     13  C   UNL     1       2.843   2.468   3.989  0.00  0.00    +0.452 C 
ATOM     14  O   UNL     1       3.085   3.290   5.039  0.00  0.00    -0.220 OA
BRANCH  13  15
ATOM     15  O   UNL     1       3.780   2.310   3.021  0.00  0.00    -0.450 OA
ATOM     16  C   UNL     1       3.430   1.488   1.906  0.00  0.00    +0.282 C 
ENDBRANCH  13  15
ENDBRANCH  11  12
ENDBRANCH   8  11
ENDBRANCH   7   8
BRANCH   4  17
ATOM     17  N   UNL     1      -0.129  -2.480  -2.675  0.00  0.00    +0.056 N 
ATOM     18  O   UNL     1      -0.141  -1.827  -3.693  0.00  0.00    -0.126 OA
ATOM     19  O   UNL     1      -0.135  -3.688  -2.732  0.00  0.00    -0.126 OA
ENDBRANCH   4  17
TORSDOF 5
