REMARK  Name = ZINC09696087
REMARK  13 active torsions:
REMARK  status: ('A' for Active; 'I' for Inactive)
REMARK    1  A    between atoms: C_1  and  C_2
REMARK    2  A    between atoms: C_2  and  C_3
REMARK    3  A    between atoms: C_3  and  C_5
REMARK    4  A    between atoms: C_3  and  C_6
REMARK    5  A    between atoms: C_11  and  O_12
REMARK    6  A    between atoms: O_12  and  C_13
REMARK    7  A    between atoms: C_13  and  C_14
REMARK    8  A    between atoms: N_16  and  N_17
REMARK    9  A    between atoms: N_17  and  C_18
REMARK   10  A    between atoms: C_18  and  N_20
REMARK   11  A    between atoms: C_21  and  C_23
REMARK   12  A    between atoms: C_28  and  O_29
REMARK   13  A    between atoms: O_29  and  C_30
REMARK                            x       y       z     vdW  Elec       q    Type
REMARK                         _______ _______ _______ _____ _____    ______ ____
ROOT
ATOM      1  N   UNL     1      -1.214   3.562   0.027  0.00  0.00    -0.245 N 
ATOM      2  H   UNL     1      -0.380   4.058   0.026  0.00  0.00    +0.172 HD
ENDROOT
BRANCH   1   5
ATOM      3  C   UNL     1      -0.018   1.503   0.010  0.00  0.00    +0.267 C 
ATOM      4  O   UNL     1       1.024   2.123   0.004  0.00  0.00    -0.271 OA
ATOM      5  N   UNL     1      -1.195   2.161   0.019  0.00  0.00    -0.232 N 
ATOM      6  H   UNL     1      -2.028   1.664   0.021  0.00  0.00    +0.173 HD
BRANCH   3   7
ATOM      7  C   UNL     1       0.002  -0.004   0.002  0.00  0.00    +0.326 C 
BRANCH   7   8
ATOM      8  O   UNL     1       1.356  -0.462  -0.013  0.00  0.00    -0.482 OA
BRANCH   8  14
ATOM      9  C   UNL     1       2.840  -2.321  -0.043  0.00  0.00    -0.003 A 
ATOM     10  C   UNL     1       3.037  -3.688  -0.048  0.00  0.00    +0.007 A 
ATOM     11  C   UNL     1       1.952  -4.544  -0.041  0.00  0.00    +0.001 A 
ATOM     12  C   UNL     1       0.666  -4.034  -0.026  0.00  0.00    +0.004 A 
ATOM     13  C   UNL     1       0.464  -2.668  -0.017  0.00  0.00    +0.046 A 
ATOM     14  C   UNL     1       1.552  -1.807  -0.022  0.00  0.00    +0.125 A 
BRANCH   9  15
ATOM     15  C   UNL     1       4.024  -1.388  -0.056  0.00  0.00    +0.019 C 
ATOM     16  C   UNL     1       4.853  -1.633  -1.318  0.00  0.00    +0.012 C 
BRANCH  15  18
ATOM     17  C   UNL     1       6.021  -0.617   1.233  0.00  0.00    +0.004 C 
ATOM     18  C   UNL     1       4.889  -1.645   1.180  0.00  0.00    +0.004 C 
ENDBRANCH  15  18
ENDBRANCH   9  15
ENDBRANCH   8  14
ENDBRANCH   7   8
ENDBRANCH   3   7
ENDBRANCH   1   5
BRANCH   1  19
ATOM     19  C   UNL     1      -2.390   4.220   0.036  0.00  0.00    +0.153 C 
ATOM     20  S   UNL     1      -2.413   5.931   0.046  0.00  0.00    -0.017 S 
BRANCH  19  21
ATOM     21  N   UNL     1      -3.548   3.530   0.038  0.00  0.00    -0.263 N 
ATOM     22  C   UNL     1      -4.724   4.188   0.047  0.00  0.00    +0.253 C 
ATOM     23  O   UNL     1      -4.740   5.403   0.054  0.00  0.00    -0.270 OA
ATOM     24  H   UNL     1      -3.535   2.560   0.033  0.00  0.00    +0.157 HD
BRANCH  22  25
ATOM     25  C   UNL     1      -5.991   3.433   0.049  0.00  0.00    +0.080 A 
ATOM     26  C   UNL     1      -5.976   2.036   0.036  0.00  0.00    +0.032 A 
ATOM     27  C   UNL     1      -7.165   1.337   0.043  0.00  0.00    +0.019 A 
ATOM     28  C   UNL     1      -8.374   2.014   0.053  0.00  0.00    +0.019 A 
ATOM     29  C   UNL     1      -8.402   3.394   0.060  0.00  0.00    +0.047 A 
ATOM     30  C   UNL     1      -7.216   4.113   0.059  0.00  0.00    +0.132 A 
ATOM     31 BR   UNL     1      -7.144  -0.554   0.032  0.00  0.00    -0.050 Br
BRANCH  30  32
ATOM     32  O   UNL     1      -7.243   5.470   0.067  0.00  0.00    -0.494 OA
ATOM     33  C   UNL     1      -8.528   6.094   0.076  0.00  0.00    +0.277 C 
ENDBRANCH  30  32
ENDBRANCH  22  25
ENDBRANCH  19  21
ENDBRANCH   1  19
TORSDOF 10
