REMARK  Name = ZINC20723467
REMARK  9 active torsions:
REMARK  status: ('A' for Active; 'I' for Inactive)
REMARK    1  A    between atoms: C_1  and  C_2
REMARK    2  A    between atoms: C_2  and  C_3
REMARK    3  A    between atoms: C_2  and  C_4
REMARK    4  A    between atoms: C_4  and  C_5
REMARK    5  A    between atoms: C_5  and  C_7
REMARK    6  A    between atoms: C_5  and  N_11
REMARK    7  A    between atoms: C_7  and  O_9
REMARK    8  A    between atoms: O_9  and  C_10
REMARK    9  A    between atoms: C_23  and  C_25
REMARK                            x       y       z     vdW  Elec       q    Type
REMARK                         _______ _______ _______ _____ _____    ______ ____
ROOT
ATOM      1  N   UNL     1       4.590   1.120  -0.233  0.00  0.00    -0.286 N 
ATOM      2  C   UNL     1       3.442   1.545  -0.795  0.00  0.00    +0.304 C 
ATOM      3  O   UNL     1       2.649   0.739  -1.243  0.00  0.00    -0.253 OA
ATOM      4  N   UNL     1       3.172   2.864  -0.862  0.00  0.00    -0.273 N 
ATOM      5  C   UNL     1       1.879   3.345  -1.372  0.00  0.00    +0.116 C 
ATOM      6  C   UNL     1       2.110   4.143  -2.661  0.00  0.00    +0.076 C 
ATOM      7  C   UNL     1       3.271   5.082  -2.451  0.00  0.00    +0.066 A 
ATOM      8  C   UNL     1       4.185   4.957  -1.464  0.00  0.00    +0.064 A 
ATOM      9  N   UNL     1       5.071   5.980  -1.602  0.00  0.00    -0.346 N 
ATOM     10  H   UNL     1       5.842   6.155  -1.041  0.00  0.00    +0.167 HD
ATOM     11  C   UNL     1       4.671   6.707  -2.671  0.00  0.00    +0.197 A 
ATOM     12  N   UNL     1       3.593   6.161  -3.171  0.00  0.00    -0.240 NA
ATOM     13  C   UNL     1       4.164   3.862  -0.421  0.00  0.00    +0.156 C 
ATOM     14  H   UNL     1       5.255   1.763   0.058  0.00  0.00    +0.151 HD
ENDROOT
BRANCH  13  15
ATOM     15  C   UNL     1       3.762   4.429   0.916  0.00  0.00    -0.021 A 
ATOM     16  C   UNL     1       2.596   5.164   1.032  0.00  0.00    +0.007 A 
ATOM     17  C   UNL     1       2.227   5.684   2.258  0.00  0.00    +0.020 A 
ATOM     18  C   UNL     1       3.023   5.470   3.369  0.00  0.00    +0.041 A 
ATOM     19  C   UNL     1       4.189   4.734   3.252  0.00  0.00    +0.020 A 
ATOM     20  C   UNL     1       4.555   4.210   2.027  0.00  0.00    +0.007 A 
ATOM     21 CL   UNL     1       2.560   6.123   4.909  0.00  0.00    -0.084 Cl
ENDBRANCH  13  15
BRANCH   1  22
ATOM     22  C   UNL     1       4.834  -0.315  -0.061  0.00  0.00    +0.183 C 
BRANCH  22  23
ATOM     23  C   UNL     1       4.200  -0.781   1.224  0.00  0.00    +0.327 C 
ATOM     24  O   UNL     1       3.606   0.003   1.925  0.00  0.00    -0.249 OA
BRANCH  23  25
ATOM     25  O   UNL     1       4.296  -2.069   1.591  0.00  0.00    -0.467 OA
ATOM     26  C   UNL     1       3.672  -2.442   2.821  0.00  0.00    +0.280 C 
ENDBRANCH  23  25
ENDBRANCH  22  23
BRANCH  22  27
ATOM     27  C   UNL     1       6.341  -0.573  -0.010  0.00  0.00    +0.036 C 
BRANCH  27  29
ATOM     28  C   UNL     1       8.496  -0.301  -1.245  0.00  0.00    +0.007 C 
ATOM     29  C   UNL     1       6.976  -0.153  -1.337  0.00  0.00    -0.015 C 
ATOM     30  C   UNL     1       6.444  -1.044  -2.461  0.00  0.00    +0.007 C 
ENDBRANCH  27  29
ENDBRANCH  22  27
ENDBRANCH   1  22
TORSDOF 6
