REMARK  Name = ZINC02052476
REMARK  7 active torsions:
REMARK  status: ('A' for Active; 'I' for Inactive)
REMARK    1  A    between atoms: C_1  and  O_2
REMARK    2  A    between atoms: O_2  and  C_3
REMARK    3  A    between atoms: C_8  and  C_9
REMARK    4  A    between atoms: N_11  and  C_12
REMARK    5  A    between atoms: C_12  and  N_14
REMARK    6  A    between atoms: N_14  and  C_15
REMARK    7  A    between atoms: C_16  and  C_23
REMARK                            x       y       z     vdW  Elec       q    Type
REMARK                         _______ _______ _______ _____ _____    ______ ____
ROOT
ATOM      1  C   UNL     1       3.541   5.995  -0.001  0.00  0.00    +0.141 C 
ATOM      2  S   UNL     1       5.041   5.170  -0.020  0.00  0.00    -0.018 S 
ENDROOT
BRANCH   1   5
ATOM      3  C   UNL     1       2.416   3.950  -0.000  0.00  0.00    +0.253 C 
ATOM      4  O   UNL     1       3.482   3.364  -0.014  0.00  0.00    -0.270 OA
ATOM      5  N   UNL     1       2.388   5.297   0.007  0.00  0.00    -0.263 N 
ATOM      6  H   UNL     1       1.538   5.764   0.018  0.00  0.00    +0.157 HD
BRANCH   3  12
ATOM      7  C   UNL     1       1.180   1.784   0.000  0.00  0.00    +0.132 A 
ATOM      8  C   UNL     1      -0.013   1.076   0.008  0.00  0.00    +0.048 A 
ATOM      9  C   UNL     1      -1.218   1.749   0.017  0.00  0.00    +0.023 A 
ATOM     10  C   UNL     1      -1.247   3.135   0.031  0.00  0.00    +0.042 A 
ATOM     11  C   UNL     1      -0.072   3.855   0.023  0.00  0.00    +0.036 A 
ATOM     12  C   UNL     1       1.155   3.186   0.008  0.00  0.00    +0.080 A 
ATOM     13 CL   UNL     1      -2.771   3.967   0.049  0.00  0.00    -0.084 Cl
BRANCH   7  15
ATOM     14  C   UNL     1       2.311  -0.304  -0.023  0.00  0.00    +0.277 C 
ATOM     15  O   UNL     1       2.365   1.124  -0.015  0.00  0.00    -0.494 OA
ENDBRANCH   7  15
ENDBRANCH   3  12
ENDBRANCH   1   5
BRANCH   1  16
ATOM     16  N   UNL     1       3.513   7.343   0.007  0.00  0.00    -0.291 N 
ATOM     17  H   UNL     1       2.663   7.810   0.018  0.00  0.00    +0.154 HD
BRANCH  16  18
ATOM     18  C   UNL     1       4.698   8.060  -0.001  0.00  0.00    +0.084 A 
ATOM     19  C   UNL     1       4.872   9.434  -0.001  0.00  0.00    +0.068 A 
ATOM     20  C   UNL     1       6.244   9.943  -0.008  0.00  0.00    -0.023 A 
ATOM     21  C   UNL     1       7.203   8.999  -0.022  0.00  0.00    -0.004 A 
ATOM     22  S   UNL     1       6.321   7.458  -0.021  0.00  0.00    -0.077 S 
ATOM     23  C   UNL     1       8.583   9.598  -0.030  0.00  0.00    +0.043 C 
ATOM     24  C   UNL     1       8.375  11.062   0.417  0.00  0.00    +0.010 C 
ATOM     25  C   UNL     1       6.916  11.316  -0.010  0.00  0.00    +0.037 C 
BRANCH  19  26
ATOM     26  C   UNL     1       3.724  10.345   0.009  0.00  0.00    +0.244 C 
ATOM     27  O   UNL     1       3.257  10.723   1.068  0.00  0.00    -0.270 OA
ATOM     28  N   UNL     1       3.187  10.765  -1.153  0.00  0.00    -0.325 N 
ATOM     29  H   UNL     1       3.559  10.464  -1.996  0.00  0.00    +0.145 HD
ATOM     30  H   UNL     1       2.427  11.368  -1.146  0.00  0.00    +0.145 HD
ENDBRANCH  19  26
ENDBRANCH  16  18
ENDBRANCH   1  16
TORSDOF 6
