REMARK  Name = ZINC02885334
REMARK  3 active torsions:
REMARK  status: ('A' for Active; 'I' for Inactive)
REMARK    1  A    between atoms: C_1  and  O_2
REMARK    2  A    between atoms: O_2  and  C_3
REMARK    3  A    between atoms: N_5  and  N_6
REMARK                            x       y       z     vdW  Elec       q    Type
REMARK                         _______ _______ _______ _____ _____    ______ ____
ROOT
ATOM      1  N   UNL     1      -1.773  -0.004   1.518  0.00  0.00    -0.215 N 
ATOM      2  C   UNL     1      -1.117  -0.677   0.553  0.00  0.00    +0.327 C 
ATOM      3  O   UNL     1      -1.006  -1.886   0.622  0.00  0.00    -0.250 OA
ATOM      4  N   UNL     1      -0.583  -0.011  -0.490  0.00  0.00    -0.221 N 
ATOM      5  C   UNL     1      -1.030   1.288  -0.770  0.00  0.00    +0.057 A 
ATOM      6  C   UNL     1      -2.368   1.615  -0.617  0.00  0.00    +0.025 A 
ATOM      7  C   UNL     1      -2.801   2.899  -0.892  0.00  0.00    +0.002 A 
ATOM      8  C   UNL     1      -1.910   3.861  -1.329  0.00  0.00    +0.001 A 
ATOM      9  C   UNL     1      -0.572   3.544  -1.490  0.00  0.00    +0.017 A 
ATOM     10  C   UNL     1      -0.132   2.263  -1.211  0.00  0.00    +0.035 A 
ATOM     11  S   UNL     1       1.568   1.830  -1.405  0.00  0.00    -0.086 S 
ATOM     12  C   UNL     1       1.479   0.103  -1.766  0.00  0.00    +0.035 A 
ATOM     13  C   UNL     1       0.405  -0.634  -1.264  0.00  0.00    +0.057 A 
ATOM     14  C   UNL     1       0.324  -1.990  -1.540  0.00  0.00    +0.025 A 
ATOM     15  C   UNL     1       1.301  -2.599  -2.307  0.00  0.00    +0.002 A 
ATOM     16  C   UNL     1       2.362  -1.865  -2.801  0.00  0.00    +0.001 A 
ATOM     17  C   UNL     1       2.454  -0.510  -2.531  0.00  0.00    +0.017 A 
ATOM     18  H   UNL     1      -2.242  -0.489   2.215  0.00  0.00    +0.175 HD
ENDROOT
BRANCH   1  21
ATOM     19  C   UNL     1      -2.562   2.070   2.381  0.00  0.00    +0.417 C 
ATOM     20  O   UNL     1      -2.566   3.285   2.379  0.00  0.00    -0.225 OA
ATOM     21  N   UNL     1      -1.778   1.397   1.515  0.00  0.00    -0.198 N 
ATOM     22  H   UNL     1      -1.218   1.883   0.890  0.00  0.00    +0.176 HD
BRANCH  19  24
ATOM     23  C   UNL     1      -4.157   2.186   4.153  0.00  0.00    +0.282 C 
ATOM     24  O   UNL     1      -3.339   1.396   3.249  0.00  0.00    -0.453 OA
ENDBRANCH  19  24
ENDBRANCH   1  21
TORSDOF 2
