REMARK  Name = ZINC39635865
REMARK  10 active torsions:
REMARK  status: ('A' for Active; 'I' for Inactive)
REMARK    1  A    between atoms: C_1  and  C_2
REMARK    2  A    between atoms: C_8  and  N_10
REMARK    3  A    between atoms: C_11  and  C_13
REMARK    4  A    between atoms: C_24  and  C_26
REMARK    5  A    between atoms: C_28  and  O_36
REMARK    6  A    between atoms: C_29  and  O_34
REMARK    7  A    between atoms: C_30  and  O_32
REMARK    8  A    between atoms: O_32  and  C_33
REMARK    9  A    between atoms: O_34  and  C_35
REMARK   10  A    between atoms: O_36  and  C_37
REMARK                            x       y       z     vdW  Elec       q    Type
REMARK                         _______ _______ _______ _____ _____    ______ ____
ROOT
ATOM      1  C   UNL     1       4.100   0.028   2.474  0.00  0.00    +0.100 C 
ATOM      2  C   UNL     1       5.187  -0.711   1.662  0.00  0.00    +0.121 C 
ATOM      3  N   UNL     1       6.421  -0.566   2.470  0.00  0.00    -0.296 N 
ATOM      4  C   UNL     1       5.964  -0.724   3.871  0.00  0.00    +0.115 C 
ATOM      5  C   UNL     1       4.613   0.017   3.923  0.00  0.00    -0.004 C 
ATOM      6  C   UNL     1       3.636  -0.732   4.824  0.00  0.00    -0.010 C 
ATOM      7  C   UNL     1       4.138  -0.680   6.270  0.00  0.00    -0.082 C 
ATOM      8  N   UNL     1       4.257   0.719   6.698  0.00  0.00    +0.379 N 
ATOM      9  C   UNL     1       5.267   1.408   5.886  0.00  0.00    -0.082 C 
ATOM     10  C   UNL     1       4.812   1.444   4.425  0.00  0.00    -0.010 C 
ATOM     11  C   UNL     1       7.675  -0.341   2.029  0.00  0.00    +0.247 C 
ATOM     12  O   UNL     1       7.875  -0.124   0.850  0.00  0.00    -0.270 OA
ATOM     13  H   UNL     1       3.366   1.180   6.587  0.00  0.00    -0.086 HD
ATOM     14  H   UNL     1       4.529   0.750   7.669  0.00  0.00    -0.086 HD
ENDROOT
BRANCH  11  15
ATOM     15  C   UNL     1       8.804  -0.359   2.979  0.00  0.00    +0.044 A 
ATOM     16  C   UNL     1       8.684  -1.032   4.197  0.00  0.00    +0.062 A 
ATOM     17  C   UNL     1       9.743  -1.048   5.085  0.00  0.00    +0.166 A 
ATOM     18  C   UNL     1      10.930  -0.393   4.766  0.00  0.00    +0.204 A 
ATOM     19  C   UNL     1      11.053   0.279   3.552  0.00  0.00    +0.166 A 
ATOM     20  C   UNL     1       9.998   0.292   2.659  0.00  0.00    +0.062 A 
BRANCH  19  21
ATOM     21  O   UNL     1      12.213   0.917   3.243  0.00  0.00    -0.491 OA
ATOM     22  C   UNL     1      12.269   1.586   1.982  0.00  0.00    +0.277 C 
ENDBRANCH  19  21
BRANCH  18  23
ATOM     23  O   UNL     1      11.970  -0.409   5.640  0.00  0.00    -0.488 OA
ATOM     24  C   UNL     1      12.907  -1.481   5.514  0.00  0.00    +0.277 C 
ENDBRANCH  18  23
BRANCH  17  25
ATOM     25  O   UNL     1       9.627  -1.702   6.271  0.00  0.00    -0.491 OA
ATOM     26  C   UNL     1       8.381  -2.352   6.534  0.00  0.00    +0.277 C 
ENDBRANCH  17  25
ENDBRANCH  11  15
BRANCH   1  28
ATOM     27  N   UNL     1       1.627  -0.020   2.471  0.00  0.00    -0.312 N 
ATOM     28  C   UNL     1       2.785  -0.702   2.377  0.00  0.00    +0.218 C 
ATOM     29  O   UNL     1       2.769  -1.904   2.215  0.00  0.00    -0.275 OA
ATOM     30  H   UNL     1       1.639   0.941   2.601  0.00  0.00    +0.149 HD
BRANCH  27  37
ATOM     31  C   UNL     1      -0.349   0.235   4.573  0.00  0.00    +0.009 C 
ATOM     32  C   UNL     1      -0.735   0.071   3.102  0.00  0.00    +0.006 C 
ATOM     33  C   UNL     1      -2.069  -0.670   3.004  0.00  0.00    +0.005 C 
ATOM     34  C   UNL     1      -2.455  -0.834   1.532  0.00  0.00    +0.000 C 
ATOM     35  C   UNL     1      -1.372  -1.635   0.807  0.00  0.00    +0.002 C 
ATOM     36  C   UNL     1      -0.037  -0.894   0.905  0.00  0.00    +0.022 C 
ATOM     37  C   UNL     1       0.348  -0.730   2.377  0.00  0.00    +0.076 C 
ENDBRANCH  27  37
ENDBRANCH   1  28
TORSDOF 6
