REMARK  Name = ZINC39856137
REMARK  11 active torsions:
REMARK  status: ('A' for Active; 'I' for Inactive)
REMARK    1  A    between atoms: C_1  and  C_2
REMARK    2  A    between atoms: C_6  and  C_7
REMARK    3  A    between atoms: N_9  and  C_10
REMARK    4  A    between atoms: C_11  and  C_19
REMARK    5  A    between atoms: C_19  and  O_21
REMARK    6  A    between atoms: O_21  and  C_22
REMARK    7  A    between atoms: C_24  and  C_32
REMARK    8  A    between atoms: C_24  and  C_33
REMARK    9  A    between atoms: N_27  and  N_28
REMARK   10  A    between atoms: N_28  and  C_29
REMARK   11  A    between atoms: C_29  and  N_31
REMARK                            x       y       z     vdW  Elec       q    Type
REMARK                         _______ _______ _______ _____ _____    ______ ____
ROOT
ATOM      1  C   UNL     1      -0.018   1.503   0.010  0.00  0.00    +0.048 C 
ATOM      2  C   UNL     1       0.002  -0.004   0.002  0.00  0.00    +0.009 A 
ATOM      3  C   UNL     1       0.008  -0.838  -1.122  0.00  0.00    +0.042 A 
ATOM      4  C   UNL     1       0.026  -2.137  -0.673  0.00  0.00    +0.116 A 
ATOM      5  O   UNL     1       0.034  -2.112   0.658  0.00  0.00    -0.454 OA
ATOM      6  C   UNL     1       0.024  -0.831   1.091  0.00  0.00    +0.193 A 
ATOM      7  C   UNL     1       0.033  -3.326  -1.600  0.00  0.00    +0.081 C 
ATOM      8  C   UNL     1      -0.492  -2.902  -2.974  0.00  0.00    -0.023 C 
ATOM      9  C   UNL     1       0.280  -1.685  -3.495  0.00  0.00    +0.064 C 
ATOM     10  C   UNL     1       0.001  -0.512  -2.566  0.00  0.00    +0.070 C 
ATOM     11  N   UNL     1      -0.226   0.687  -3.007  0.00  0.00    -0.185 NA
ATOM     12  C   UNL     1      -0.325  -4.063  -3.957  0.00  0.00    +0.011 C 
ATOM     13  C   UNL     1      -1.976  -2.548  -2.861  0.00  0.00    +0.011 C 
ENDROOT
BRANCH   6  14
ATOM     14  C   UNL     1       0.032  -0.400   2.493  0.00  0.00    +0.284 C 
ATOM     15  O   UNL     1       0.019   0.786   2.766  0.00  0.00    -0.266 OA
ATOM     16  N   UNL     1       0.055  -1.318   3.480  0.00  0.00    -0.273 N 
ATOM     17  H   UNL     1       0.065  -2.263   3.263  0.00  0.00    +0.156 HD
BRANCH  16  18
ATOM     18  C   UNL     1       0.062  -0.912   4.803  0.00  0.00    +0.087 A 
ATOM     19  C   UNL     1       0.090  -1.707   5.940  0.00  0.00    +0.091 A 
ATOM     20  C   UNL     1       0.093  -1.028   7.225  0.00  0.00    -0.021 A 
ATOM     21  C   UNL     1       0.067   0.319   7.138  0.00  0.00    -0.004 A 
ATOM     22  S   UNL     1       0.048   0.657   5.402  0.00  0.00    -0.077 S 
ATOM     23  C   UNL     1       0.061   1.294   8.275  0.00  0.00    +0.043 C 
ATOM     24  C   UNL     1      -0.292   0.532   9.561  0.00  0.00    +0.005 C 
ATOM     25  C   UNL     1       0.569  -0.732   9.640  0.00  0.00    +0.005 C 
ATOM     26  C   UNL     1       0.123  -1.733   8.573  0.00  0.00    +0.037 C 
BRANCH  19  27
ATOM     27  C   UNL     1       0.115  -3.168   5.849  0.00  0.00    +0.342 C 
ATOM     28  O   UNL     1       1.179  -3.756   5.799  0.00  0.00    -0.245 OA
BRANCH  27  29
ATOM     29  O   UNL     1      -1.041  -3.862   5.820  0.00  0.00    -0.464 OA
ATOM     30  C   UNL     1      -0.942  -5.285   5.730  0.00  0.00    +0.280 C 
ENDBRANCH  27  29
ENDBRANCH  19  27
ENDBRANCH  16  18
ENDBRANCH   6  14
BRANCH  11  31
ATOM     31  N   UNL     1      -0.221   0.938  -4.386  0.00  0.00    -0.218 N 
ATOM     32  H   UNL     1      -0.048   0.216  -5.010  0.00  0.00    +0.176 HD
BRANCH  31  33
ATOM     33  C   UNL     1      -0.457   2.183  -4.844  0.00  0.00    +0.147 C 
ATOM     34  S   UNL     1      -0.450   2.491  -6.529  0.00  0.00    -0.017 S 
BRANCH  33  35
ATOM     35  N   UNL     1      -0.697   3.187  -3.977  0.00  0.00    -0.339 N 
ATOM     36  H   UNL     1      -0.701   3.013  -3.023  0.00  0.00    +0.144 HD
ATOM     37  H   UNL     1      -0.867   4.083  -4.307  0.00  0.00    +0.144 HD
ENDBRANCH  33  35
ENDBRANCH  31  33
ENDBRANCH  11  31
TORSDOF 7
