REMARK  Name = ZINC00850120
REMARK  9 active torsions:
REMARK  status: ('A' for Active; 'I' for Inactive)
REMARK    1  A    between atoms: C_1  and  C_2
REMARK    2  A    between atoms: C_2  and  O_3
REMARK    3  A    between atoms: O_3  and  C_4
REMARK    4  A    between atoms: C_7  and  C_13
REMARK    5  A    between atoms: C_9  and  O_10
REMARK    6  A    between atoms: O_10  and  C_11
REMARK    7  A    between atoms: C_11  and  C_12
REMARK    8  A    between atoms: C_26  and  N_30
REMARK    9  A    between atoms: C_27  and  C_28
REMARK                            x       y       z     vdW  Elec       q    Type
REMARK                         _______ _______ _______ _____ _____    ______ ____
ROOT
ATOM      1  C   UNL     1      -4.959   3.898   0.077  0.00  0.00    +0.098 C 
ATOM      2  C   UNL     1      -3.636   3.177   0.057  0.00  0.00    +0.008 A 
ATOM      3  C   UNL     1      -3.628   1.781   0.045  0.00  0.00    +0.009 A 
ATOM      4  C   UNL     1      -2.463   1.079   0.029  0.00  0.00    +0.009 A 
ATOM      5  C   UNL     1      -1.237   1.766   0.018  0.00  0.00    -0.014 A 
ATOM      6  C   UNL     1      -0.013   1.076   0.008  0.00  0.00    +0.008 A 
ATOM      7  C   UNL     1       1.155   1.776   0.001  0.00  0.00    +0.001 A 
ATOM      8  C   UNL     1       1.155   3.170   0.008  0.00  0.00    +0.001 A 
ATOM      9  C   UNL     1      -0.013   3.871   0.024  0.00  0.00    +0.012 A 
ATOM     10  C   UNL     1      -1.236   3.182   0.032  0.00  0.00    +0.025 A 
ATOM     11  C   UNL     1      -2.465   3.878   0.051  0.00  0.00    +0.142 A 
ATOM     12  O   UNL     1      -2.458   5.232   0.063  0.00  0.00    -0.440 OA
ATOM     13  C   UNL     1      -3.553   5.914  -0.313  0.00  0.00    +0.199 C 
ATOM     14  C   UNL     1      -4.777   5.333  -0.328  0.00  0.00    +0.098 C 
ENDROOT
BRANCH   1  18
ATOM     15  C   UNL     1      -6.593   3.741   4.026  0.00  0.00    +0.162 A 
ATOM     16  C   UNL     1      -5.363   4.341   3.805  0.00  0.00    +0.050 A 
ATOM     17  C   UNL     1      -4.835   4.385   2.528  0.00  0.00    +0.008 A 
ATOM     18  C   UNL     1      -5.537   3.842   1.468  0.00  0.00    -0.031 A 
ATOM     19  C   UNL     1      -6.764   3.242   1.681  0.00  0.00    +0.054 A 
ATOM     20  C   UNL     1      -7.296   3.190   2.960  0.00  0.00    +0.162 A 
BRANCH  15  21
ATOM     21  O   UNL     1      -7.111   3.692   5.283  0.00  0.00    -0.489 OA
BRANCH  21  23
ATOM     22  C   UNL     1      -7.072   4.127   7.660  0.00  0.00    +0.048 C 
ATOM     23  C   UNL     1      -6.333   4.278   6.329  0.00  0.00    +0.226 C 
ENDBRANCH  21  23
ENDBRANCH  15  21
BRANCH  20  24
ATOM     24  O   UNL     1      -8.503   2.600   3.171  0.00  0.00    -0.489 OA
BRANCH  24  25
ATOM     25  C   UNL     1      -9.168   2.055   2.030  0.00  0.00    +0.226 C 
ATOM     26  C   UNL     1     -10.500   1.439   2.462  0.00  0.00    +0.048 C 
ENDBRANCH  24  25
ENDBRANCH  20  24
ENDBRANCH   1  18
BRANCH  13  27
ATOM     27  N   UNL     1      -3.429   7.228  -0.691  0.00  0.00    -0.328 N 
ATOM     28  H   UNL     1      -4.213   7.730  -0.964  0.00  0.00    +0.145 HD
ATOM     29  H   UNL     1      -2.558   7.654  -0.684  0.00  0.00    +0.145 HD
ENDBRANCH  13  27
BRANCH  14  30
ATOM     30  C   UNL     1      -5.916   6.100  -0.736  0.00  0.00    +0.101 C 
ATOM     31  N   UNL     1      -6.819   6.708  -1.060  0.00  0.00    -0.191 NA
ENDBRANCH  14  30
TORSDOF 7
