REMARK  Name = ZINC21711109
REMARK  8 active torsions:
REMARK  status: ('A' for Active; 'I' for Inactive)
REMARK    1  A    between atoms: C_4  and  C_7
REMARK    2  A    between atoms: C_7  and  N_8
REMARK    3  A    between atoms: C_9  and  N_35
REMARK    4  A    between atoms: C_10  and  N_17
REMARK    5  A    between atoms: N_17  and  C_18
REMARK    6  A    between atoms: C_18  and  C_19
REMARK    7  A    between atoms: C_19  and  C_20
REMARK    8  A    between atoms: C_26  and  C_28
REMARK                            x       y       z     vdW  Elec       q    Type
REMARK                         _______ _______ _______ _____ _____    ______ ____
ROOT
ATOM      1  N   UNL     1       1.611   4.163  -0.984  0.00  0.00    -0.276 N 
ATOM      2  C   UNL     1       0.410   3.541  -0.738  0.00  0.00    +0.128 A 
ATOM      3  C   UNL     1      -0.316   3.896   0.381  0.00  0.00    +0.140 A 
ATOM      4  C   UNL     1       0.204   4.878   1.245  0.00  0.00    +0.277 A 
ATOM      5  O   UNL     1      -0.414   5.207   2.244  0.00  0.00    -0.266 OA
ATOM      6  N   UNL     1       1.389   5.452   0.961  0.00  0.00    -0.273 N 
ATOM      7  H   UNL     1       1.803   6.221   1.631  0.00  0.00    +0.173 HD
ATOM      8  C   UNL     1       2.080   5.098  -0.137  0.00  0.00    +0.331 A 
ATOM      9  O   UNL     1       3.147   5.633  -0.369  0.00  0.00    -0.246 OA
ENDROOT
BRANCH   3  10
ATOM     10  N   UNL     1      -1.554   3.281   0.657  0.00  0.00    -0.260 N 
ATOM     11  C   UNL     1      -1.612   1.953   0.882  0.00  0.00    +0.251 C 
ATOM     12  O   UNL     1      -2.689   1.405   1.016  0.00  0.00    -0.270 OA
BRANCH  11  13
ATOM     13  C   UNL     1      -0.363   1.162   0.968  0.00  0.00    +0.042 A 
ATOM     14  C   UNL     1      -0.371  -0.220   0.751  0.00  0.00    +0.033 A 
ATOM     15  C   UNL     1       0.817  -0.919   0.834  0.00  0.00    +0.113 A 
ATOM     16  N   UNL     1       1.948  -0.302   1.114  0.00  0.00    -0.244 NA
ATOM     17  C   UNL     1       2.001   0.999   1.325  0.00  0.00    +0.130 A 
ATOM     18  C   UNL     1       0.858   1.776   1.261  0.00  0.00    +0.053 A 
ATOM     19 CL   UNL     1       3.525   1.746   1.688  0.00  0.00    -0.062 Cl
ENDBRANCH  11  13
BRANCH  10  20
ATOM     20  C   UNL     1      -2.778   4.084   0.700  0.00  0.00    +0.118 C 
BRANCH  20  21
ATOM     21  C   UNL     1      -3.099   4.449   2.150  0.00  0.00    +0.050 C 
BRANCH  21  22
ATOM     22  C   UNL     1      -4.425   5.164   2.207  0.00  0.00    -0.072 C 
ATOM     23  C   UNL     1      -5.482   4.462   2.462  0.00  0.00    -0.028 C 
ATOM     24  C   UNL     1      -6.869   5.030   2.541  0.00  0.00    +0.027 C 
ATOM     25  C   UNL     1      -6.808   6.550   2.706  0.00  0.00    +0.004 C 
ATOM     26  C   UNL     1      -5.856   7.115   1.643  0.00  0.00    +0.005 C 
ATOM     27  C   UNL     1      -4.436   6.646   1.971  0.00  0.00    +0.030 C 
ENDBRANCH  21  22
ENDBRANCH  20  21
ENDBRANCH  10  20
ENDBRANCH   3  10
BRANCH   2  28
ATOM     28  N   UNL     1      -0.066   2.582  -1.600  0.00  0.00    -0.343 N 
ATOM     29  H   UNL     1      -1.028   2.089  -1.397  0.00  0.00    +0.144 HD
ATOM     30  H   UNL     1       0.516   2.308  -2.493  0.00  0.00    +0.144 HD
ENDBRANCH   2  28
BRANCH   1  31
ATOM     31  C   UNL     1       2.389   3.801  -2.171  0.00  0.00    +0.163 C 
BRANCH  31  35
ATOM     32  C   UNL     1       4.861   0.433  -1.283  0.00  0.00    +0.000 A 
ATOM     33  C   UNL     1       3.638   0.249  -1.900  0.00  0.00    +0.000 A 
ATOM     34  C   UNL     1       2.838   1.339  -2.188  0.00  0.00    +0.005 A 
ATOM     35  C   UNL     1       3.261   2.613  -1.858  0.00  0.00    -0.028 A 
ATOM     36  C   UNL     1       4.487   2.797  -1.245  0.00  0.00    +0.005 A 
ATOM     37  C   UNL     1       5.284   1.707  -0.953  0.00  0.00    +0.000 A 
ENDBRANCH  31  35
ENDBRANCH   1  31
TORSDOF 8
