REMARK  Name = ZINC09116322
REMARK  10 active torsions:
REMARK  status: ('A' for Active; 'I' for Inactive)
REMARK    1  A    between atoms: C_1  and  N_59
REMARK    2  A    between atoms: C_2  and  N_59
REMARK    3  A    between atoms: C_3  and  C_5
REMARK    4  A    between atoms: C_3  and  C_31
REMARK    5  A    between atoms: C_3  and  N_59
REMARK    6  A    between atoms: C_5  and  N_6
REMARK    7  A    between atoms: C_7  and  C_9
REMARK    8  A    between atoms: C_14  and  N_15
REMARK    9  A    between atoms: N_15  and  S_16
REMARK   10  A    between atoms: S_16  and  C_19
REMARK                            x       y       z     vdW  Elec       q    Type
REMARK                         _______ _______ _______ _____ _____    ______ ____
ROOT
ATOM      1  C   UNL     1       2.914   2.963  -3.973  0.00  0.00    +0.059 A 
ATOM      2  C   UNL     1       2.021   3.592  -4.845  0.00  0.00    +0.015 A 
ATOM      3  C   UNL     1       1.264   4.655  -4.404  0.00  0.00    +0.001 A 
ATOM      4  C   UNL     1       1.383   5.107  -3.099  0.00  0.00    +0.002 A 
ATOM      5  C   UNL     1       2.257   4.494  -2.225  0.00  0.00    +0.025 A 
ATOM      6  C   UNL     1       3.032   3.423  -2.652  0.00  0.00    +0.060 A 
ENDROOT
BRANCH   1   8
ATOM      7  N   UNL     1       3.609   1.386  -5.707  0.00  0.00    -0.313 N 
ATOM      8  C   UNL     1       3.726   1.824  -4.438  0.00  0.00    +0.246 C 
ATOM      9  O   UNL     1       4.502   1.279  -3.676  0.00  0.00    -0.270 OA
ATOM     10  H   UNL     1       2.990   1.821  -6.315  0.00  0.00    +0.149 HD
BRANCH   7  11
ATOM     11  C   UNL     1       4.416   0.254  -6.169  0.00  0.00    +0.094 C 
BRANCH  11  12
ATOM     12  C   UNL     1       4.177   0.034  -7.664  0.00  0.00    -0.021 C 
BRANCH  12  13
ATOM     13  C   UNL     1       2.736  -0.344  -7.892  0.00  0.00    -0.059 A 
ATOM     14  C   UNL     1       2.319  -1.644  -7.674  0.00  0.00    +0.002 A 
ATOM     15  C   UNL     1       0.996  -1.989  -7.879  0.00  0.00    +0.000 A 
ATOM     16  C   UNL     1       0.092  -1.036  -8.311  0.00  0.00    +0.000 A 
ATOM     17  C   UNL     1       0.510   0.262  -8.533  0.00  0.00    +0.000 A 
ATOM     18  C   UNL     1       1.832   0.609  -8.324  0.00  0.00    +0.002 A 
ENDBRANCH  12  13
BRANCH  12  21
ATOM     19  C   UNL     1       4.896  -1.241  -9.593  0.00  0.00    -0.096 C 
ATOM     20  C   UNL     1       6.451  -0.788  -7.794  0.00  0.00    -0.096 C 
ATOM     21  N   UNL     1       5.040  -1.071  -8.132  0.00  0.00    +0.382 N 
ATOM     22  H   UNL     1       4.753  -1.940  -7.665  0.00  0.00    -0.082 HD
ENDBRANCH  12  21
ENDBRANCH  11  12
ENDBRANCH   7  11
ENDBRANCH   1   8
BRANCH   6  23
ATOM     23  N   UNL     1       3.916   2.807  -1.776  0.00  0.00    -0.216 N 
ATOM     24  H   UNL     1       4.766   2.470  -2.100  0.00  0.00    +0.174 HD
BRANCH  23  25
ATOM     25  S   UNL     1       3.518   2.647  -0.176  0.00  0.00    +0.072 S 
ATOM     26  O   UNL     1       3.196   3.949   0.294  0.00  0.00    -0.150 OA
ATOM     27  O   UNL     1       4.536   1.853   0.418  0.00  0.00    -0.150 OA
BRANCH  25  28
ATOM     28  C   UNL     1       2.033   1.702  -0.100  0.00  0.00    +0.111 A 
ATOM     29  C   UNL     1       0.806   2.342  -0.131  0.00  0.00    +0.031 A 
ATOM     30  C   UNL     1      -0.363   1.610  -0.071  0.00  0.00    +0.030 A 
ATOM     31  C   UNL     1      -0.308   0.227   0.019  0.00  0.00    +0.067 A 
ATOM     32  C   UNL     1       0.929  -0.419   0.049  0.00  0.00    +0.069 A 
ATOM     33  C   UNL     1       2.098   0.325  -0.011  0.00  0.00    +0.056 A 
ATOM     34  N   UNL     1       0.669  -1.784   0.141  0.00  0.00    -0.306 N 
ATOM     35  H   UNL     1       1.335  -2.487   0.180  0.00  0.00    +0.170 HD
ATOM     36  C   UNL     1      -0.666  -1.960   0.165  0.00  0.00    +0.325 A 
ATOM     37  O   UNL     1      -1.230  -3.036   0.241  0.00  0.00    -0.247 OA
ATOM     38  N   UNL     1      -1.282  -0.765   0.093  0.00  0.00    -0.306 N 
ATOM     39  H   UNL     1      -2.241  -0.620   0.093  0.00  0.00    +0.170 HD
ENDBRANCH  25  28
ENDBRANCH  23  25
ENDBRANCH   6  23
TORSDOF 8
