REMARK  Name = ZINC21249984
REMARK  11 active torsions:
REMARK  status: ('A' for Active; 'I' for Inactive)
REMARK    1  A    between atoms: C_1  and  C_2
REMARK    2  A    between atoms: C_2  and  C_3
REMARK    3  A    between atoms: C_2  and  O_4
REMARK    4  A    between atoms: O_4  and  C_5
REMARK    5  A    between atoms: C_8  and  C_13
REMARK    6  A    between atoms: C_10  and  O_11
REMARK    7  A    between atoms: O_11  and  C_12
REMARK    8  A    between atoms: C_18  and  C_23
REMARK    9  A    between atoms: C_26  and  N_29
REMARK   10  A    between atoms: N_29  and  C_30
REMARK   11  A    between atoms: N_29  and  C_31
REMARK                            x       y       z     vdW  Elec       q    Type
REMARK                         _______ _______ _______ _____ _____    ______ ____
ROOT
ATOM      1  C   UNL     1       0.701   5.618  -0.587  0.00  0.00    +0.136 C 
ATOM      2  C   UNL     1       1.022   6.033   0.828  0.00  0.00    +0.036 C 
ATOM      3  C   UNL     1       2.216   5.917   1.433  0.00  0.00    +0.017 C 
ATOM      4  C   UNL     1       2.406   6.389   2.864  0.00  0.00    +0.059 C 
ATOM      5  C   UNL     1       1.109   6.210   3.650  0.00  0.00    +0.032 C 
ATOM      6  C   UNL     1       0.022   7.037   2.953  0.00  0.00    +0.088 C 
ATOM      7  C   UNL     1      -0.079   6.584   1.527  0.00  0.00    +0.163 C 
ATOM      8  O   UNL     1      -1.144   6.695   0.951  0.00  0.00    -0.292 OA
ATOM      9  N   UNL     1       3.330   5.406   0.849  0.00  0.00    -0.316 N 
ATOM     10  C   UNL     1       3.373   4.231   0.107  0.00  0.00    +0.052 A 
ATOM     11  C   UNL     1       4.139   3.144   0.490  0.00  0.00    +0.025 A 
ATOM     12  C   UNL     1       4.231   2.049  -0.353  0.00  0.00    +0.002 A 
ATOM     13  C   UNL     1       3.563   2.043  -1.564  0.00  0.00    +0.002 A 
ATOM     14  C   UNL     1       2.779   3.121  -1.937  0.00  0.00    +0.025 A 
ATOM     15  C   UNL     1       2.671   4.210  -1.088  0.00  0.00    +0.049 A 
ATOM     16  N   UNL     1       1.857   5.298  -1.398  0.00  0.00    -0.331 N 
ATOM     17  H   UNL     1       4.292   5.931   0.945  0.00  0.00    +0.152 HD
ATOM     18  H   UNL     1       2.103   5.917  -2.273  0.00  0.00    +0.147 HD
ENDROOT
BRANCH   1  22
ATOM     19  C   UNL     1      -1.840   2.181  -0.450  0.00  0.00    +0.162 A 
ATOM     20  C   UNL     1      -0.549   2.112   0.048  0.00  0.00    +0.050 A 
ATOM     21  C   UNL     1       0.271   3.224   0.001  0.00  0.00    +0.009 A 
ATOM     22  C   UNL     1      -0.197   4.409  -0.538  0.00  0.00    -0.019 A 
ATOM     23  C   UNL     1      -1.486   4.486  -1.031  0.00  0.00    +0.055 A 
ATOM     24  C   UNL     1      -2.312   3.375  -0.987  0.00  0.00    +0.162 A 
BRANCH  24  25
ATOM     25  O   UNL     1      -3.581   3.449  -1.472  0.00  0.00    -0.491 OA
ATOM     26  C   UNL     1      -3.995   4.705  -2.014  0.00  0.00    +0.277 C 
ENDBRANCH  24  25
BRANCH  19  27
ATOM     27  O   UNL     1      -2.646   1.086  -0.409  0.00  0.00    -0.486 OA
BRANCH  27  29
ATOM     28  C   UNL     1      -2.203  -0.221   1.575  0.00  0.00    +0.051 C 
ATOM     29  C   UNL     1      -2.061  -0.133   0.054  0.00  0.00    +0.167 C 
ATOM     30  C   UNL     1      -2.776  -1.320  -0.595  0.00  0.00    +0.051 C 
ENDBRANCH  27  29
ENDBRANCH  19  27
ENDBRANCH   1  22
BRANCH   5  31
ATOM     31  C   UNL     1       1.296   6.700   5.063  0.00  0.00    -0.043 A 
ATOM     32  C   UNL     1       1.648   8.017   5.295  0.00  0.00    +0.006 A 
ATOM     33  C   UNL     1       1.815   8.471   6.589  0.00  0.00    +0.023 A 
ATOM     34  C   UNL     1       1.639   7.601   7.657  0.00  0.00    +0.029 A 
ATOM     35  C   UNL     1       1.290   6.277   7.420  0.00  0.00    +0.023 A 
ATOM     36  C   UNL     1       1.119   5.831   6.124  0.00  0.00    +0.006 A 
BRANCH  34  37
ATOM     37  N   UNL     1       1.811   8.055   8.966  0.00  0.00    -0.336 N 
ATOM     38  C   UNL     1       1.739   7.112  10.085  0.00  0.00    +0.129 C 
ATOM     39  C   UNL     1       2.065   9.476   9.221  0.00  0.00    +0.129 C 
ENDBRANCH  34  37
ENDBRANCH   5  31
TORSDOF 6
