REMARK  Name = ZINC10985147
REMARK  8 active torsions:
REMARK  status: ('A' for Active; 'I' for Inactive)
REMARK    1  A    between atoms: C_1  and  C_2
REMARK    2  A    between atoms: C_9  and  C_14
REMARK    3  A    between atoms: C_14  and  O_16
REMARK    4  A    between atoms: O_16  and  C_17
REMARK    5  A    between atoms: C_17  and  C_18
REMARK    6  A    between atoms: N_20  and  C_21
REMARK    7  A    between atoms: C_21  and  C_22
REMARK    8  A    between atoms: N_24  and  C_25
REMARK                            x       y       z     vdW  Elec       q    Type
REMARK                         _______ _______ _______ _____ _____    ______ ____
ROOT
ATOM      1  C   UNL     1       5.496   9.022  -1.400  0.00  0.00    +0.251 C 
ATOM      2  O   UNL     1       4.530   9.631  -0.991  0.00  0.00    -0.272 OA
ATOM      3  N   UNL     1       6.598   9.691  -1.791  0.00  0.00    -0.304 N 
ATOM      4  H   UNL     1       7.371   9.204  -2.119  0.00  0.00    +0.149 HD
ENDROOT
BRANCH   1   5
ATOM      5  C   UNL     1       5.463   7.517  -1.471  0.00  0.00    +0.328 C 
BRANCH   5   6
ATOM      6  O   UNL     1       4.176   7.038  -0.998  0.00  0.00    -0.452 OA
BRANCH   6   7
ATOM      7  C   UNL     1       3.982   5.705  -0.997  0.00  0.00    +0.340 C 
ATOM      8  O   UNL     1       4.864   4.962  -1.381  0.00  0.00    -0.245 OA
BRANCH   7  16
ATOM      9  C   UNL     1      -1.780   2.258  -1.528  0.00  0.00    +0.029 C 
ATOM     10  C   UNL     1      -1.382   1.906  -0.094  0.00  0.00    +0.134 C 
ATOM     11  C   UNL     1      -0.047   1.212  -0.097  0.00  0.00    +0.230 C 
ATOM     12  O   UNL     1      -0.032  -0.001  -0.108  0.00  0.00    -0.274 OA
ATOM     13  N   UNL     1       1.118   1.854  -0.094  0.00  0.00    -0.284 N 
ATOM     14  C   UNL     1       1.298   3.235  -0.091  0.00  0.00    +0.048 A 
ATOM     15  C   UNL     1       2.501   3.764  -0.529  0.00  0.00    +0.039 A 
ATOM     16  C   UNL     1       2.700   5.147  -0.530  0.00  0.00    +0.061 A 
ATOM     17  C   UNL     1       1.686   6.003  -0.089  0.00  0.00    +0.016 A 
ATOM     18  C   UNL     1       0.490   5.478   0.346  0.00  0.00    +0.017 A 
ATOM     19  C   UNL     1       0.291   4.104   0.346  0.00  0.00    +0.030 A 
ATOM     20  S   UNL     1      -1.244   3.428   0.898  0.00  0.00    -0.111 S 
ATOM     21  H   UNL     1       1.919   1.308  -0.093  0.00  0.00    +0.155 HD
ENDBRANCH   7  16
ENDBRANCH   6   7
ENDBRANCH   5   6
ENDBRANCH   1   5
BRANCH   3  22
ATOM     22  C   UNL     1       6.631  11.154  -1.722  0.00  0.00    +0.200 C 
BRANCH  22  23
ATOM     23  C   UNL     1       7.966  11.651  -2.213  0.00  0.00    +0.234 C 
ATOM     24  O   UNL     1       8.808  10.861  -2.584  0.00  0.00    -0.274 OA
ATOM     25  N   UNL     1       8.225  12.973  -2.240  0.00  0.00    -0.282 N 
ATOM     26  H   UNL     1       7.530  13.608  -2.005  0.00  0.00    +0.155 HD
BRANCH  25  27
ATOM     27  C   UNL     1       9.497  13.431  -2.607  0.00  0.00    +0.072 A 
ATOM     28  C   UNL     1      10.229  12.750  -3.570  0.00  0.00    +0.029 A 
ATOM     29  C   UNL     1      11.482  13.204  -3.935  0.00  0.00    +0.043 A 
ATOM     30  C   UNL     1      12.013  14.333  -3.336  0.00  0.00    +0.161 A 
ATOM     31  C   UNL     1      11.288  15.014  -2.370  0.00  0.00    +0.195 A 
ATOM     32  C   UNL     1      10.030  14.564  -2.005  0.00  0.00    +0.182 A 
ATOM     33  F   UNL     1       9.322  15.227  -1.064  0.00  0.00    -0.200 F 
ATOM     34  F   UNL     1      11.808  16.115  -1.785  0.00  0.00    -0.199 F 
ATOM     35  F   UNL     1      13.241  14.772  -3.692  0.00  0.00    -0.202 F 
ENDBRANCH  25  27
ENDBRANCH  22  23
ENDBRANCH   3  22
TORSDOF 7
