REMARK  Name = ZINC02149891
REMARK  7 active torsions:
REMARK  status: ('A' for Active; 'I' for Inactive)
REMARK    1  A    between atoms: C_1  and  C_2
REMARK    2  A    between atoms: C_2  and  C_3
REMARK    3  A    between atoms: C_3  and  C_4
REMARK    4  A    between atoms: C_4  and  C_5
REMARK    5  A    between atoms: C_5  and  N_6
REMARK    6  A    between atoms: C_26  and  C_28
REMARK    7  A    between atoms: C_32  and  N_34
REMARK                            x       y       z     vdW  Elec       q    Type
REMARK                         _______ _______ _______ _____ _____    ______ ____
ROOT
ATOM      1  N   UNL     1       2.284   1.498   0.897  0.00  0.00    -0.291 N 
ATOM      2  C   UNL     1       1.034   2.237   0.841  0.00  0.00    +0.203 C 
ATOM      3  C   UNL     1      -0.129   1.351   0.532  0.00  0.00    +0.234 C 
ATOM      4  O   UNL     1      -1.229   1.859   0.480  0.00  0.00    -0.274 OA
ATOM      5  N   UNL     1      -0.039   0.039   0.306  0.00  0.00    -0.276 N 
ATOM      6  C   UNL     1       1.235  -0.677   0.255  0.00  0.00    +0.167 C 
ATOM      7  C   UNL     1       2.386   0.195   0.640  0.00  0.00    +0.237 C 
ATOM      8  O   UNL     1       3.483  -0.316   0.723  0.00  0.00    -0.274 OA
ATOM      9  C   UNL     1       1.452  -1.220  -1.165  0.00  0.00    +0.069 C 
ATOM     10  C   UNL     1       0.172  -1.857  -1.643  0.00  0.00    -0.015 A 
ATOM     11  C   UNL     1      -0.015  -2.779  -2.744  0.00  0.00    +0.003 A 
ATOM     12  C   UNL     1       0.871  -3.352  -3.662  0.00  0.00    +0.010 A 
ATOM     13  C   UNL     1       0.334  -4.203  -4.596  0.00  0.00    +0.001 A 
ATOM     14  C   UNL     1      -1.021  -4.489  -4.637  0.00  0.00    +0.002 A 
ATOM     15  C   UNL     1      -1.920  -3.937  -3.741  0.00  0.00    +0.026 A 
ATOM     16  C   UNL     1      -1.403  -3.069  -2.781  0.00  0.00    +0.047 A 
ATOM     17  N   UNL     1      -1.992  -2.367  -1.770  0.00  0.00    -0.356 N 
ATOM     18  H   UNL     1      -2.939  -2.377  -1.561  0.00  0.00    +0.166 HD
ATOM     19  C   UNL     1      -1.044  -1.646  -1.094  0.00  0.00    +0.046 A 
ATOM     20  C   UNL     1      -1.277  -0.739   0.093  0.00  0.00    +0.154 C 
ENDROOT
BRANCH  20  21
ATOM     21  C   UNL     1      -2.426   0.194  -0.192  0.00  0.00    -0.019 A 
ATOM     22  C   UNL     1      -2.451   0.919  -1.369  0.00  0.00    +0.006 A 
ATOM     23  C   UNL     1      -3.505   1.776  -1.630  0.00  0.00    +0.003 A 
ATOM     24  C   UNL     1      -4.533   1.906  -0.715  0.00  0.00    +0.033 A 
ATOM     25  C   UNL     1      -4.508   1.180   0.461  0.00  0.00    +0.127 A 
ATOM     26  C   UNL     1      -3.456   0.321   0.720  0.00  0.00    +0.038 A 
BRANCH  25  27
ATOM     27  N   UNL     1      -5.608   1.321   1.441  0.00  0.00    +0.056 N 
ATOM     28  O   UNL     1      -6.536   2.076   1.211  0.00  0.00    -0.126 OA
ATOM     29  O   UNL     1      -5.586   0.681   2.477  0.00  0.00    -0.126 OA
ENDBRANCH  25  27
ENDBRANCH  20  21
BRANCH   1  30
ATOM     30  C   UNL     1       3.502   2.228   1.257  0.00  0.00    +0.108 C 
BRANCH  30  31
ATOM     31  C   UNL     1       4.162   2.775  -0.010  0.00  0.00    +0.019 C 
BRANCH  31  32
ATOM     32  C   UNL     1       5.434   3.538   0.366  0.00  0.00    +0.001 C 
BRANCH  32  34
ATOM     33  C   UNL     1       7.366   4.848  -0.525  0.00  0.00    +0.004 C 
ATOM     34  C   UNL     1       6.094   4.085  -0.901  0.00  0.00    -0.003 C 
ENDBRANCH  32  34
ENDBRANCH  31  32
ENDBRANCH  30  31
ENDBRANCH   1  30
TORSDOF 6
