REMARK  Name = ZINC64986535
REMARK  4 active torsions:
REMARK  status: ('A' for Active; 'I' for Inactive)
REMARK    1  A    between atoms: C_12  and  S_24
REMARK    2  A    between atoms: C_13  and  N_17
REMARK    3  A    between atoms: N_17  and  C_18
REMARK    4  A    between atoms: S_24  and  N_27
REMARK                            x       y       z     vdW  Elec       q    Type
REMARK                         _______ _______ _______ _____ _____    ______ ____
ROOT
ATOM      1  C   UNL     1      -1.370   0.414   0.850  0.00  0.00    +0.002 A 
ATOM      2  C   UNL     1      -0.306   1.244   0.552  0.00  0.00    +0.004 A 
ATOM      3  C   UNL     1       0.948   0.707   0.329  0.00  0.00    +0.048 A 
ATOM      4  C   UNL     1       1.142  -0.666   0.397  0.00  0.00    +0.150 A 
ATOM      5  C   UNL     1       0.070  -1.504   0.675  0.00  0.00    +0.076 A 
ATOM      6  C   UNL     1      -1.185  -0.954   0.914  0.00  0.00    +0.027 A 
ATOM      7  N   UNL     1       0.211  -2.890   0.688  0.00  0.00    -0.278 N 
ATOM      8  C   UNL     1       1.240  -3.569   1.174  0.00  0.00    +0.252 C 
ATOM      9  O   UNL     1       1.189  -4.783   1.120  0.00  0.00    -0.270 OA
ATOM     10  C   UNL     1       2.436  -2.968   1.773  0.00  0.00    +0.081 A 
ATOM     11  C   UNL     1       3.032  -3.569   2.888  0.00  0.00    +0.047 A 
ATOM     12  C   UNL     1       4.164  -3.036   3.433  0.00  0.00    +0.127 A 
ATOM     13  C   UNL     1       4.738  -1.891   2.884  0.00  0.00    +0.058 A 
ATOM     14  C   UNL     1       4.152  -1.275   1.785  0.00  0.00    +0.072 A 
ATOM     15  C   UNL     1       2.994  -1.799   1.236  0.00  0.00    +0.142 A 
ATOM     16  O   UNL     1       2.391  -1.162   0.206  0.00  0.00    -0.453 OA
ATOM     17  H   UNL     1      -0.514  -3.408   0.303  0.00  0.00    +0.155 HD
ENDROOT
BRANCH  12  18
ATOM     18  S   UNL     1       4.903  -3.799   4.840  0.00  0.00    +0.063 S 
ATOM     19  O   UNL     1       4.122  -4.949   5.135  0.00  0.00    -0.153 OA
ATOM     20  O   UNL     1       6.297  -3.871   4.577  0.00  0.00    -0.153 OA
BRANCH  18  21
ATOM     21  N   UNL     1       4.715  -2.759   6.115  0.00  0.00    -0.177 NA
ATOM     22  C   UNL     1       5.799  -1.847   6.503  0.00  0.00    +0.109 C 
ATOM     23  C   UNL     1       5.250  -0.418   6.546  0.00  0.00    +0.017 C 
ATOM     24  C   UNL     1       4.029  -0.372   7.468  0.00  0.00    +0.003 C 
ATOM     25  C   UNL     1       2.937  -1.293   6.918  0.00  0.00    +0.017 C 
ATOM     26  C   UNL     1       3.459  -2.728   6.877  0.00  0.00    +0.109 C 
ENDBRANCH  18  21
ENDBRANCH  12  18
BRANCH  13  27
ATOM     27  N   UNL     1       5.900  -1.364   3.437  0.00  0.00    -0.339 N 
ATOM     28  H   UNL     1       6.342  -1.825   4.167  0.00  0.00    +0.146 HD
BRANCH  27  29
ATOM     29  C   UNL     1       6.457  -0.113   2.916  0.00  0.00    +0.070 C 
ATOM     30  C   UNL     1       7.344  -0.414   1.706  0.00  0.00    +0.022 C 
ATOM     31  C   UNL     1       7.926   0.892   1.162  0.00  0.00    +0.002 C 
ATOM     32  C   UNL     1       8.760   1.571   2.250  0.00  0.00    +0.000 C 
ATOM     33  C   UNL     1       7.873   1.872   3.460  0.00  0.00    +0.002 C 
ATOM     34  C   UNL     1       7.291   0.566   4.004  0.00  0.00    +0.022 C 
ENDBRANCH  27  29
ENDBRANCH  13  27
TORSDOF 4
