REMARK  Name = ZINC20521992
REMARK  9 active torsions:
REMARK  status: ('A' for Active; 'I' for Inactive)
REMARK    1  A    between atoms: C_4  and  C_7
REMARK    2  A    between atoms: C_7  and  C_8
REMARK    3  A    between atoms: C_8  and  C_9
REMARK    4  A    between atoms: N_11  and  C_12
REMARK    5  A    between atoms: C_12  and  C_13
REMARK    6  A    between atoms: C_12  and  C_17
REMARK    7  A    between atoms: C_12  and  N_21
REMARK    8  A    between atoms: N_21  and  C_22
REMARK    9  A    between atoms: C_23  and  C_32
REMARK                            x       y       z     vdW  Elec       q    Type
REMARK                         _______ _______ _______ _____ _____    ______ ____
ROOT
ATOM      1  C   UNL     1       1.065   3.722   0.061  0.00  0.00    +0.293 C 
ENDROOT
BRANCH   1   4
ATOM      2  C   UNL     1       1.946   1.498   0.522  0.00  0.00    +0.215 C 
ATOM      3  O   UNL     1       2.695   1.994   1.337  0.00  0.00    -0.276 OA
ATOM      4  N   UNL     1       1.126   2.283  -0.205  0.00  0.00    -0.280 N 
ATOM      5  H   UNL     1       0.503   1.843  -0.998  0.00  0.00    +0.151 HD
BRANCH   2   6
ATOM      6  C   UNL     1       1.929   0.004   0.325  0.00  0.00    +0.100 C 
BRANCH   6   7
ATOM      7  C   UNL     1       2.946  -0.646   1.265  0.00  0.00    +0.044 C 
BRANCH   7  11
ATOM      8  C   UNL     1       2.897  -4.881   0.707  0.00  0.00    +0.000 A 
ATOM      9  C   UNL     1       3.749  -4.094  -0.046  0.00  0.00    +0.000 A 
ATOM     10  C   UNL     1       3.765  -2.724   0.135  0.00  0.00    +0.003 A 
ATOM     11  C   UNL     1       2.929  -2.140   1.068  0.00  0.00    -0.047 A 
ATOM     12  C   UNL     1       2.081  -2.927   1.825  0.00  0.00    +0.003 A 
ATOM     13  C   UNL     1       2.061  -4.297   1.641  0.00  0.00    +0.000 A 
ENDBRANCH   7  11
ENDBRANCH   6   7
ENDBRANCH   2   6
ENDBRANCH   1   4
BRANCH   1  14
ATOM     14  C   UNL     1       0.320   4.420  -1.079  0.00  0.00    +0.436 C 
ATOM     15  F   UNL     1      -1.013   3.997  -1.093  0.00  0.00    -0.166 F 
ATOM     16  F   UNL     1       0.368   5.805  -0.888  0.00  0.00    -0.166 F 
ATOM     17  F   UNL     1       0.925   4.096  -2.298  0.00  0.00    -0.166 F 
ENDBRANCH   1  14
BRANCH   1  18
ATOM     18  C   UNL     1       0.325   3.966   1.378  0.00  0.00    +0.436 C 
ATOM     19  F   UNL     1       0.953   3.253   2.405  0.00  0.00    -0.166 F 
ATOM     20  F   UNL     1       0.346   5.332   1.679  0.00  0.00    -0.166 F 
ATOM     21  F   UNL     1      -1.001   3.537   1.255  0.00  0.00    -0.166 F 
ENDBRANCH   1  18
BRANCH   1  22
ATOM     22  N   UNL     1       2.424   4.260   0.158  0.00  0.00    -0.303 N 
ATOM     23  H   UNL     1       2.680   4.966   0.962  0.00  0.00    +0.149 HD
BRANCH  22  24
ATOM     24  C   UNL     1       3.385   3.880  -0.762  0.00  0.00    +0.086 A 
ATOM     25  C   UNL     1       4.722   4.246  -0.813  0.00  0.00    +0.083 A 
ATOM     26  C   UNL     1       5.534   3.696  -1.891  0.00  0.00    -0.018 A 
ATOM     27  C   UNL     1       4.872   2.888  -2.746  0.00  0.00    -0.004 A 
ATOM     28  S   UNL     1       3.210   2.837  -2.134  0.00  0.00    -0.077 S 
ATOM     29  C   UNL     1       5.416   2.196  -3.957  0.00  0.00    +0.043 C 
ATOM     30  C   UNL     1       6.723   1.481  -3.589  0.00  0.00    +0.005 C 
ATOM     31  C   UNL     1       7.880   2.452  -3.804  0.00  0.00    +0.001 C 
ATOM     32  C   UNL     1       7.432   3.880  -3.502  0.00  0.00    +0.005 C 
ATOM     33  C   UNL     1       7.017   4.010  -2.040  0.00  0.00    +0.037 C 
BRANCH  25  34
ATOM     34  C   UNL     1       5.285   5.131   0.162  0.00  0.00    +0.102 C 
ATOM     35  N   UNL     1       5.732   5.832   0.935  0.00  0.00    -0.191 NA
ENDBRANCH  25  34
ENDBRANCH  22  24
ENDBRANCH   1  22
TORSDOF 9
