REMARK  Name = ZINC01352643
REMARK  7 active torsions:
REMARK  status: ('A' for Active; 'I' for Inactive)
REMARK    1  A    between atoms: C_4  and  C_7
REMARK    2  A    between atoms: C_7  and  C_8
REMARK    3  A    between atoms: C_8  and  N_9
REMARK    4  A    between atoms: C_10  and  C_14
REMARK    5  A    between atoms: C_14  and  C_16
REMARK    6  A    between atoms: C_14  and  N_55
REMARK    7  A    between atoms: C_25  and  C_28
REMARK                            x       y       z     vdW  Elec       q    Type
REMARK                         _______ _______ _______ _____ _____    ______ ____
ROOT
ATOM      1  C   UNL     1       6.912   0.038  -1.381  0.00  0.00    +0.035 C 
ENDROOT
BRANCH   1   2
ATOM      2  C   UNL     1       7.250   0.359   0.052  0.00  0.00    -0.035 A 
ATOM      3  C   UNL     1       8.569   0.527   0.430  0.00  0.00    +0.004 A 
ATOM      4  C   UNL     1       8.879   0.821   1.745  0.00  0.00    +0.000 A 
ATOM      5  C   UNL     1       7.871   0.949   2.682  0.00  0.00    +0.001 A 
ATOM      6  C   UNL     1       6.552   0.781   2.305  0.00  0.00    +0.020 A 
ATOM      7  C   UNL     1       6.240   0.491   0.988  0.00  0.00    +0.043 A 
ATOM      8 CL   UNL     1       4.583   0.288   0.512  0.00  0.00    -0.083 Cl
ENDBRANCH   1   2
BRANCH   1  14
ATOM      9  C   UNL     1       8.078   2.054  -2.043  0.00  0.00    -0.077 C 
ATOM     10  C   UNL     1       9.248   2.587  -2.872  0.00  0.00    -0.006 C 
ATOM     11  C   UNL     1       8.988   2.303  -4.354  0.00  0.00    +0.071 C 
ATOM     12  C   UNL     1       8.797   0.796  -4.551  0.00  0.00    -0.006 C 
ATOM     13  C   UNL     1       7.640   0.315  -3.673  0.00  0.00    -0.077 C 
ATOM     14  N   UNL     1       7.963   0.595  -2.258  0.00  0.00    +0.389 N 
ATOM     15  H   UNL     1       8.860   0.153  -2.027  0.00  0.00    -0.080 HD
BRANCH  11  16
ATOM     16  C   UNL     1      10.164   2.772  -5.172  0.00  0.00    +0.213 C 
ATOM     17  O   UNL     1      10.788   1.981  -5.847  0.00  0.00    -0.276 OA
ATOM     18  N   UNL     1      10.521   4.072  -5.154  0.00  0.00    -0.329 N 
ATOM     19  H   UNL     1      10.022   4.705  -4.614  0.00  0.00    +0.145 HD
ATOM     20  H   UNL     1      11.278   4.374  -5.680  0.00  0.00    +0.145 HD
ENDBRANCH  11  16
ENDBRANCH   1  14
BRANCH   1  22
ATOM     21  N   UNL     1       5.924  -2.160  -2.216  0.00  0.00    -0.230 N 
ATOM     22  C   UNL     1       6.868  -1.458  -1.563  0.00  0.00    +0.142 A 
ATOM     23  N   UNL     1       7.741  -2.327  -1.115  0.00  0.00    -0.115 NA
ATOM     24  N   UNL     1       7.357  -3.501  -1.480  0.00  0.00    -0.023 NA
ATOM     25  N   UNL     1       6.259  -3.404  -2.146  0.00  0.00    -0.044 NA
BRANCH  21  26
ATOM     26  C   UNL     1       4.740  -1.614  -2.885  0.00  0.00    +0.152 C 
BRANCH  26  27
ATOM     27  C   UNL     1       3.531  -1.726  -1.955  0.00  0.00    +0.058 C 
BRANCH  27  31
ATOM     28  C   UNL     1       0.012  -0.495  -4.040  0.00  0.00    +0.000 A 
ATOM     29  C   UNL     1       0.707   0.412  -3.261  0.00  0.00    +0.000 A 
ATOM     30  C   UNL     1       1.845   0.013  -2.587  0.00  0.00    +0.004 A 
ATOM     31  C   UNL     1       2.289  -1.292  -2.690  0.00  0.00    -0.046 A 
ATOM     32  C   UNL     1       1.595  -2.198  -3.469  0.00  0.00    +0.004 A 
ATOM     33  C   UNL     1       0.456  -1.800  -4.144  0.00  0.00    +0.000 A 
ENDBRANCH  27  31
ENDBRANCH  26  27
ENDBRANCH  21  26
ENDBRANCH   1  22
TORSDOF 7
