REMARK  Name = ZINC03654112
REMARK  8 active torsions:
REMARK  status: ('A' for Active; 'I' for Inactive)
REMARK    1  A    between atoms: C_1  and  C_2
REMARK    2  A    between atoms: C_2  and  C_3
REMARK    3  A    between atoms: C_2  and  C_4
REMARK    4  A    between atoms: C_7  and  S_10
REMARK    5  A    between atoms: S_10  and  N_13
REMARK    6  A    between atoms: N_13  and  C_14
REMARK    7  A    between atoms: C_28  and  O_30
REMARK    8  A    between atoms: O_30  and  C_31
REMARK                            x       y       z     vdW  Elec       q    Type
REMARK                         _______ _______ _______ _____ _____    ______ ____
ROOT
ATOM      1  N   UNL     1      -1.333   5.981   0.054  0.00  0.00    -0.104 N 
ATOM      2  C   UNL     1      -1.880   6.402  -1.103  0.00  0.00    +0.432 C 
ATOM      3  O   UNL     1      -1.294   6.224  -2.153  0.00  0.00    -0.224 OA
ENDROOT
BRANCH   1   4
ATOM      4  C   UNL     1      -0.090   5.341   0.048  0.00  0.00    +0.072 A 
ATOM      5  C   UNL     1       1.067   6.071   0.066  0.00  0.00    +0.045 A 
ATOM      6  C   UNL     1       2.299   5.439   0.059  0.00  0.00    +0.064 A 
ATOM      7  C   UNL     1       2.447   4.056   0.034  0.00  0.00    +0.154 A 
ATOM      8  C   UNL     1       1.248   3.288   0.015  0.00  0.00    +0.027 A 
ATOM      9  C   UNL     1      -0.010   3.930   0.022  0.00  0.00    +0.009 A 
ATOM     10  C   UNL     1      -1.179   3.150   0.002  0.00  0.00    +0.010 A 
ATOM     11  C   UNL     1      -1.083   1.792  -0.028  0.00  0.00    +0.001 A 
ATOM     12  C   UNL     1       0.159   1.160  -0.030  0.00  0.00    +0.001 A 
ATOM     13  C   UNL     1       1.311   1.885  -0.011  0.00  0.00    +0.012 A 
ATOM     14  O   UNL     1       3.719   3.610   0.032  0.00  0.00    -0.416 OA
ATOM     15  C   UNL     1       4.758   4.461   0.052  0.00  0.00    +0.379 A 
ATOM     16  O   UNL     1       5.947   4.208   0.052  0.00  0.00    -0.237 OA
ATOM     17  S   UNL     1       3.981   6.013   0.077  0.00  0.00    -0.004 S 
ENDBRANCH   1   4
BRANCH   1  18
ATOM     18  S   UNL     1      -2.133   6.222   1.484  0.00  0.00    +0.084 S 
ATOM     19  O   UNL     1      -3.511   6.348   1.162  0.00  0.00    -0.149 OA
ATOM     20  O   UNL     1      -1.649   5.241   2.391  0.00  0.00    -0.149 OA
BRANCH  18  24
ATOM     21  C   UNL     1      -0.808  10.239   3.097  0.00  0.00    -0.045 A 
ATOM     22  C   UNL     1      -1.905  10.158   2.260  0.00  0.00    +0.006 A 
ATOM     23  C   UNL     1      -2.310   8.931   1.768  0.00  0.00    +0.029 A 
ATOM     24  C   UNL     1      -1.617   7.786   2.112  0.00  0.00    +0.109 A 
ATOM     25  C   UNL     1      -0.523   7.867   2.953  0.00  0.00    +0.029 A 
ATOM     26  C   UNL     1      -0.116   9.094   3.442  0.00  0.00    +0.006 A 
BRANCH  21  28
ATOM     27  C   UNL     1      -0.423  11.557   5.162  0.00  0.00    +0.012 C 
ATOM     28  C   UNL     1      -0.367  11.577   3.633  0.00  0.00    +0.013 C 
ATOM     29  C   UNL     1       1.067  11.860   3.179  0.00  0.00    +0.012 C 
ENDBRANCH  21  28
ENDBRANCH  18  24
ENDBRANCH   1  18
BRANCH   2  30
ATOM     30  O   UNL     1      -3.078   7.018  -1.097  0.00  0.00    -0.410 OA
BRANCH  30  31
ATOM     31  C   UNL     1      -3.526   7.508  -2.284  0.00  0.00    +0.133 A 
ATOM     32  C   UNL     1      -3.456   8.868  -2.545  0.00  0.00    +0.046 A 
ATOM     33  C   UNL     1      -3.908   9.362  -3.753  0.00  0.00    +0.004 A 
ATOM     34  C   UNL     1      -4.439   8.504  -4.698  0.00  0.00    +0.000 A 
ATOM     35  C   UNL     1      -4.515   7.148  -4.437  0.00  0.00    +0.004 A 
ATOM     36  C   UNL     1      -4.059   6.648  -3.233  0.00  0.00    +0.046 A 
ENDBRANCH  30  31
ENDBRANCH   2  30
TORSDOF 6
