REMARK  Name = ZINC20877928
REMARK  6 active torsions:
REMARK  status: ('A' for Active; 'I' for Inactive)
REMARK    1  A    between atoms: C_3  and  O_16
REMARK    2  A    between atoms: C_4  and  C_8
REMARK    3  A    between atoms: C_8  and  N_9
REMARK    4  A    between atoms: N_9  and  N_10
REMARK    5  A    between atoms: O_16  and  C_17
REMARK    6  A    between atoms: C_17  and  C_18
REMARK                            x       y       z     vdW  Elec       q    Type
REMARK                         _______ _______ _______ _____ _____    ______ ____
ROOT
ATOM      1  C   UNL     1      -1.218   1.751   0.017  0.00  0.00    +0.019 A 
ATOM      2  C   UNL     1      -0.013   1.076   0.008  0.00  0.00    +0.047 A 
ATOM      3  C   UNL     1       1.179   1.786   0.000  0.00  0.00    +0.126 A 
ATOM      4  C   UNL     1       1.157   3.173   0.008  0.00  0.00    +0.014 A 
ATOM      5  C   UNL     1      -0.050   3.844   0.022  0.00  0.00    +0.024 A 
ATOM      6  C   UNL     1      -1.237   3.134   0.029  0.00  0.00    +0.018 A 
ATOM      7 BR   UNL     1      -2.889   4.055   0.048  0.00  0.00    -0.050 Br
ENDROOT
BRANCH   4   8
ATOM      8  C   UNL     1       2.450   3.948  -0.000  0.00  0.00    +0.161 C 
BRANCH   8   9
ATOM      9  N   UNL     1       2.982   4.000  -1.369  0.00  0.00    -0.260 N 
ATOM     10  H   UNL     1       2.436   3.512  -2.190  0.00  0.00    +0.168 HD
BRANCH   9  11
ATOM     11  N   UNL     1       4.156   4.696  -1.411  0.00  0.00    -0.129 N 
ATOM     12  C   UNL     1       4.924   4.945  -2.497  0.00  0.00    +0.251 A 
ATOM     13  N   UNL     1       5.958   5.646  -2.087  0.00  0.00    -0.091 NA
ATOM     14  N   UNL     1       5.889   5.851  -0.821  0.00  0.00    -0.020 NA
ATOM     15  N   UNL     1       4.822   5.313  -0.338  0.00  0.00    -0.024 NA
ATOM     16  N   UNL     1       4.669   4.539  -3.795  0.00  0.00    -0.325 N 
ATOM     17  H   UNL     1       5.369   4.802  -4.602  0.00  0.00    +0.145 HD
ATOM     18  H   UNL     1       3.765   3.954  -4.021  0.00  0.00    +0.145 HD
ENDBRANCH   9  11
ENDBRANCH   8   9
ENDBRANCH   4   8
BRANCH   3  19
ATOM     19  O   UNL     1       2.366   1.124  -0.015  0.00  0.00    -0.482 OA
BRANCH  19  20
ATOM     20  C   UNL     1       2.312  -0.304  -0.022  0.00  0.00    +0.324 C 
BRANCH  20  21
ATOM     21  C   UNL     1       3.713  -0.859  -0.038  0.00  0.00    +0.248 C 
ATOM     22  O   UNL     1       4.664  -0.106  -0.043  0.00  0.00    -0.272 OA
ATOM     23  N   UNL     1       3.909  -2.193  -0.047  0.00  0.00    -0.327 N 
ATOM     24  H   UNL     1       4.932  -2.598  -0.059  0.00  0.00    +0.145 HD
ATOM     25  H   UNL     1       3.047  -2.876  -0.043  0.00  0.00    +0.145 HD
ENDBRANCH  20  21
ENDBRANCH  19  20
ENDBRANCH   3  19
TORSDOF 6
