REMARK  Name = ZINC09706023
REMARK  8 active torsions:
REMARK  status: ('A' for Active; 'I' for Inactive)
REMARK    1  A    between atoms: C_1  and  C_2
REMARK    2  A    between atoms: C_5  and  N_8
REMARK    3  A    between atoms: C_9  and  C_11
REMARK    4  A    between atoms: C_12  and  N_20
REMARK    5  A    between atoms: C_21  and  C_23
REMARK    6  A    between atoms: N_25  and  C_26
REMARK    7  A    between atoms: C_26  and  C_27
REMARK    8  A    between atoms: C_27  and  C_28
REMARK                            x       y       z     vdW  Elec       q    Type
REMARK                         _______ _______ _______ _____ _____    ______ ____
ROOT
ATOM      1  C   UNL     1      -2.527  -0.149   0.508  0.00  0.00    +0.212 A 
ATOM      2  C   UNL     1      -2.379   1.154   0.118  0.00  0.00    +0.093 A 
ATOM      3  C   UNL     1      -3.736   1.652  -0.142  0.00  0.00    +0.042 A 
ATOM      4  C   UNL     1      -4.256   2.875  -0.569  0.00  0.00    +0.013 A 
ATOM      5  C   UNL     1      -5.606   3.019  -0.726  0.00  0.00    +0.001 A 
ATOM      6  C   UNL     1      -6.461   1.957  -0.469  0.00  0.00    +0.004 A 
ATOM      7  C   UNL     1      -5.966   0.740  -0.051  0.00  0.00    +0.047 A 
ATOM      8  C   UNL     1      -4.596   0.571   0.115  0.00  0.00    +0.138 A 
ATOM      9  O   UNL     1      -3.839  -0.476   0.501  0.00  0.00    -0.448 OA
ENDROOT
BRANCH   1  11
ATOM     10  N   UNL     1      -1.692  -2.344   1.147  0.00  0.00    -0.279 N 
ATOM     11  C   UNL     1      -1.436  -1.048   0.877  0.00  0.00    +0.285 C 
ATOM     12  O   UNL     1      -0.295  -0.627   0.940  0.00  0.00    -0.266 OA
ATOM     13  H   UNL     1      -2.607  -2.664   1.163  0.00  0.00    +0.155 HD
BRANCH  10  18
ATOM     14  C   UNL     1       2.583  -5.925   2.183  0.00  0.00    +0.044 C 
ATOM     15  C   UNL     1       1.447  -4.973   1.908  0.00  0.00    -0.050 A 
ATOM     16  C   UNL     1       1.529  -3.660   2.333  0.00  0.00    +0.005 A 
ATOM     17  C   UNL     1       0.490  -2.786   2.082  0.00  0.00    +0.023 A 
ATOM     18  C   UNL     1      -0.638  -3.227   1.402  0.00  0.00    +0.034 A 
ATOM     19  C   UNL     1      -0.719  -4.548   0.981  0.00  0.00    +0.023 A 
ATOM     20  C   UNL     1       0.326  -5.415   1.230  0.00  0.00    +0.005 A 
ENDBRANCH  10  18
ENDBRANCH   1  11
BRANCH   2  21
ATOM     21  N   UNL     1      -1.191   1.862  -0.002  0.00  0.00    -0.274 N 
ATOM     22  C   UNL     1      -1.156   3.175   0.298  0.00  0.00    +0.303 C 
ATOM     23  O   UNL     1      -2.181   3.762   0.578  0.00  0.00    -0.265 OA
ATOM     24  H   UNL     1      -0.386   1.411  -0.302  0.00  0.00    +0.155 HD
BRANCH  22  25
ATOM     25  C   UNL     1       0.146   3.908   0.291  0.00  0.00    +0.299 C 
ATOM     26  O   UNL     1       1.171   3.322   0.011  0.00  0.00    -0.265 OA
ATOM     27  N   UNL     1       0.182   5.220   0.597  0.00  0.00    -0.307 N 
ATOM     28  H   UNL     1      -0.637   5.689   0.821  0.00  0.00    +0.149 HD
BRANCH  27  29
ATOM     29  C   UNL     1       1.458   5.939   0.590  0.00  0.00    +0.109 C 
BRANCH  29  30
ATOM     30  C   UNL     1       1.222   7.402   0.969  0.00  0.00    +0.049 C 
BRANCH  30  31
ATOM     31  C   UNL     1       2.535   8.142   0.963  0.00  0.00    -0.072 C 
ATOM     32  C   UNL     1       2.865   8.783  -0.112  0.00  0.00    -0.028 C 
ATOM     33  C   UNL     1       4.142   9.555  -0.272  0.00  0.00    +0.027 C 
ATOM     34  C   UNL     1       4.766   9.830   1.098  0.00  0.00    +0.004 C 
ATOM     35  C   UNL     1       4.813   8.513   1.883  0.00  0.00    +0.005 C 
ATOM     36  C   UNL     1       3.376   8.094   2.205  0.00  0.00    +0.030 C 
ENDBRANCH  30  31
ENDBRANCH  29  30
ENDBRANCH  27  29
ENDBRANCH  22  25
ENDBRANCH   2  21
TORSDOF 7
