REMARK  Name = ZINC38670202
REMARK  8 active torsions:
REMARK  status: ('A' for Active; 'I' for Inactive)
REMARK    1  A    between atoms: C_1  and  N_2
REMARK    2  A    between atoms: C_10  and  C_12
REMARK    3  A    between atoms: C_12  and  C_14
REMARK    4  A    between atoms: C_12  and  N_29
REMARK    5  A    between atoms: C_14  and  N_15
REMARK    6  A    between atoms: C_16  and  C_18
REMARK    7  A    between atoms: N_29  and  C_30
REMARK    8  A    between atoms: N_29  and  C_31
REMARK                            x       y       z     vdW  Elec       q    Type
REMARK                         _______ _______ _______ _____ _____    ______ ____
ROOT
ATOM      1  C   UNL     1       4.767  -2.810  -0.698  0.00  0.00    -0.021 C 
ENDROOT
BRANCH   1  11
ATOM      2  C   UNL     1       0.361   1.627   1.167  0.00  0.00    +0.129 C 
ATOM      3  N   UNL     1       0.199   0.249   0.697  0.00  0.00    -0.333 N 
ATOM      4  C   UNL     1      -1.139  -0.346   0.576  0.00  0.00    +0.105 C 
ATOM      5  C   UNL     1      -1.078  -1.760   1.169  0.00  0.00    +0.024 C 
ATOM      6  C   UNL     1      -0.112  -2.603   0.336  0.00  0.00    +0.038 C 
ATOM      7  C   UNL     1       1.206  -1.892   0.177  0.00  0.00    -0.026 A 
ATOM      8  C   UNL     1       1.315  -0.520   0.350  0.00  0.00    +0.033 A 
ATOM      9  C   UNL     1       2.545   0.108   0.185  0.00  0.00    +0.023 A 
ATOM     10  C   UNL     1       3.659  -0.633  -0.154  0.00  0.00    +0.004 A 
ATOM     11  C   UNL     1       3.551  -2.001  -0.329  0.00  0.00    -0.059 A 
ATOM     12  C   UNL     1       2.329  -2.630  -0.157  0.00  0.00    +0.007 A 
ENDBRANCH   1  11
BRANCH   1  13
ATOM     13  N   UNL     1       5.573  -2.066  -1.675  0.00  0.00    +0.382 N 
ATOM     14  C   UNL     1       6.813  -2.804  -1.950  0.00  0.00    -0.096 C 
ATOM     15  C   UNL     1       4.810  -1.907  -2.920  0.00  0.00    -0.096 C 
ATOM     16  H   UNL     1       5.799  -1.156  -1.301  0.00  0.00    -0.082 HD
ENDBRANCH   1  13
BRANCH   1  17
ATOM     17  C   UNL     1       5.602  -3.075   0.556  0.00  0.00    +0.094 C 
BRANCH  17  18
ATOM     18  N   UNL     1       4.829  -3.892   1.495  0.00  0.00    -0.310 N 
ATOM     19  C   UNL     1       5.388  -4.303   2.650  0.00  0.00    +0.279 C 
ATOM     20  O   UNL     1       6.534  -3.997   2.913  0.00  0.00    -0.267 OA
ATOM     21  H   UNL     1       3.914  -4.136   1.285  0.00  0.00    +0.149 HD
BRANCH  19  22
ATOM     22  C   UNL     1       4.605  -5.129   3.599  0.00  0.00    +0.193 A 
ATOM     23  C   UNL     1       5.193  -5.522   4.755  0.00  0.00    +0.103 A 
ATOM     24  C   UNL     1       4.413  -6.357   5.685  0.00  0.00    +0.193 A 
ATOM     25  O   UNL     1       4.779  -6.564   6.829  0.00  0.00    -0.287 OA
ATOM     26  C   UNL     1       3.162  -6.928   5.149  0.00  0.00    +0.064 A 
ATOM     27  C   UNL     1       2.468  -7.929   5.826  0.00  0.00    +0.015 A 
ATOM     28  C   UNL     1       1.315  -8.434   5.289  0.00  0.00    +0.001 A 
ATOM     29  C   UNL     1       0.837  -7.956   4.077  0.00  0.00    +0.004 A 
ATOM     30  C   UNL     1       1.509  -6.964   3.395  0.00  0.00    +0.047 A 
ATOM     31  C   UNL     1       2.682  -6.433   3.923  0.00  0.00    +0.139 A 
ATOM     32  O   UNL     1       3.344  -5.450   3.281  0.00  0.00    -0.450 OA
ENDBRANCH  19  22
ENDBRANCH  17  18
ENDBRANCH   1  17
TORSDOF 5
