REMARK  Name = ZINC43227081
REMARK  5 active torsions:
REMARK  status: ('A' for Active; 'I' for Inactive)
REMARK    1  A    between atoms: C_1  and  C_2
REMARK    2  A    between atoms: C_2  and  C_4
REMARK    3  A    between atoms: C_2  and  N_14
REMARK    4  A    between atoms: C_15  and  C_17
REMARK    5  A    between atoms: C_20  and  C_22
REMARK                            x       y       z     vdW  Elec       q    Type
REMARK                         _______ _______ _______ _____ _____    ______ ____
ROOT
ATOM      1  N   UNL     1       0.688  -0.476  -1.203  0.00  0.00    -0.307 N 
ATOM      2  C   UNL     1       0.006  -0.608  -2.358  0.00  0.00    +0.263 C 
ATOM      3  O   UNL     1      -1.178  -0.335  -2.400  0.00  0.00    -0.269 OA
ATOM      4  H   UNL     1       1.632  -0.695  -1.170  0.00  0.00    +0.149 HD
ENDROOT
BRANCH   2   5
ATOM      5  C   UNL     1       0.696  -1.083  -3.570  0.00  0.00    +0.133 A 
ATOM      6  C   UNL     1       0.044  -1.226  -4.766  0.00  0.00    +0.079 A 
ATOM      7  S   UNL     1       1.264  -1.781  -5.779  0.00  0.00    -0.081 S 
ATOM      8  C   UNL     1       2.534  -1.814  -4.681  0.00  0.00    +0.065 A 
ATOM      9  N   UNL     1       1.996  -1.395  -3.569  0.00  0.00    -0.241 NA
BRANCH   8  10
ATOM     10  C   UNL     1       3.963  -2.225  -4.925  0.00  0.00    -0.015 C 
ATOM     11  C   UNL     1       4.691  -1.136  -5.742  0.00  0.00    -0.011 C 
ATOM     12  C   UNL     1       5.591  -1.960  -6.699  0.00  0.00    -0.020 C 
ATOM     13  C   UNL     1       4.692  -3.185  -6.998  0.00  0.00    -0.082 C 
ATOM     14  N   UNL     1       3.999  -3.467  -5.719  0.00  0.00    +0.385 N 
ATOM     15  H   UNL     1       4.498  -4.181  -5.210  0.00  0.00    -0.085 HD
ATOM     16  H   UNL     1       3.057  -3.780  -5.903  0.00  0.00    -0.085 HD
ENDBRANCH   8  10
ENDBRANCH   2   5
BRANCH   1  18
ATOM     17  C   UNL     1      -0.019   1.526   0.010  0.00  0.00    +0.028 C 
ATOM     18  C   UNL     1       0.002  -0.004   0.002  0.00  0.00    +0.076 C 
BRANCH  18  19
ATOM     19  C   UNL     1       0.742  -0.511   1.242  0.00  0.00    -0.010 C 
ATOM     20  C   UNL     1       0.763  -2.041   1.233  0.00  0.00    +0.012 C 
ATOM     21  C   UNL     1       1.503  -2.548   2.473  0.00  0.00    -0.010 C 
ATOM     22  C   UNL     1       0.787  -2.054   3.732  0.00  0.00    +0.007 C 
ATOM     23  C   UNL     1       0.766  -0.524   3.740  0.00  0.00    -0.010 C 
ATOM     24  C   UNL     1       0.026  -0.018   2.500  0.00  0.00    +0.012 C 
ATOM     25  C   UNL     1       2.201   0.005   3.729  0.00  0.00    +0.007 C 
ATOM     26  C   UNL     1       2.917  -0.488   2.470  0.00  0.00    -0.010 C 
ATOM     27  C   UNL     1       2.938  -2.018   2.462  0.00  0.00    +0.007 C 
ATOM     28  C   UNL     1       2.178   0.019   1.231  0.00  0.00    +0.012 C 
ENDBRANCH  18  19
ENDBRANCH   1  18
TORSDOF 4
