REMARK  Name = ZINC02650045
REMARK  12 active torsions:
REMARK  status: ('A' for Active; 'I' for Inactive)
REMARK    1  A    between atoms: C_1  and  C_2
REMARK    2  A    between atoms: C_2  and  C_3
REMARK    3  A    between atoms: C_3  and  C_4
REMARK    4  A    between atoms: C_4  and  C_31
REMARK    5  A    between atoms: N_7  and  C_11
REMARK    6  A    between atoms: C_11  and  C_12
REMARK    7  A    between atoms: N_14  and  C_15
REMARK    8  A    between atoms: C_16  and  C_26
REMARK    9  A    between atoms: C_21  and  C_25
REMARK   10  A    between atoms: C_26  and  O_28
REMARK   11  A    between atoms: O_28  and  C_29
REMARK   12  A    between atoms: C_29  and  C_30
REMARK                            x       y       z     vdW  Elec       q    Type
REMARK                         _______ _______ _______ _____ _____    ______ ____
ROOT
ATOM      1  C   UNL     1      -1.555  -4.490  -0.541  0.00  0.00    +0.236 C 
ATOM      2  O   UNL     1      -0.436  -4.797  -0.186  0.00  0.00    -0.274 OA
ATOM      3  N   UNL     1      -1.898  -3.190  -0.638  0.00  0.00    -0.278 N 
ATOM      4  H   UNL     1      -2.793  -2.945  -0.922  0.00  0.00    +0.155 HD
ENDROOT
BRANCH   3   5
ATOM      5  C   UNL     1      -0.974  -2.204  -0.332  0.00  0.00    +0.086 A 
ATOM      6  C   UNL     1      -1.137  -0.826  -0.371  0.00  0.00    +0.091 A 
ATOM      7  C   UNL     1       0.002  -0.004   0.002  0.00  0.00    -0.021 A 
ATOM      8  C   UNL     1       1.114  -0.686   0.352  0.00  0.00    -0.004 A 
ATOM      9  S   UNL     1       0.667  -2.392   0.192  0.00  0.00    -0.077 S 
ATOM     10  C   UNL     1       2.429  -0.112   0.781  0.00  0.00    +0.046 C 
ATOM     11  C   UNL     1       2.220   1.369   1.127  0.00  0.00    -0.009 C 
ATOM     12  C   UNL     1       1.423   2.031  -0.001  0.00  0.00    +0.008 C 
ATOM     13  C   UNL     1      -0.019   1.520   0.010  0.00  0.00    +0.037 C 
ATOM     14  C   UNL     1       3.578   2.058   1.272  0.00  0.00    +0.008 C 
BRANCH   6  15
ATOM     15  C   UNL     1      -2.410  -0.223  -0.772  0.00  0.00    +0.342 C 
ATOM     16  O   UNL     1      -2.617   0.038  -1.942  0.00  0.00    -0.245 OA
BRANCH  15  17
ATOM     17  O   UNL     1      -3.352   0.044   0.155  0.00  0.00    -0.461 OA
BRANCH  17  18
ATOM     18  C   UNL     1      -4.589   0.641  -0.315  0.00  0.00    +0.229 C 
ATOM     19  C   UNL     1      -5.529   0.869   0.871  0.00  0.00    +0.048 C 
ENDBRANCH  17  18
ENDBRANCH  15  17
ENDBRANCH   6  15
ENDBRANCH   3   5
BRANCH   1  20
ATOM     20  C   UNL     1      -2.560  -5.562  -0.874  0.00  0.00    +0.214 C 
BRANCH  20  24
ATOM     21  C   UNL     1      -1.223  -8.861   0.187  0.00  0.00    +0.138 C 
ATOM     22  C   UNL     1      -1.970  -7.572   0.465  0.00  0.00    +0.251 C 
ATOM     23  O   UNL     1      -2.483  -7.234   1.511  0.00  0.00    -0.272 OA
ATOM     24  N   UNL     1      -1.947  -6.880  -0.691  0.00  0.00    -0.215 N 
ATOM     25  C   UNL     1      -1.300  -7.548  -1.653  0.00  0.00    +0.310 C 
ATOM     26  O   UNL     1      -1.152  -7.129  -2.784  0.00  0.00    -0.252 OA
ATOM     27  N   UNL     1      -0.829  -8.734  -1.227  0.00  0.00    -0.281 N 
ATOM     28  H   UNL     1      -0.330  -9.381  -1.750  0.00  0.00    +0.152 HD
BRANCH  21  29
ATOM     29  C   UNL     1      -2.127 -10.051   0.383  0.00  0.00    -0.015 A 
ATOM     30  C   UNL     1      -2.198 -10.668   1.618  0.00  0.00    +0.006 A 
ATOM     31  C   UNL     1      -3.031 -11.756   1.800  0.00  0.00    +0.000 A 
ATOM     32  C   UNL     1      -3.784 -12.234   0.744  0.00  0.00    +0.000 A 
ATOM     33  C   UNL     1      -3.708 -11.621  -0.492  0.00  0.00    +0.000 A 
ATOM     34  C   UNL     1      -2.880 -10.529  -0.673  0.00  0.00    +0.006 A 
ENDBRANCH  21  29
BRANCH  21  35
ATOM     35  C   UNL     1       0.013  -8.972   1.082  0.00  0.00    +0.040 C 
BRANCH  35  37
ATOM     36  C   UNL     1       2.173  -7.891   1.721  0.00  0.00    +0.004 C 
ATOM     37  C   UNL     1       0.937  -7.780   0.825  0.00  0.00    -0.000 C 
ENDBRANCH  35  37
ENDBRANCH  21  35
ENDBRANCH  20  24
ENDBRANCH   1  20
TORSDOF 9
