REMARK  Name = ZINC36029060
REMARK  11 active torsions:
REMARK  status: ('A' for Active; 'I' for Inactive)
REMARK    1  A    between atoms: C_1  and  C_2
REMARK    2  A    between atoms: C_2  and  C_3
REMARK    3  A    between atoms: C_2  and  C_4
REMARK    4  A    between atoms: C_4  and  C_5
REMARK    5  A    between atoms: N_9  and  C_27
REMARK    6  A    between atoms: N_14  and  C_17
REMARK    7  A    between atoms: C_17  and  N_19
REMARK    8  A    between atoms: N_19  and  C_20
REMARK    9  A    between atoms: C_27  and  C_28
REMARK   10  A    between atoms: C_28  and  C_29
REMARK   11  A    between atoms: C_28  and  C_30
REMARK                            x       y       z     vdW  Elec       q    Type
REMARK                         _______ _______ _______ _____ _____    ______ ____
ROOT
ATOM      1  C   UNL     1      -1.044  -0.572   2.473  0.00  0.00    +0.019 C 
ATOM      2  C   UNL     1      -0.091  -0.764   3.633  0.00  0.00    +0.200 C 
ATOM      3  O   UNL     1       1.050  -0.356   3.688  0.00  0.00    -0.277 OA
ATOM      4  N   UNL     1      -0.726  -1.463   4.597  0.00  0.00    -0.313 N 
ATOM      5  C   UNL     1      -2.092  -1.766   4.162  0.00  0.00    +0.006 C 
ATOM      6  N   UNL     1      -2.120  -1.568   2.696  0.00  0.00    +0.401 N 
ATOM      7  C   UNL     1      -2.443  -3.215   4.494  0.00  0.00    +0.025 C 
ATOM      8  C   UNL     1      -2.376  -3.420   6.012  0.00  0.00    +0.107 C 
ATOM      9  N   UNL     1      -3.231  -2.417   6.662  0.00  0.00    -0.312 N 
ATOM     10  C   UNL     1      -3.020  -0.997   6.349  0.00  0.00    +0.107 C 
ATOM     11  C   UNL     1      -3.083  -0.814   4.829  0.00  0.00    +0.025 C 
ATOM     12  H   UNL     1      -3.013  -1.200   2.402  0.00  0.00    -0.082 HD
ATOM     13  H   UNL     1      -1.913  -2.430   2.216  0.00  0.00    -0.082 HD
ENDROOT
BRANCH   9  14
ATOM     14  C   UNL     1      -4.191  -2.793   7.530  0.00  0.00    +0.137 C 
ATOM     15  S   UNL     1      -4.344  -4.439   7.976  0.00  0.00    -0.018 S 
BRANCH  14  16
ATOM     16  N   UNL     1      -5.030  -1.874   8.046  0.00  0.00    -0.295 N 
ATOM     17  H   UNL     1      -5.957  -1.849   7.761  0.00  0.00    +0.154 HD
BRANCH  16  18
ATOM     18  C   UNL     1      -4.565  -0.955   8.995  0.00  0.00    +0.068 A 
ATOM     19  C   UNL     1      -3.270  -1.056   9.484  0.00  0.00    +0.026 A 
ATOM     20  C   UNL     1      -2.813  -0.148  10.419  0.00  0.00    +0.002 A 
ATOM     21  C   UNL     1      -3.643   0.862  10.869  0.00  0.00    +0.003 A 
ATOM     22  C   UNL     1      -4.934   0.967  10.384  0.00  0.00    +0.040 A 
ATOM     23  C   UNL     1      -5.397   0.064   9.444  0.00  0.00    +0.144 A 
ATOM     24  F   UNL     1      -6.656   0.170   8.967  0.00  0.00    -0.204 F 
ENDBRANCH  16  18
ENDBRANCH  14  16
ENDBRANCH   9  14
BRANCH   1  25
ATOM     25  C   UNL     1      -0.331  -0.847   1.147  0.00  0.00    -0.004 C 
BRANCH  25  27
ATOM     26  C   UNL     1      -1.673   0.884  -0.055  0.00  0.00    +0.007 C 
ATOM     27  C   UNL     1      -1.297  -0.599  -0.013  0.00  0.00    -0.018 C 
ATOM     28  C   UNL     1      -0.625  -0.992  -1.330  0.00  0.00    +0.007 C 
ENDBRANCH  25  27
ENDBRANCH   1  25
BRANCH   4  29
ATOM     29  C   UNL     1      -0.139  -1.858   5.880  0.00  0.00    +0.109 C 
BRANCH  29  30
ATOM     30  C   UNL     1       0.811  -3.038   5.664  0.00  0.00    +0.000 C 
ATOM     31  C   UNL     1       1.228  -3.611   7.020  0.00  0.00    +0.009 C 
ATOM     32  C   UNL     1       0.102  -4.121   4.849  0.00  0.00    +0.009 C 
ENDBRANCH  29  30
ENDBRANCH   4  29
TORSDOF 7
