REMARK  Name = ZINC43091813
REMARK  11 active torsions:
REMARK  status: ('A' for Active; 'I' for Inactive)
REMARK    1  A    between atoms: C_1  and  C_2
REMARK    2  A    between atoms: C_2  and  C_3
REMARK    3  A    between atoms: C_3  and  C_5
REMARK    4  A    between atoms: C_3  and  N_22
REMARK    5  A    between atoms: C_5  and  C_7
REMARK    6  A    between atoms: C_5  and  N_14
REMARK    7  A    between atoms: N_14  and  C_15
REMARK    8  A    between atoms: N_14  and  C_17
REMARK    9  A    between atoms: C_15  and  C_16
REMARK   10  A    between atoms: C_17  and  C_18
REMARK   11  A    between atoms: N_20  and  C_21
REMARK                            x       y       z     vdW  Elec       q    Type
REMARK                         _______ _______ _______ _____ _____    ______ ____
ROOT
ATOM      1  C   UNL     1      -1.735  -2.309  -0.578  0.00  0.00    -0.051 C 
ENDROOT
BRANCH   1   2
ATOM      2  C   UNL     1      -2.984  -2.863  -1.215  0.00  0.00    -0.048 A 
ATOM      3  C   UNL     1      -4.079  -2.043  -1.416  0.00  0.00    +0.003 A 
ATOM      4  C   UNL     1      -5.224  -2.550  -2.001  0.00  0.00    +0.000 A 
ATOM      5  C   UNL     1      -5.275  -3.877  -2.385  0.00  0.00    +0.001 A 
ATOM      6  C   UNL     1      -4.181  -4.697  -2.184  0.00  0.00    +0.015 A 
ATOM      7  C   UNL     1      -3.033  -4.189  -1.604  0.00  0.00    +0.019 A 
ATOM      8 BR   UNL     1      -1.533  -5.309  -1.335  0.00  0.00    -0.050 Br
ENDBRANCH   1   2
BRANCH   1   9
ATOM      9  N   UNL     1      -0.857  -1.760  -1.620  0.00  0.00    +0.389 N 
ATOM     10  H   UNL     1      -0.080  -1.283  -1.187  0.00  0.00    -0.080 HD
BRANCH   9  11
ATOM     11  C   UNL     1      -1.613  -0.811  -2.448  0.00  0.00    -0.081 C 
ATOM     12  C   UNL     1      -1.540   0.584  -1.822  0.00  0.00    -0.017 C 
ENDBRANCH   9  11
BRANCH   9  13
ATOM     13  C   UNL     1      -0.353  -2.852  -2.463  0.00  0.00    +0.019 C 
BRANCH  13  14
ATOM     14  C   UNL     1       0.661  -2.309  -3.436  0.00  0.00    +0.196 C 
ATOM     15  O   UNL     1       0.938  -1.128  -3.428  0.00  0.00    -0.278 OA
ATOM     16  N   UNL     1       1.262  -3.136  -4.315  0.00  0.00    -0.320 N 
ATOM     17  C   UNL     1       2.248  -2.608  -5.261  0.00  0.00    +0.128 C 
ATOM     18  H   UNL     1       1.040  -4.080  -4.321  0.00  0.00    +0.148 HD
ENDBRANCH  13  14
ENDBRANCH   9  13
ENDBRANCH   1   9
BRANCH   1  19
ATOM     19  C   UNL     1      -2.113  -1.202   0.407  0.00  0.00    -0.085 C 
BRANCH  19  20
ATOM     20  N   UNL     1      -2.924  -1.769   1.493  0.00  0.00    +0.379 N 
ATOM     21  H   UNL     1      -2.365  -2.419   2.025  0.00  0.00    -0.090 HD
ATOM     22  H   UNL     1      -3.242  -1.026   2.098  0.00  0.00    -0.090 HD
ATOM     23  H   UNL     1      -3.720  -2.249   1.103  0.00  0.00    -0.090 HD
ENDBRANCH  19  20
BRANCH  19  25
ATOM     24  C   UNL     1      -1.215   0.596   1.892  0.00  0.00    +0.002 C 
ATOM     25  C   UNL     1      -0.841  -0.582   0.990  0.00  0.00    -0.021 C 
ENDBRANCH  19  25
ENDBRANCH   1  19
TORSDOF 8
