REMARK  Name = ZINC11663839
REMARK  7 active torsions:
REMARK  status: ('A' for Active; 'I' for Inactive)
REMARK    1  A    between atoms: C_4  and  C_28
REMARK    2  A    between atoms: C_5  and  C_7
REMARK    3  A    between atoms: C_7  and  N_51
REMARK    4  A    between atoms: C_13  and  C_15
REMARK    5  A    between atoms: C_15  and  C_16
REMARK    6  A    between atoms: N_18  and  C_19
REMARK    7  A    between atoms: C_19  and  C_20
REMARK                            x       y       z     vdW  Elec       q    Type
REMARK                         _______ _______ _______ _____ _____    ______ ____
ROOT
ATOM      1  C   UNL     1     -10.334   4.851   2.264  0.00  0.00    -0.058 C 
ATOM      2  C   UNL     1     -10.653   5.280   3.697  0.00  0.00    +0.085 C 
ATOM      3  N   UNL     1     -10.199   4.260   4.638  0.00  0.00    -0.318 N 
ATOM      4  C   UNL     1      -9.305   3.320   4.315  0.00  0.00    +0.200 C 
ATOM      5  O   UNL     1      -8.960   2.529   5.168  0.00  0.00    -0.278 OA
ATOM      6  C   UNL     1      -8.709   3.202   2.941  0.00  0.00    +0.028 C 
ATOM      7  H   UNL     1     -10.562   4.265   5.537  0.00  0.00    +0.149 HD
ATOM      8  N   UNL     1      -8.909   4.466   2.208  0.00  0.00    +0.391 N 
ATOM      9  H   UNL     1      -8.346   5.202   2.648  0.00  0.00    -0.080 HD
ENDROOT
BRANCH   8  10
ATOM     10  C   UNL     1      -8.481   4.308   0.799  0.00  0.00    -0.041 C 
BRANCH  10  15
ATOM     11  C   UNL     1      -9.650   7.202  -1.326  0.00  0.00    +0.000 A 
ATOM     12  C   UNL     1      -8.630   8.115  -1.133  0.00  0.00    +0.001 A 
ATOM     13  C   UNL     1      -7.562   7.797  -0.315  0.00  0.00    +0.012 A 
ATOM     14  C   UNL     1      -7.514   6.564   0.310  0.00  0.00    +0.056 A 
ATOM     15  C   UNL     1      -8.534   5.652   0.118  0.00  0.00    -0.052 A 
ATOM     16  C   UNL     1      -9.599   5.968  -0.704  0.00  0.00    +0.002 A 
BRANCH  14  17
ATOM     17  C   UNL     1      -6.350   6.217   1.201  0.00  0.00    +0.418 C 
ATOM     18  F   UNL     1      -5.454   7.291   1.238  0.00  0.00    -0.166 F 
ATOM     19  F   UNL     1      -6.815   5.953   2.494  0.00  0.00    -0.166 F 
ATOM     20  F   UNL     1      -5.699   5.085   0.699  0.00  0.00    -0.166 F 
ENDBRANCH  14  17
ENDBRANCH  10  15
ENDBRANCH   8  10
BRANCH   6  21
ATOM     21  C   UNL     1      -7.209   2.928   3.059  0.00  0.00    +0.089 C 
BRANCH  21  22
ATOM     22  C   UNL     1      -6.993   1.571   3.679  0.00  0.00    +0.212 C 
ATOM     23  O   UNL     1      -7.939   0.840   3.881  0.00  0.00    -0.276 OA
ATOM     24  N   UNL     1      -5.749   1.171   4.009  0.00  0.00    -0.310 N 
ATOM     25  H   UNL     1      -4.993   1.757   3.848  0.00  0.00    +0.149 HD
BRANCH  24  26
ATOM     26  C   UNL     1      -5.540  -0.147   4.612  0.00  0.00    +0.161 C 
BRANCH  26  27
ATOM     27  C   UNL     1      -4.071  -0.348   4.883  0.00  0.00    +0.078 A 
ATOM     28  C   UNL     1      -3.447  -0.107   6.048  0.00  0.00    +0.118 A 
ATOM     29  N   UNL     1      -2.101  -0.421   5.880  0.00  0.00    -0.300 N 
ATOM     30  C   UNL     1      -0.942  -0.413   6.626  0.00  0.00    +0.100 A 
ATOM     31  C   UNL     1       0.214  -0.808   6.095  0.00  0.00    +0.067 A 
ATOM     32  S   UNL     1      -0.271  -1.230   4.428  0.00  0.00    -0.058 S 
ATOM     33  C   UNL     1      -1.998  -0.839   4.580  0.00  0.00    +0.178 A 
ATOM     34  N   UNL     1      -3.162  -0.788   3.999  0.00  0.00    -0.225 NA
ENDBRANCH  26  27
ENDBRANCH  24  26
ENDBRANCH  21  22
ENDBRANCH   6  21
TORSDOF 7
