REMARK  Name = ZINC39325137
REMARK  10 active torsions:
REMARK  status: ('A' for Active; 'I' for Inactive)
REMARK    1  A    between atoms: C_1  and  O_2
REMARK    2  A    between atoms: O_2  and  C_3
REMARK    3  A    between atoms: C_7  and  C_17
REMARK    4  A    between atoms: C_14  and  O_15
REMARK    5  A    between atoms: O_15  and  C_16
REMARK    6  A    between atoms: C_17  and  N_18
REMARK    7  A    between atoms: N_18  and  C_19
REMARK    8  A    between atoms: N_18  and  S_27
REMARK    9  A    between atoms: C_19  and  C_20
REMARK   10  A    between atoms: S_27  and  C_30
REMARK                            x       y       z     vdW  Elec       q    Type
REMARK                         _______ _______ _______ _____ _____    ______ ____
ROOT
ATOM      1  N   UNL     1      -8.237  -0.826   1.209  0.00  0.00    -0.171 NA
ENDROOT
BRANCH   1   2
ATOM      2  S   UNL     1      -9.424  -0.002   0.401  0.00  0.00    +0.061 S 
ATOM      3  O   UNL     1     -10.664  -0.507   0.875  0.00  0.00    -0.153 OA
ATOM      4  O   UNL     1      -9.085   1.376   0.475  0.00  0.00    -0.153 OA
BRANCH   2   5
ATOM      5  C   UNL     1      -9.311  -0.457  -1.298  0.00  0.00    +0.106 A 
ATOM      6  C   UNL     1      -8.502   0.266  -2.155  0.00  0.00    +0.030 A 
ATOM      7  C   UNL     1      -8.413  -0.091  -3.487  0.00  0.00    +0.022 A 
ATOM      8  C   UNL     1      -9.133  -1.172  -3.963  0.00  0.00    +0.041 A 
ATOM      9  C   UNL     1      -9.941  -1.896  -3.105  0.00  0.00    +0.022 A 
ATOM     10  C   UNL     1     -10.025  -1.542  -1.772  0.00  0.00    +0.030 A 
ATOM     11 CL   UNL     1      -9.021  -1.621  -5.636  0.00  0.00    -0.084 Cl
ENDBRANCH   2   5
ENDBRANCH   1   2
BRANCH   1  12
ATOM     12  C   UNL     1      -6.907  -0.230   1.363  0.00  0.00    +0.126 C 
BRANCH  12  17
ATOM     13  C   UNL     1      -1.188  -0.841   0.366  0.00  0.00    +0.162 A 
ATOM     14  C   UNL     1      -2.279  -0.033   0.406  0.00  0.00    +0.059 A 
ATOM     15  C   UNL     1      -3.610  -0.627   0.255  0.00  0.00    -0.003 A 
ATOM     16  C   UNL     1      -4.724   0.152   0.289  0.00  0.00    -0.003 C 
ATOM     17  C   UNL     1      -6.063  -0.540   0.125  0.00  0.00    +0.114 C 
ATOM     18  C   UNL     1      -6.052  -2.040  -0.065  0.00  0.00    +0.225 C 
ATOM     19  O   UNL     1      -7.099  -2.646  -0.202  0.00  0.00    -0.275 OA
ATOM     20  N   UNL     1      -4.902  -2.690  -0.081  0.00  0.00    -0.284 N 
ATOM     21  C   UNL     1      -3.721  -2.085   0.064  0.00  0.00    +0.044 A 
ATOM     22  C   UNL     1      -2.541  -2.842   0.035  0.00  0.00    +0.073 A 
ATOM     23  C   UNL     1      -1.317  -2.230   0.176  0.00  0.00    +0.163 A 
ATOM     24  H   UNL     1      -4.917  -3.652  -0.203  0.00  0.00    +0.155 HD
BRANCH  13  26
ATOM     25  C   UNL     1       0.121   1.117   0.695  0.00  0.00    +0.277 C 
ATOM     26  O   UNL     1       0.050  -0.298   0.505  0.00  0.00    -0.491 OA
ENDBRANCH  13  26
BRANCH  23  27
ATOM     27  O   UNL     1      -0.197  -2.992   0.138  0.00  0.00    -0.491 OA
ATOM     28  C   UNL     1      -0.374  -4.396  -0.056  0.00  0.00    +0.277 C 
ENDBRANCH  23  27
ENDBRANCH  12  17
ENDBRANCH   1  12
BRANCH   1  29
ATOM     29  C   UNL     1      -8.516  -2.150   1.770  0.00  0.00    +0.144 C 
BRANCH  29  30
ATOM     30  C   UNL     1      -8.930  -2.007   3.212  0.00  0.00    -0.031 A 
ATOM     31  C   UNL     1      -7.974  -2.034   4.211  0.00  0.00    +0.008 A 
ATOM     32  C   UNL     1      -8.353  -1.902   5.534  0.00  0.00    +0.038 A 
ATOM     33  C   UNL     1      -9.689  -1.744   5.858  0.00  0.00    +0.123 A 
ATOM     34  C   UNL     1     -10.645  -1.717   4.857  0.00  0.00    +0.038 A 
ATOM     35  C   UNL     1     -10.264  -1.843   3.535  0.00  0.00    +0.008 A 
ATOM     36  F   UNL     1     -10.060  -1.616   7.151  0.00  0.00    -0.205 F 
ENDBRANCH  29  30
ENDBRANCH   1  29
TORSDOF 8
