REMARK  Name = ZINC34718227
REMARK  9 active torsions:
REMARK  status: ('A' for Active; 'I' for Inactive)
REMARK    1  A    between atoms: C_1  and  C_2
REMARK    2  A    between atoms: C_3  and  C_22
REMARK    3  A    between atoms: C_5  and  C_16
REMARK    4  A    between atoms: N_6  and  C_7
REMARK    5  A    between atoms: N_24  and  C_25
REMARK    6  A    between atoms: C_25  and  C_26
REMARK    7  A    between atoms: C_26  and  C_27
REMARK    8  A    between atoms: C_27  and  C_28
REMARK    9  A    between atoms: C_27  and  C_34
REMARK                            x       y       z     vdW  Elec       q    Type
REMARK                         _______ _______ _______ _____ _____    ______ ____
ROOT
ATOM      1  C   UNL     1      -0.575   2.994  -0.560  0.00  0.00    +0.064 C 
ATOM      2  C   UNL     1      -0.345   1.543  -0.224  0.00  0.00    +0.033 A 
ATOM      3  C   UNL     1      -0.113   0.531  -1.131  0.00  0.00    +0.058 A 
ATOM      4  C   UNL     1       0.047  -0.665  -0.385  0.00  0.00    +0.041 A 
ATOM      5  C   UNL     1      -0.091  -0.340   0.926  0.00  0.00    +0.055 A 
ATOM      6  N   UNL     1      -0.325   1.012   1.016  0.00  0.00    -0.312 N 
ENDROOT
BRANCH   6   7
ATOM      7  C   UNL     1      -0.517   1.725   2.209  0.00  0.00    +0.051 A 
ATOM      8  C   UNL     1       0.541   1.898   3.091  0.00  0.00    +0.030 A 
ATOM      9  C   UNL     1       0.353   2.600   4.267  0.00  0.00    +0.051 A 
ATOM     10  C   UNL     1      -0.889   3.134   4.567  0.00  0.00    +0.166 A 
ATOM     11  C   UNL     1      -1.952   2.962   3.683  0.00  0.00    +0.168 A 
ATOM     12  C   UNL     1      -1.762   2.263   2.503  0.00  0.00    +0.075 A 
ATOM     13  O   UNL     1      -3.056   3.574   4.204  0.00  0.00    -0.453 OA
ATOM     14  C   UNL     1      -2.765   3.769   5.600  0.00  0.00    +0.466 C 
ATOM     15  O   UNL     1      -1.328   3.854   5.642  0.00  0.00    -0.453 OA
ENDBRANCH   6   7
BRANCH   5  16
ATOM     16  C   UNL     1      -0.000  -1.280   2.064  0.00  0.00    -0.001 A 
ATOM     17  C   UNL     1      -0.557  -0.941   3.299  0.00  0.00    +0.010 A 
ATOM     18  C   UNL     1      -0.469  -1.822   4.356  0.00  0.00    +0.001 A 
ATOM     19  C   UNL     1       0.169  -3.039   4.196  0.00  0.00    +0.000 A 
ATOM     20  C   UNL     1       0.723  -3.381   2.975  0.00  0.00    +0.001 A 
ATOM     21  C   UNL     1       0.637  -2.511   1.907  0.00  0.00    +0.010 A 
ENDBRANCH   5  16
BRANCH   3  22
ATOM     22  C   UNL     1      -0.045   0.666  -2.596  0.00  0.00    +0.246 C 
ATOM     23  O   UNL     1      -0.201   1.755  -3.115  0.00  0.00    -0.270 OA
ATOM     24  N   UNL     1       0.191  -0.418  -3.362  0.00  0.00    -0.311 N 
ATOM     25  H   UNL     1       0.315  -1.286  -2.949  0.00  0.00    +0.149 HD
BRANCH  24  26
ATOM     26  C   UNL     1       0.259  -0.284  -4.819  0.00  0.00    +0.105 C 
BRANCH  26  27
ATOM     27  C   UNL     1       0.535  -1.652  -5.445  0.00  0.00    +0.031 C 
BRANCH  27  28
ATOM     28  C   UNL     1       0.606  -1.512  -6.967  0.00  0.00    +0.050 C 
BRANCH  28  29
ATOM     29  C   UNL     1       1.791  -0.658  -7.338  0.00  0.00    -0.040 A 
ATOM     30  C   UNL     1       1.614   0.463  -8.128  0.00  0.00    +0.004 A 
ATOM     31  C   UNL     1       2.701   1.246  -8.468  0.00  0.00    +0.000 A 
ATOM     32  C   UNL     1       3.964   0.910  -8.019  0.00  0.00    +0.000 A 
ATOM     33  C   UNL     1       4.140  -0.211  -7.228  0.00  0.00    +0.000 A 
ATOM     34  C   UNL     1       3.053  -0.992  -6.884  0.00  0.00    +0.004 A 
ENDBRANCH  28  29
BRANCH  28  35
ATOM     35  C   UNL     1       0.755  -2.876  -7.590  0.00  0.00    -0.040 A 
ATOM     36  C   UNL     1       1.747  -3.733  -7.150  0.00  0.00    +0.004 A 
ATOM     37  C   UNL     1       1.884  -4.984  -7.721  0.00  0.00    +0.000 A 
ATOM     38  C   UNL     1       1.029  -5.379  -8.734  0.00  0.00    +0.000 A 
ATOM     39  C   UNL     1       0.037  -4.522  -9.174  0.00  0.00    +0.000 A 
ATOM     40  C   UNL     1      -0.102  -3.273  -8.599  0.00  0.00    +0.004 A 
ENDBRANCH  28  35
ENDBRANCH  27  28
ENDBRANCH  26  27
ENDBRANCH  24  26
ENDBRANCH   3  22
TORSDOF 8
