REMARK  Name = ZINC16694525
REMARK  6 active torsions:
REMARK  status: ('A' for Active; 'I' for Inactive)
REMARK    1  A    between atoms: C_1  and  C_2
REMARK    2  A    between atoms: N_4  and  C_24
REMARK    3  A    between atoms: C_8  and  C_9
REMARK    4  A    between atoms: C_12  and  C_14
REMARK    5  A    between atoms: C_17  and  S_20
REMARK    6  A    between atoms: S_20  and  N_23
REMARK                            x       y       z     vdW  Elec       q    Type
REMARK                         _______ _______ _______ _____ _____    ______ ____
ROOT
ATOM      1  C   UNL     1       0.055  -1.466   3.529  0.00  0.00    +0.129 A 
ATOM      2  C   UNL     1       0.059  -1.224   4.898  0.00  0.00    +0.050 A 
ATOM      3  C   UNL     1       0.084  -2.466   5.526  0.00  0.00    +0.050 A 
ATOM      4  C   UNL     1       0.094  -3.423   4.532  0.00  0.00    +0.136 A 
ATOM      5  O   UNL     1       0.071  -2.804   3.339  0.00  0.00    -0.455 OA
ENDROOT
BRANCH   1  13
ATOM      6  C   UNL     1      -0.018   1.503   0.010  0.00  0.00    +0.068 C 
ATOM      7  C   UNL     1       0.002  -0.004   0.002  0.00  0.00    +0.069 C 
ATOM      8  N   UNL     1       0.008  -0.766  -1.051  0.00  0.00    -0.177 NA
ATOM      9  N   UNL     1       0.028  -2.115  -0.699  0.00  0.00    -0.156 N 
ATOM     10  C   UNL     1       0.035  -2.243   0.643  0.00  0.00    +0.272 C 
ATOM     11  O   UNL     1       0.052  -3.283   1.281  0.00  0.00    -0.268 OA
ATOM     12  C   UNL     1       0.025  -0.877   1.182  0.00  0.00    +0.065 C 
ATOM     13  C   UNL     1       0.033  -0.493   2.522  0.00  0.00    +0.061 C 
BRANCH   9  14
ATOM     14  C   UNL     1       0.039  -3.182  -1.607  0.00  0.00    +0.060 A 
ATOM     15  C   UNL     1       0.052  -4.490  -1.144  0.00  0.00    +0.026 A 
ATOM     16  C   UNL     1       0.062  -5.540  -2.041  0.00  0.00    +0.017 A 
ATOM     17  C   UNL     1       0.059  -5.288  -3.402  0.00  0.00    +0.018 A 
ATOM     18  C   UNL     1       0.047  -3.985  -3.867  0.00  0.00    +0.017 A 
ATOM     19  C   UNL     1       0.030  -2.932  -2.974  0.00  0.00    +0.026 A 
ATOM     20 BR   UNL     1       0.074  -6.728  -4.628  0.00  0.00    -0.050 Br
ENDBRANCH   9  14
ENDBRANCH   1  13
BRANCH   4  21
ATOM     21  C   UNL     1       0.119  -4.883   4.742  0.00  0.00    +0.017 A 
ATOM     22  C   UNL     1       0.130  -5.405   6.039  0.00  0.00    +0.013 A 
ATOM     23  C   UNL     1       0.153  -6.771   6.228  0.00  0.00    +0.029 A 
ATOM     24  C   UNL     1       0.166  -7.624   5.138  0.00  0.00    +0.105 A 
ATOM     25  C   UNL     1       0.157  -7.114   3.852  0.00  0.00    +0.029 A 
ATOM     26  C   UNL     1       0.127  -5.750   3.647  0.00  0.00    +0.013 A 
BRANCH  24  27
ATOM     27  S   UNL     1       0.197  -9.368   5.390  0.00  0.00    +0.056 S 
ATOM     28  O   UNL     1       0.756  -9.938   4.215  0.00  0.00    -0.153 OA
ATOM     29  O   UNL     1       0.753  -9.582   6.680  0.00  0.00    -0.153 OA
BRANCH  27  30
ATOM     30  N   UNL     1      -1.377  -9.879   5.462  0.00  0.00    -0.204 NA
ATOM     31  H   UNL     1      -1.610 -10.773   5.166  0.00  0.00    +0.144 HD
ATOM     32  H   UNL     1      -2.065  -9.285   5.799  0.00  0.00    +0.144 HD
ENDBRANCH  27  30
ENDBRANCH  24  27
ENDBRANCH   4  21
TORSDOF 5
