REMARK  Name = ZINC64693643
REMARK  10 active torsions:
REMARK  status: ('A' for Active; 'I' for Inactive)
REMARK    1  A    between atoms: C_1  and  C_2
REMARK    2  A    between atoms: C_2  and  O_3
REMARK    3  A    between atoms: O_3  and  C_4
REMARK    4  A    between atoms: C_6  and  C_14
REMARK    5  A    between atoms: C_8  and  N_11
REMARK    6  A    between atoms: C_9  and  O_10
REMARK    7  A    between atoms: N_15  and  N_16
REMARK    8  A    between atoms: C_17  and  C_19
REMARK    9  A    between atoms: C_19  and  S_20
REMARK   10  A    between atoms: S_20  and  C_21
REMARK                            x       y       z     vdW  Elec       q    Type
REMARK                         _______ _______ _______ _____ _____    ______ ____
ROOT
ATOM      1  N   UNL     1      -0.644  -7.119   1.245  0.00  0.00    -0.206 N 
ATOM      2  C   UNL     1      -0.537  -8.452   1.079  0.00  0.00    +0.242 C 
ATOM      3  O   UNL     1       0.025  -8.898   0.101  0.00  0.00    -0.273 OA
ATOM      4  H   UNL     1      -1.094  -6.762   2.027  0.00  0.00    +0.177 HD
ENDROOT
BRANCH   1   6
ATOM      5  C   UNL     1      -0.211  -4.964   0.448  0.00  0.00    +0.138 C 
ATOM      6  N   UNL     1      -0.107  -6.248   0.288  0.00  0.00    -0.188 NA
BRANCH   5   9
ATOM      7  C   UNL     1       0.777  -1.811  -1.336  0.00  0.00    +0.165 A 
ATOM      8  C   UNL     1       0.244  -2.665  -0.389  0.00  0.00    +0.059 A 
ATOM      9  C   UNL     1       0.355  -4.048  -0.559  0.00  0.00    +0.000 A 
ATOM     10  C   UNL     1       1.003  -4.560  -1.686  0.00  0.00    +0.046 A 
ATOM     11  C   UNL     1       1.532  -3.701  -2.627  0.00  0.00    +0.172 A 
ATOM     12  C   UNL     1       1.417  -2.329  -2.460  0.00  0.00    +0.189 A 
BRANCH  11  13
ATOM     13  N   UNL     1       2.219  -4.245  -3.820  0.00  0.00    +0.060 N 
ATOM     14  O   UNL     1       2.316  -5.441  -3.969  0.00  0.00    -0.126 OA
ATOM     15  O   UNL     1       2.683  -3.494  -4.645  0.00  0.00    -0.126 OA
ENDBRANCH  11  13
BRANCH  12  16
ATOM     16  O   UNL     1       1.935  -1.487  -3.393  0.00  0.00    -0.502 OA
ATOM     17  H   UNL     1       2.854  -1.235  -3.229  0.00  0.00    +0.292 HD
ENDBRANCH  12  16
BRANCH   7  18
ATOM     18  O   UNL     1       0.671  -0.465  -1.174  0.00  0.00    -0.488 OA
BRANCH  18  20
ATOM     19  C   UNL     1      -0.019   1.526   0.010  0.00  0.00    +0.048 C 
ATOM     20  C   UNL     1       0.002  -0.004   0.002  0.00  0.00    +0.226 C 
ENDBRANCH  18  20
ENDBRANCH   7  18
ENDBRANCH   5   9
ENDBRANCH   1   6
BRANCH   2  21
ATOM     21  C   UNL     1      -1.115  -9.388   2.108  0.00  0.00    +0.170 C 
BRANCH  21  22
ATOM     22  S   UNL     1      -0.810 -11.104   1.604  0.00  0.00    -0.106 S 
BRANCH  22  23
ATOM     23  C   UNL     1      -1.558 -12.091   2.930  0.00  0.00    +0.236 C 
ATOM     24  N   UNL     1      -2.976 -11.743   3.079  0.00  0.00    -0.355 N 
ATOM     25  C   UNL     1      -3.143 -11.287   4.286  0.00  0.00    +0.061 A 
ATOM     26  C   UNL     1      -4.319 -10.789   5.013  0.00  0.00    +0.027 A 
ATOM     27  C   UNL     1      -4.185 -10.372   6.288  0.00  0.00    +0.002 A 
ATOM     28  C   UNL     1      -2.954 -10.392   6.967  0.00  0.00    +0.002 A 
ATOM     29  C   UNL     1      -1.815 -10.829   6.394  0.00  0.00    +0.027 A 
ATOM     30  C   UNL     1      -1.839 -11.308   5.005  0.00  0.00    +0.061 A 
ATOM     31  N   UNL     1      -0.918 -11.776   4.214  0.00  0.00    -0.355 N 
ATOM     32  H   UNL     1      -3.664 -11.836   2.401  0.00  0.00    +0.162 HD
ATOM     33  H   UNL     1       0.020 -11.895   4.432  0.00  0.00    +0.162 HD
ENDBRANCH  22  23
ENDBRANCH  21  22
ENDBRANCH   2  21
TORSDOF 9
