REMARK  Name = ZINC59513339
REMARK  8 active torsions:
REMARK  status: ('A' for Active; 'I' for Inactive)
REMARK    1  A    between atoms: C_1  and  C_2
REMARK    2  A    between atoms: C_6  and  N_8
REMARK    3  A    between atoms: C_12  and  N_33
REMARK    4  A    between atoms: C_14  and  S_15
REMARK    5  A    between atoms: S_15  and  C_16
REMARK    6  A    between atoms: C_16  and  C_17
REMARK    7  A    between atoms: N_19  and  C_20
REMARK    8  A    between atoms: C_21  and  C_31
REMARK                            x       y       z     vdW  Elec       q    Type
REMARK                         _______ _______ _______ _____ _____    ______ ____
ROOT
ATOM      1  S   UNL     1      -0.161  -5.007   0.847  0.00  0.00    -0.078 S 
ENDROOT
BRANCH   1   8
ATOM      2  N   UNL     1       0.053  -2.798   2.394  0.00  0.00    -0.256 N 
ATOM      3  C   UNL     1       0.146  -2.133   3.565  0.00  0.00    +0.261 A 
ATOM      4  O   UNL     1       0.216  -0.914   3.582  0.00  0.00    -0.267 OA
ATOM      5  C   UNL     1       0.160  -2.862   4.757  0.00  0.00    +0.114 A 
ATOM      6  C   UNL     1       0.077  -4.247   4.694  0.00  0.00    +0.124 A 
ATOM      7  N   UNL     1      -0.014  -4.853   3.505  0.00  0.00    -0.208 NA
ATOM      8  C   UNL     1      -0.032  -4.160   2.386  0.00  0.00    +0.178 A 
BRANCH   2  14
ATOM      9  C   UNL     1      -2.490  -0.509  -1.139  0.00  0.00    +0.044 C 
ATOM     10  C   UNL     1      -1.182  -0.968  -0.548  0.00  0.00    -0.048 A 
ATOM     11  C   UNL     1       0.006  -0.688  -1.200  0.00  0.00    +0.003 A 
ATOM     12  C   UNL     1       1.208  -1.107  -0.662  0.00  0.00    +0.002 A 
ATOM     13  C   UNL     1       1.227  -1.807   0.529  0.00  0.00    +0.026 A 
ATOM     14  C   UNL     1       0.037  -2.089   1.186  0.00  0.00    +0.052 A 
ATOM     15  C   UNL     1      -1.169  -1.662   0.645  0.00  0.00    +0.029 A 
ENDBRANCH   2  14
BRANCH   6  16
ATOM     16  N   UNL     1       0.089  -4.995   5.854  0.00  0.00    -0.343 N 
ATOM     17  H   UNL     1       0.155  -4.553   6.715  0.00  0.00    +0.144 HD
ATOM     18  H   UNL     1       0.031  -5.962   5.809  0.00  0.00    +0.144 HD
ENDBRANCH   6  16
ENDBRANCH   1   8
BRANCH   1  19
ATOM     19  C   UNL     1      -0.246  -6.758   1.315  0.00  0.00    +0.173 C 
BRANCH  19  20
ATOM     20  C   UNL     1      -0.360  -7.605   0.074  0.00  0.00    +0.228 C 
ATOM     21  O   UNL     1      -0.382  -7.080  -1.019  0.00  0.00    -0.275 OA
ATOM     22  N   UNL     1      -0.438  -8.947   0.179  0.00  0.00    -0.278 N 
ATOM     23  H   UNL     1      -0.420  -9.367   1.053  0.00  0.00    +0.155 HD
BRANCH  22  24
ATOM     24  C   UNL     1      -0.542  -9.727  -0.964  0.00  0.00    +0.090 A 
ATOM     25  C   UNL     1      -0.637 -11.100  -1.050  0.00  0.00    +0.084 A 
ATOM     26  C   UNL     1      -0.735 -11.704  -2.383  0.00  0.00    -0.018 A 
ATOM     27  C   UNL     1      -0.690 -10.792  -3.372  0.00  0.00    -0.004 A 
ATOM     28  S   UNL     1      -0.591  -9.219  -2.561  0.00  0.00    -0.077 S 
ATOM     29  C   UNL     1      -0.666 -11.029  -4.856  0.00  0.00    +0.043 C 
ATOM     30  C   UNL     1       0.771 -11.437  -5.229  0.00  0.00    +0.005 C 
ATOM     31  C   UNL     1       1.175 -12.623  -4.346  0.00  0.00    +0.000 C 
ATOM     32  C   UNL     1       0.210 -13.738  -4.693  0.00  0.00    +0.000 C 
ATOM     33  C   UNL     1      -1.114 -13.655  -3.954  0.00  0.00    +0.005 C 
ATOM     34  C   UNL     1      -0.935 -13.211  -2.507  0.00  0.00    +0.037 C 
BRANCH  25  35
ATOM     35  C   UNL     1      -0.640 -11.913   0.129  0.00  0.00    +0.102 C 
ATOM     36  N   UNL     1      -0.642 -12.558   1.064  0.00  0.00    -0.191 NA
ENDBRANCH  25  35
ENDBRANCH  22  24
ENDBRANCH  19  20
ENDBRANCH   1  19
TORSDOF 7
