REMARK  Name = ZINC64158238
REMARK  9 active torsions:
REMARK  status: ('A' for Active; 'I' for Inactive)
REMARK    1  A    between atoms: C_1  and  C_2
REMARK    2  A    between atoms: C_6  and  C_8
REMARK    3  A    between atoms: C_8  and  N_9
REMARK    4  A    between atoms: C_11  and  N_20
REMARK    5  A    between atoms: C_14  and  C_16
REMARK    6  A    between atoms: C_16  and  O_18
REMARK    7  A    between atoms: O_18  and  C_19
REMARK    8  A    between atoms: C_21  and  C_23
REMARK    9  A    between atoms: C_25  and  C_34
REMARK                            x       y       z     vdW  Elec       q    Type
REMARK                         _______ _______ _______ _____ _____    ______ ____
ROOT
ATOM      1  N   UNL     1       3.478  -6.192   2.474  0.00  0.00    -0.309 N 
ATOM      2  C   UNL     1       4.391  -6.310   1.490  0.00  0.00    +0.240 C 
ATOM      3  O   UNL     1       4.907  -5.318   1.020  0.00  0.00    -0.273 OA
ATOM      4  H   UNL     1       3.017  -6.979   2.804  0.00  0.00    +0.149 HD
ENDROOT
BRANCH   2   5
ATOM      5  C   UNL     1       4.771  -7.674   0.973  0.00  0.00    +0.198 C 
ATOM      6  C   UNL     1       3.895  -8.048  -0.202  0.00  0.00    -0.000 C 
ATOM      7  C   UNL     1       4.757  -8.218  -1.272  0.00  0.00    +0.006 A 
ATOM      8  C   UNL     1       4.541  -8.569  -2.628  0.00  0.00    +0.030 A 
ATOM      9  C   UNL     1       5.597  -8.665  -3.472  0.00  0.00    +0.042 A 
ATOM     10  C   UNL     1       6.908  -8.427  -3.040  0.00  0.00    +0.022 A 
ATOM     11  C   UNL     1       7.189  -8.088  -1.761  0.00  0.00    +0.027 A 
ATOM     12  C   UNL     1       6.136  -7.966  -0.814  0.00  0.00    +0.044 A 
ATOM     13  N   UNL     1       6.146  -7.656   0.465  0.00  0.00    -0.370 N 
ATOM     14 CL   UNL     1       5.318  -9.095  -5.131  0.00  0.00    -0.084 Cl
ATOM     15  H   UNL     1       6.936  -7.449   0.988  0.00  0.00    +0.161 HD
BRANCH   6  16
ATOM     16  C   UNL     1       2.438  -8.199  -0.207  0.00  0.00    -0.019 A 
ATOM     17  C   UNL     1       1.718  -8.060  -1.402  0.00  0.00    +0.008 A 
ATOM     18  C   UNL     1       0.348  -8.204  -1.397  0.00  0.00    +0.001 A 
ATOM     19  C   UNL     1      -0.318  -8.486  -0.216  0.00  0.00    +0.000 A 
ATOM     20  C   UNL     1       0.384  -8.625   0.969  0.00  0.00    +0.001 A 
ATOM     21  C   UNL     1       1.755  -8.490   0.983  0.00  0.00    +0.008 A 
ENDBRANCH   6  16
ENDBRANCH   2   5
BRANCH   1  24
ATOM     22  N   UNL     1       1.469  -3.200   3.170  0.00  0.00    -0.284 NA
ATOM     23  C   UNL     1       2.091  -4.147   2.220  0.00  0.00    +0.107 C 
ATOM     24  C   UNL     1       3.181  -4.876   3.045  0.00  0.00    +0.089 C 
ATOM     25  C   UNL     1       2.490  -5.012   4.427  0.00  0.00    +0.054 C 
ATOM     26  C   UNL     1       1.679  -3.704   4.540  0.00  0.00    +0.168 C 
BRANCH  26  27
ATOM     27  C   UNL     1       2.450  -2.691   5.347  0.00  0.00    +0.324 C 
ATOM     28  O   UNL     1       2.794  -1.650   4.839  0.00  0.00    -0.249 OA
BRANCH  27  29
ATOM     29  O   UNL     1       2.753  -2.945   6.629  0.00  0.00    -0.467 OA
ATOM     30  C   UNL     1       3.486  -1.941   7.334  0.00  0.00    +0.280 C 
ENDBRANCH  27  29
ENDBRANCH  26  27
BRANCH  22  31
ATOM     31  C   UNL     1       0.038  -3.031   2.884  0.00  0.00    +0.120 C 
BRANCH  31  37
ATOM     32  C   UNL     1      -0.438   1.274   0.376  0.00  0.00    +0.044 C 
ATOM     33  C   UNL     1      -0.358  -0.231   0.383  0.00  0.00    -0.050 A 
ATOM     34  C   UNL     1      -0.440  -0.933  -0.806  0.00  0.00    +0.003 A 
ATOM     35  C   UNL     1      -0.366  -2.313  -0.800  0.00  0.00    +0.001 A 
ATOM     36  C   UNL     1      -0.212  -2.992   0.394  0.00  0.00    +0.005 A 
ATOM     37  C   UNL     1      -0.130  -2.291   1.582  0.00  0.00    -0.033 A 
ATOM     38  C   UNL     1      -0.198  -0.910   1.576  0.00  0.00    +0.008 A 
ENDBRANCH  31  37
ENDBRANCH  22  31
ENDBRANCH   1  24
TORSDOF 7
