REMARK  Name = ZINC15673363
REMARK  11 active torsions:
REMARK  status: ('A' for Active; 'I' for Inactive)
REMARK    1  A    between atoms: C_1  and  C_2
REMARK    2  A    between atoms: C_2  and  C_3
REMARK    3  A    between atoms: C_3  and  C_4
REMARK    4  A    between atoms: C_4  and  C_5
REMARK    5  A    between atoms: C_7  and  C_10
REMARK    6  A    between atoms: C_10  and  C_11
REMARK    7  A    between atoms: C_16  and  C_18
REMARK    8  A    between atoms: C_18  and  C_19
REMARK    9  A    between atoms: N_24  and  C_27
REMARK   10  A    between atoms: C_32  and  O_33
REMARK   11  A    between atoms: O_33  and  C_34
REMARK                            x       y       z     vdW  Elec       q    Type
REMARK                         _______ _______ _______ _____ _____    ______ ____
ROOT
ATOM      1  C   UNL     1      -9.399   3.326   2.601  0.00  0.00    -0.019 C 
ATOM      2  C   UNL     1     -10.892   3.077   2.369  0.00  0.00    -0.079 C 
ATOM      3  C   UNL     1     -10.873   4.457   0.378  0.00  0.00    -0.082 C 
ATOM      4  C   UNL     1      -9.380   4.749   0.550  0.00  0.00    -0.015 C 
ATOM      5  C   UNL     1      -8.711   3.565   1.255  0.00  0.00    -0.002 C 
ATOM      6  N   UNL     1     -11.494   4.245   1.699  0.00  0.00    +0.379 N 
ATOM      7  H   UNL     1     -11.349   5.079   2.279  0.00  0.00    -0.086 HD
ATOM      8  H   UNL     1     -12.501   4.083   1.577  0.00  0.00    -0.086 HD
ENDROOT
BRANCH   1   9
ATOM      9  C   UNL     1      -9.221   4.557   3.492  0.00  0.00    +0.061 C 
BRANCH   9  12
ATOM     10  C   UNL     1     -10.051   4.032   7.011  0.00  0.00    +0.138 A 
ATOM     11  C   UNL     1      -9.119   4.394   6.097  0.00  0.00    +0.071 A 
ATOM     12  C   UNL     1      -9.791   4.275   4.859  0.00  0.00    +0.084 A 
ATOM     13  N   UNL     1     -11.000   3.880   5.133  0.00  0.00    -0.083 NA
ATOM     14  O   UNL     1     -11.162   3.734   6.322  0.00  0.00    -0.359 OA
BRANCH  10  15
ATOM     15  C   UNL     1      -9.874   3.975   8.506  0.00  0.00    +0.077 C 
BRANCH  15  16
ATOM     16  C   UNL     1     -10.245   5.328   9.116  0.00  0.00    +0.007 C 
BRANCH  16  18
ATOM     17  C   UNL     1     -10.437   6.624  11.243  0.00  0.00    +0.004 C 
ATOM     18  C   UNL     1     -10.066   5.271  10.634  0.00  0.00    -0.003 C 
ENDBRANCH  16  18
ENDBRANCH  15  16
ENDBRANCH  10  15
ENDBRANCH   9  12
ENDBRANCH   1   9
BRANCH   5  19
ATOM     19  C   UNL     1      -7.231   3.877   1.485  0.00  0.00    +0.099 C 
BRANCH  19  20
ATOM     20  C   UNL     1      -6.530   3.994   0.156  0.00  0.00    +0.216 C 
ATOM     21  O   UNL     1      -7.153   3.843  -0.874  0.00  0.00    -0.276 OA
ATOM     22  N   UNL     1      -5.211   4.266   0.112  0.00  0.00    -0.298 N 
ATOM     23  C   UNL     1      -4.507   4.385  -1.174  0.00  0.00    +0.126 C 
ATOM     24  C   UNL     1      -3.267   3.486  -1.135  0.00  0.00    +0.124 C 
ATOM     25  N   UNL     1      -2.461   3.820   0.047  0.00  0.00    -0.324 N 
ATOM     26  C   UNL     1      -3.199   3.551   1.288  0.00  0.00    +0.124 C 
ATOM     27  C   UNL     1      -4.437   4.452   1.349  0.00  0.00    +0.126 C 
BRANCH  25  28
ATOM     28  C   UNL     1      -1.240   3.136   0.031  0.00  0.00    +0.072 A 
ATOM     29  C   UNL     1      -1.220   1.749   0.017  0.00  0.00    +0.027 A 
ATOM     30  C   UNL     1      -0.013   1.076   0.008  0.00  0.00    +0.002 A 
ATOM     31  C   UNL     1       1.176   1.782   0.000  0.00  0.00    +0.004 A 
ATOM     32  C   UNL     1       1.164   3.164   0.008  0.00  0.00    +0.047 A 
ATOM     33  C   UNL     1      -0.042   3.846   0.024  0.00  0.00    +0.141 A 
BRANCH  33  34
ATOM     34  O   UNL     1      -0.055   5.206   0.033  0.00  0.00    -0.493 OA
ATOM     35  C   UNL     1       1.211   5.868   0.025  0.00  0.00    +0.277 C 
ENDBRANCH  33  34
ENDBRANCH  25  28
ENDBRANCH  19  20
ENDBRANCH   5  19
TORSDOF 9
