REMARK  Name = ZINC59126256
REMARK  10 active torsions:
REMARK  status: ('A' for Active; 'I' for Inactive)
REMARK    1  A    between atoms: C_1  and  C_2
REMARK    2  A    between atoms: C_2  and  O_3
REMARK    3  A    between atoms: O_3  and  C_4
REMARK    4  A    between atoms: C_4  and  C_6
REMARK    5  A    between atoms: N_8  and  C_29
REMARK    6  A    between atoms: C_17  and  C_20
REMARK    7  A    between atoms: C_23  and  C_26
REMARK    8  A    between atoms: C_26  and  C_27
REMARK    9  A    between atoms: C_26  and  C_28
REMARK   10  A    between atoms: C_33  and  N_35
REMARK                            x       y       z     vdW  Elec       q    Type
REMARK                         _______ _______ _______ _____ _____    ______ ____
ROOT
ATOM      1  C   UNL     1      -3.254  -2.523  -0.576  0.00  0.00    +0.202 C 
ATOM      2  N   UNL     1      -4.481  -2.086  -0.710  0.00  0.00    -0.163 NA
ATOM      3  N   UNL     1      -5.589  -2.910  -0.597  0.00  0.00    -0.192 N 
ATOM      4  C   UNL     1      -5.280  -4.302  -0.318  0.00  0.00    +0.181 C 
ATOM      5  S   UNL     1      -3.457  -4.273  -0.258  0.00  0.00    -0.054 S 
ATOM      6  C   UNL     1      -5.795  -5.288  -1.334  0.00  0.00    +0.003 A 
ATOM      7  C   UNL     1      -5.772  -5.108  -2.721  0.00  0.00    +0.008 A 
ATOM      8  C   UNL     1      -6.271  -6.058  -3.579  0.00  0.00    +0.000 A 
ATOM      9  C   UNL     1      -6.809  -7.224  -3.067  0.00  0.00    +0.000 A 
ATOM     10  C   UNL     1      -6.834  -7.415  -1.705  0.00  0.00    +0.005 A 
ATOM     11  C   UNL     1      -6.328  -6.456  -0.824  0.00  0.00    -0.023 A 
ATOM     12  C   UNL     1      -6.315  -6.614   0.699  0.00  0.00    +0.110 C 
ATOM     13  S   UNL     1      -5.982  -4.890   1.257  0.00  0.00    -0.105 S 
ENDROOT
BRANCH  12  14
ATOM     14  C   UNL     1      -7.652  -7.095   1.202  0.00  0.00    -0.030 A 
ATOM     15  C   UNL     1      -7.767  -8.353   1.764  0.00  0.00    +0.005 A 
ATOM     16  C   UNL     1      -8.993  -8.794   2.225  0.00  0.00    +0.004 A 
ATOM     17  C   UNL     1     -10.104  -7.978   2.126  0.00  0.00    -0.045 A 
ATOM     18  C   UNL     1      -9.989  -6.719   1.565  0.00  0.00    +0.004 A 
ATOM     19  C   UNL     1      -8.762  -6.276   1.107  0.00  0.00    +0.005 A 
BRANCH  17  20
ATOM     20  C   UNL     1     -11.441  -8.459   2.628  0.00  0.00    +0.013 C 
ATOM     21  C   UNL     1     -11.942  -7.518   3.725  0.00  0.00    +0.012 C 
ATOM     22  C   UNL     1     -12.444  -8.475   1.472  0.00  0.00    +0.012 C 
ENDBRANCH  17  20
ENDBRANCH  12  14
BRANCH   3  23
ATOM     23  C   UNL     1      -6.895  -2.441  -0.739  0.00  0.00    +0.057 A 
ATOM     24  C   UNL     1      -7.961  -3.334  -0.734  0.00  0.00    +0.025 A 
ATOM     25  C   UNL     1      -9.252  -2.866  -0.875  0.00  0.00    +0.004 A 
ATOM     26  C   UNL     1      -9.486  -1.510  -1.020  0.00  0.00    +0.033 A 
ATOM     27  C   UNL     1      -8.429  -0.619  -1.025  0.00  0.00    +0.128 A 
ATOM     28  C   UNL     1      -7.135  -1.079  -0.879  0.00  0.00    +0.057 A 
BRANCH  27  29
ATOM     29  N   UNL     1      -8.685   0.831  -1.181  0.00  0.00    +0.056 N 
ATOM     30  O   UNL     1      -9.818   1.235  -1.305  0.00  0.00    -0.126 OA
ATOM     31  O   UNL     1      -7.761   1.611  -1.186  0.00  0.00    -0.126 OA
ENDBRANCH  27  29
ENDBRANCH   3  23
BRANCH   1  32
ATOM     32  C   UNL     1      -2.005  -1.759  -0.671  0.00  0.00    +0.366 C 
ATOM     33  O   UNL     1      -0.936  -2.321  -0.527  0.00  0.00    -0.243 OA
BRANCH  32  34
ATOM     34  O   UNL     1      -2.042  -0.434  -0.919  0.00  0.00    -0.460 OA
BRANCH  34  36
ATOM     35  C   UNL     1      -1.030   1.730  -1.284  0.00  0.00    +0.048 C 
ATOM     36  C   UNL     1      -0.788   0.247  -0.999  0.00  0.00    +0.229 C 
ENDBRANCH  34  36
ENDBRANCH  32  34
ENDBRANCH   1  32
TORSDOF 7
