REMARK  Name = ZINC16610598
REMARK  13 active torsions:
REMARK  status: ('A' for Active; 'I' for Inactive)
REMARK    1  A    between atoms: C_1  and  C_2
REMARK    2  A    between atoms: C_2  and  N_3
REMARK    3  A    between atoms: C_4  and  C_35
REMARK    4  A    between atoms: C_5  and  C_29
REMARK    5  A    between atoms: C_6  and  C_11
REMARK    6  A    between atoms: C_14  and  N_17
REMARK    7  A    between atoms: N_20  and  C_21
REMARK    8  A    between atoms: C_25  and  C_28
REMARK    9  A    between atoms: C_26  and  C_27
REMARK   10  A    between atoms: C_29  and  O_31
REMARK   11  A    between atoms: O_31  and  C_32
REMARK   12  A    between atoms: C_32  and  C_33
REMARK   13  A    between atoms: C_32  and  C_34
REMARK                            x       y       z     vdW  Elec       q    Type
REMARK                         _______ _______ _______ _____ _____    ______ ____
ROOT
ATOM      1  C   UNL     1       0.107   4.532  -2.948  0.00  0.00    -0.022 A 
ATOM      2  C   UNL     1      -0.692   3.899  -3.882  0.00  0.00    +0.007 A 
ATOM      3  C   UNL     1      -0.999   4.529  -5.072  0.00  0.00    +0.024 A 
ATOM      4  C   UNL     1      -0.495   5.795  -5.335  0.00  0.00    +0.035 A 
ATOM      5  C   UNL     1       0.312   6.427  -4.398  0.00  0.00    +0.024 A 
ATOM      6  C   UNL     1       0.611   5.794  -3.207  0.00  0.00    +0.007 A 
ENDROOT
BRANCH   1  10
ATOM      7  N   UNL     1       0.119   1.151  -1.105  0.00  0.00    -0.286 N 
ATOM      8  C   UNL     1       1.317   1.554  -1.620  0.00  0.00    +0.021 C 
ATOM      9  C   UNL     1       1.549   2.852  -1.912  0.00  0.00    +0.078 C 
ATOM     10  C   UNL     1       0.435   3.845  -1.648  0.00  0.00    +0.141 C 
ATOM     11  N   UNL     1      -0.818   3.308  -1.091  0.00  0.00    -0.315 N 
ATOM     12  C   UNL     1      -0.900   1.983  -0.856  0.00  0.00    +0.138 C 
ATOM     13  S   UNL     1      -2.353   1.344  -0.214  0.00  0.00    -0.018 S 
ATOM     14  C   UNL     1       2.397   0.533  -1.868  0.00  0.00    +0.061 C 
ATOM     15  H   UNL     1      -1.568   3.893  -0.900  0.00  0.00    +0.149 HD
BRANCH   7  17
ATOM     16  C   UNL     1      -0.496  -1.004  -2.085  0.00  0.00    +0.025 C 
ATOM     17  C   UNL     1      -0.064  -0.273  -0.812  0.00  0.00    +0.109 C 
ENDBRANCH   7  17
BRANCH   9  18
ATOM     18  C   UNL     1       2.789   3.271  -2.447  0.00  0.00    +0.339 C 
ATOM     19  O   UNL     1       3.670   2.456  -2.651  0.00  0.00    -0.245 OA
BRANCH  18  20
ATOM     20  O   UNL     1       2.997   4.574  -2.730  0.00  0.00    -0.459 OA
BRANCH  20  21
ATOM     21  C   UNL     1       4.273   4.926  -3.268  0.00  0.00    +0.171 C 
ATOM     22  C   UNL     1       4.124   6.143  -4.182  0.00  0.00    +0.052 C 
ATOM     23  C   UNL     1       5.233   5.261  -2.124  0.00  0.00    +0.052 C 
ENDBRANCH  20  21
ENDBRANCH  18  20
ENDBRANCH   9  18
ENDBRANCH   1  10
BRANCH   4  24
ATOM     24  N   UNL     1      -0.799   6.434  -6.543  0.00  0.00    -0.269 N 
ATOM     25  C   UNL     1      -0.951   7.773  -6.577  0.00  0.00    +0.308 C 
ATOM     26  O   UNL     1      -0.914   8.416  -5.546  0.00  0.00    -0.252 OA
ATOM     27  N   UNL     1      -1.143   8.399  -7.755  0.00  0.00    -0.269 N 
ATOM     28  H   UNL     1      -0.900   5.913  -7.355  0.00  0.00    +0.156 HD
ATOM     29  H   UNL     1      -1.234   7.881  -8.570  0.00  0.00    +0.156 HD
BRANCH  27  30
ATOM     30  C   UNL     1      -1.212   9.796  -7.802  0.00  0.00    +0.038 A 
ATOM     31  C   UNL     1      -1.676  10.507  -6.703  0.00  0.00    +0.023 A 
ATOM     32  C   UNL     1      -1.742  11.885  -6.752  0.00  0.00    +0.002 A 
ATOM     33  C   UNL     1      -1.348  12.558  -7.894  0.00  0.00    +0.004 A 
ATOM     34  C   UNL     1      -0.887  11.853  -8.991  0.00  0.00    -0.046 A 
ATOM     35  C   UNL     1      -0.812  10.474  -8.946  0.00  0.00    -0.026 A 
ATOM     36  C   UNL     1      -0.303   9.707 -10.139  0.00  0.00    +0.046 C 
ATOM     37  C   UNL     1      -0.458  12.589 -10.234  0.00  0.00    +0.044 C 
ENDBRANCH  27  30
ENDBRANCH   4  24
TORSDOF 7
