REMARK  Name = ZINC67287573
REMARK  8 active torsions:
REMARK  status: ('A' for Active; 'I' for Inactive)
REMARK    1  A    between atoms: C_1  and  C_2
REMARK    2  A    between atoms: C_10  and  C_11
REMARK    3  A    between atoms: N_13  and  N_14
REMARK    4  A    between atoms: C_15  and  C_17
REMARK    5  A    between atoms: C_17  and  C_19
REMARK    6  A    between atoms: C_17  and  N_22
REMARK    7  A    between atoms: C_19  and  C_20
REMARK    8  A    between atoms: C_19  and  C_21
REMARK                            x       y       z     vdW  Elec       q    Type
REMARK                         _______ _______ _______ _____ _____    ______ ____
ROOT
ATOM      1  N   UNL     1       0.940   1.334   5.144  0.00  0.00    -0.235 N 
ATOM      2  C   UNL     1       0.733   0.005   5.242  0.00  0.00    +0.216 C 
ATOM      3  O   UNL     1       0.931  -0.711   4.283  0.00  0.00    -0.276 OA
ATOM      4  H   UNL     1       0.781   1.906   5.911  0.00  0.00    +0.173 HD
ENDROOT
BRANCH   1   7
ATOM      5  C   UNL     1       1.592   3.215   3.840  0.00  0.00    +0.296 C 
ATOM      6  O   UNL     1       1.393   3.933   4.801  0.00  0.00    -0.265 OA
ATOM      7  N   UNL     1       1.384   1.887   3.937  0.00  0.00    -0.228 N 
ATOM      8  H   UNL     1       1.543   1.314   3.170  0.00  0.00    +0.173 HD
BRANCH   5  18
ATOM      9  C   UNL     1       2.144   6.237   3.353  0.00  0.00    +0.048 C 
ATOM     10  C   UNL     1       2.300   5.115   2.359  0.00  0.00    +0.008 A 
ATOM     11  C   UNL     1       2.747   5.225   0.971  0.00  0.00    +0.024 A 
ATOM     12  C   UNL     1       3.146   6.289   0.158  0.00  0.00    +0.012 A 
ATOM     13  C   UNL     1       3.516   6.052  -1.135  0.00  0.00    +0.001 A 
ATOM     14  C   UNL     1       3.497   4.761  -1.647  0.00  0.00    +0.004 A 
ATOM     15  C   UNL     1       3.107   3.698  -0.861  0.00  0.00    +0.047 A 
ATOM     16  C   UNL     1       2.727   3.915   0.458  0.00  0.00    +0.136 A 
ATOM     17  O   UNL     1       2.308   3.098   1.444  0.00  0.00    -0.450 OA
ATOM     18  C   UNL     1       2.058   3.795   2.572  0.00  0.00    +0.195 A 
ENDBRANCH   5  18
ENDBRANCH   1   7
BRANCH   2  19
ATOM     19  C   UNL     1       0.255  -0.590   6.541  0.00  0.00    +0.023 C 
BRANCH  19  20
ATOM     20  N   UNL     1      -0.359  -1.899   6.283  0.00  0.00    +0.388 N 
ATOM     21  C   UNL     1      -1.334  -1.775   5.193  0.00  0.00    -0.078 C 
ATOM     22  C   UNL     1      -1.917  -3.152   4.866  0.00  0.00    -0.019 C 
ATOM     23  C   UNL     1      -2.609  -3.716   6.110  0.00  0.00    -0.004 C 
ATOM     24  C   UNL     1      -1.601  -3.771   7.262  0.00  0.00    -0.019 C 
ATOM     25  C   UNL     1      -1.030  -2.372   7.500  0.00  0.00    -0.078 C 
ATOM     26  H   UNL     1       0.357  -2.559   6.018  0.00  0.00    -0.081 HD
ENDBRANCH  19  20
BRANCH  19  27
ATOM     27  C   UNL     1       1.442  -0.761   7.491  0.00  0.00    -0.022 C 
ATOM     28  C   UNL     1       0.940  -0.779   8.936  0.00  0.00    +0.006 C 
ATOM     29  C   UNL     1       2.157  -2.078   7.182  0.00  0.00    +0.006 C 
ENDBRANCH  19  27
ENDBRANCH   2  19
TORSDOF 5
