REMARK  Name = ZINC42070055
REMARK  4 active torsions:
REMARK  status: ('A' for Active; 'I' for Inactive)
REMARK    1  A    between atoms: C_1  and  O_2
REMARK    2  A    between atoms: O_2  and  C_3
REMARK    3  A    between atoms: C_12  and  N_14
REMARK    4  A    between atoms: N_14  and  C_15
REMARK                            x       y       z     vdW  Elec       q    Type
REMARK                         _______ _______ _______ _____ _____    ______ ____
ROOT
ATOM      1  C   UNL     1       0.606  -0.607  -1.056  0.00  0.00    +0.122 A 
ATOM      2  C   UNL     1       1.172   0.165  -2.061  0.00  0.00    +0.046 A 
ATOM      3  C   UNL     1       1.786  -0.451  -3.136  0.00  0.00    +0.011 A 
ATOM      4  C   UNL     1       1.834  -1.826  -3.207  0.00  0.00    +0.003 A 
ATOM      5  C   UNL     1       1.272  -2.611  -2.208  0.00  0.00    +0.042 A 
ATOM      6  C   UNL     1       0.659  -1.989  -1.124  0.00  0.00    +0.069 A 
ATOM      7  N   UNL     1       1.447  -3.964  -2.502  0.00  0.00    -0.283 N 
ATOM      8  C   UNL     1       2.105  -4.152  -3.659  0.00  0.00    +0.242 C 
ATOM      9  O   UNL     1       2.395  -5.219  -4.158  0.00  0.00    -0.273 OA
ATOM     10  C   UNL     1       2.417  -2.782  -4.222  0.00  0.00    +0.190 C 
ATOM     11  H   UNL     1       1.131  -4.686  -1.937  0.00  0.00    +0.155 HD
ENDROOT
BRANCH   1  13
ATOM     12  C   UNL     1      -0.017   1.425   0.010  0.00  0.00    +0.277 C 
ATOM     13  O   UNL     1       0.002  -0.004   0.002  0.00  0.00    -0.495 OA
ENDBRANCH   1  13
BRANCH  10  14
ATOM     14  N   UNL     1       3.865  -2.591  -4.335  0.00  0.00    -0.327 N 
ATOM     15  H   UNL     1       4.364  -2.217  -3.593  0.00  0.00    +0.147 HD
BRANCH  14  16
ATOM     16  C   UNL     1       4.527  -2.948  -5.515  0.00  0.00    +0.064 A 
ATOM     17  C   UNL     1       3.813  -3.478  -6.581  0.00  0.00    +0.027 A 
ATOM     18  C   UNL     1       4.470  -3.830  -7.744  0.00  0.00    +0.022 A 
ATOM     19  C   UNL     1       5.838  -3.655  -7.849  0.00  0.00    +0.044 A 
ATOM     20  C   UNL     1       6.554  -3.126  -6.789  0.00  0.00    +0.060 A 
ATOM     21  C   UNL     1       5.902  -2.767  -5.624  0.00  0.00    +0.146 A 
ATOM     22  F   UNL     1       6.600  -2.247  -4.591  0.00  0.00    -0.204 F 
ATOM     23 CL   UNL     1       6.659  -4.099  -9.313  0.00  0.00    -0.083 Cl
ENDBRANCH  14  16
ENDBRANCH  10  14
TORSDOF 3
