REMARK  Name = ZINC38642244
REMARK  12 active torsions:
REMARK  status: ('A' for Active; 'I' for Inactive)
REMARK    1  A    between atoms: C_1  and  C_2
REMARK    2  A    between atoms: C_2  and  C_3
REMARK    3  A    between atoms: C_2  and  C_4
REMARK    4  A    between atoms: N_6  and  C_7
REMARK    5  A    between atoms: C_10  and  S_13
REMARK    6  A    between atoms: S_13  and  N_16
REMARK    7  A    between atoms: N_16  and  C_17
REMARK    8  A    between atoms: C_17  and  C_18
REMARK    9  A    between atoms: C_18  and  C_20
REMARK   10  A    between atoms: C_18  and  N_30
REMARK   11  A    between atoms: N_30  and  C_31
REMARK   12  A    between atoms: N_30  and  C_32
REMARK                            x       y       z     vdW  Elec       q    Type
REMARK                         _______ _______ _______ _____ _____    ______ ____
ROOT
ATOM      1  N   UNL     1       4.546  -0.733   7.553  0.00  0.00    -0.191 NA
ATOM      2  H   UNL     1       5.494  -0.885   7.411  0.00  0.00    +0.148 HD
ENDROOT
BRANCH   1   3
ATOM      3  S   UNL     1       3.474  -1.985   7.388  0.00  0.00    +0.058 S 
ATOM      4  O   UNL     1       2.648  -1.966   8.543  0.00  0.00    -0.153 OA
ATOM      5  O   UNL     1       4.236  -3.125   7.013  0.00  0.00    -0.153 OA
BRANCH   3   9
ATOM      6  C   UNL     1       0.799  -1.001   3.868  0.00  0.00    +0.034 A 
ATOM      7  C   UNL     1       1.976  -1.711   3.671  0.00  0.00    +0.025 A 
ATOM      8  C   UNL     1       2.790  -2.009   4.746  0.00  0.00    +0.030 A 
ATOM      9  C   UNL     1       2.434  -1.602   6.018  0.00  0.00    +0.105 A 
ATOM     10  C   UNL     1       1.262  -0.895   6.219  0.00  0.00    +0.030 A 
ATOM     11  C   UNL     1       0.447  -0.588   5.147  0.00  0.00    +0.025 A 
BRANCH   6  14
ATOM     12  C   UNL     1      -0.695   0.473   2.748  0.00  0.00    +0.220 C 
ATOM     13  O   UNL     1      -0.652   1.223   3.701  0.00  0.00    -0.275 OA
ATOM     14  N   UNL     1      -0.027  -0.697   2.781  0.00  0.00    -0.285 N 
ATOM     15  H   UNL     1      -0.120  -1.328   2.050  0.00  0.00    +0.155 HD
BRANCH  12  17
ATOM     16  C   UNL     1      -2.579  -0.200   1.284  0.00  0.00    +0.017 C 
ATOM     17  C   UNL     1      -1.495   0.851   1.528  0.00  0.00    +0.069 C 
ATOM     18  C   UNL     1      -2.149   2.216   1.750  0.00  0.00    +0.017 C 
ENDBRANCH  12  17
ENDBRANCH   6  14
ENDBRANCH   3   9
ENDBRANCH   1   3
BRANCH   1  19
ATOM     19  C   UNL     1       4.064   0.602   7.912  0.00  0.00    +0.095 C 
BRANCH  19  20
ATOM     20  C   UNL     1       5.236   1.452   8.406  0.00  0.00    -0.022 C 
BRANCH  20  21
ATOM     21  C   UNL     1       6.208   1.673   7.276  0.00  0.00    -0.052 A 
ATOM     22  C   UNL     1       7.283   0.851   7.128  0.00  0.00    +0.002 A 
ATOM     23  C   UNL     1       8.193   1.039   6.090  0.00  0.00    +0.001 A 
ATOM     24  C   UNL     1       8.032   2.050   5.193  0.00  0.00    +0.008 A 
ATOM     25  C   UNL     1       6.935   2.919   5.313  0.00  0.00    -0.018 A 
ATOM     26  C   UNL     1       6.006   2.724   6.366  0.00  0.00    -0.016 A 
ATOM     27  C   UNL     1       4.905   3.589   6.483  0.00  0.00    +0.009 A 
ATOM     28  C   UNL     1       4.742   4.597   5.582  0.00  0.00    +0.001 A 
ATOM     29  C   UNL     1       5.651   4.785   4.543  0.00  0.00    +0.001 A 
ATOM     30  C   UNL     1       6.736   3.975   4.407  0.00  0.00    +0.008 A 
ENDBRANCH  20  21
BRANCH  20  31
ATOM     31  N   UNL     1       5.915   0.757   9.508  0.00  0.00    +0.381 N 
ATOM     32  C   UNL     1       6.970   1.621  10.056  0.00  0.00    -0.096 C 
ATOM     33  C   UNL     1       4.942   0.443  10.563  0.00  0.00    -0.096 C 
ATOM     34  H   UNL     1       6.326  -0.098   9.164  0.00  0.00    -0.082 HD
ENDBRANCH  20  31
ENDBRANCH  19  20
ENDBRANCH   1  19
TORSDOF 8
