REMARK  Name = ZINC19926329
REMARK  8 active torsions:
REMARK  status: ('A' for Active; 'I' for Inactive)
REMARK    1  A    between atoms: C_4  and  S_7
REMARK    2  A    between atoms: S_7  and  N_10
REMARK    3  A    between atoms: N_10  and  C_11
REMARK    4  A    between atoms: N_10  and  C_28
REMARK    5  A    between atoms: C_11  and  C_12
REMARK    6  A    between atoms: N_14  and  N_15
REMARK    7  A    between atoms: C_16  and  C_17
REMARK    8  A    between atoms: C_26  and  O_27
REMARK                            x       y       z     vdW  Elec       q    Type
REMARK                         _______ _______ _______ _____ _____    ______ ____
ROOT
ATOM      1  C   UNL     1       3.954  -2.295   2.234  0.00  0.00    +0.229 C 
ENDROOT
BRANCH   1   2
ATOM      2  C   UNL     1       5.044  -3.332   2.141  0.00  0.00    +0.251 C 
ATOM      3  O   UNL     1       6.073  -3.080   1.550  0.00  0.00    -0.272 OA
ATOM      4  N   UNL     1       4.875  -4.540   2.715  0.00  0.00    -0.206 N 
ATOM      5  H   UNL     1       4.053  -4.742   3.188  0.00  0.00    +0.177 HD
BRANCH   4   6
ATOM      6  N   UNL     1       5.888  -5.504   2.629  0.00  0.00    -0.188 NA
ATOM      7  C   UNL     1       5.726  -6.669   3.182  0.00  0.00    +0.142 C 
BRANCH   7   8
ATOM      8  C   UNL     1       6.788  -7.680   3.092  0.00  0.00    +0.044 A 
ATOM      9  C   UNL     1       6.620  -8.997   3.703  0.00  0.00    -0.006 A 
ATOM     10  C   UNL     1       5.449  -9.339   4.391  0.00  0.00    +0.009 A 
ATOM     11  C   UNL     1       5.331 -10.578   4.947  0.00  0.00    +0.001 A 
ATOM     12  C   UNL     1       6.361 -11.510   4.840  0.00  0.00    +0.001 A 
ATOM     13  C   UNL     1       7.512 -11.211   4.178  0.00  0.00    +0.008 A 
ATOM     14  C   UNL     1       7.668  -9.943   3.592  0.00  0.00    -0.017 A 
ATOM     15  C   UNL     1       8.842  -9.598   2.900  0.00  0.00    +0.012 A 
ATOM     16  C   UNL     1       8.982  -8.369   2.337  0.00  0.00    +0.046 A 
ATOM     17  C   UNL     1       7.977  -7.406   2.416  0.00  0.00    +0.126 A 
BRANCH  17  18
ATOM     18  O   UNL     1       8.158  -6.193   1.834  0.00  0.00    -0.506 OA
ATOM     19  H   UNL     1       8.565  -5.535   2.414  0.00  0.00    +0.292 HD
ENDBRANCH  17  18
ENDBRANCH   7   8
ENDBRANCH   4   6
ENDBRANCH   1   2
BRANCH   1  20
ATOM     20  N   UNL     1       4.378  -1.079   1.536  0.00  0.00    -0.193 N 
BRANCH  20  21
ATOM     21  C   UNL     1       5.156  -0.126   2.200  0.00  0.00    +0.070 A 
ATOM     22  C   UNL     1       6.537  -0.265   2.245  0.00  0.00    +0.026 A 
ATOM     23  C   UNL     1       7.303   0.678   2.902  0.00  0.00    +0.002 A 
ATOM     24  C   UNL     1       6.697   1.759   3.515  0.00  0.00    +0.002 A 
ATOM     25  C   UNL     1       5.322   1.901   3.472  0.00  0.00    +0.022 A 
ATOM     26  C   UNL     1       4.550   0.964   2.812  0.00  0.00    +0.064 A 
ATOM     27 CL   UNL     1       2.824   1.146   2.753  0.00  0.00    -0.082 Cl
ENDBRANCH  20  21
BRANCH  20  28
ATOM     28  S   UNL     1       3.934  -0.832  -0.041  0.00  0.00    +0.075 S 
ATOM     29  O   UNL     1       3.674  -2.114  -0.595  0.00  0.00    -0.150 OA
ATOM     30  O   UNL     1       4.890   0.060  -0.597  0.00  0.00    -0.150 OA
BRANCH  28  34
ATOM     31  C   UNL     1      -0.017   1.378   0.010  0.00  0.00    +0.000 A 
ATOM     32  C   UNL     1       1.171   2.086   0.002  0.00  0.00    +0.002 A 
ATOM     33  C   UNL     1       2.377   1.411  -0.013  0.00  0.00    +0.029 A 
ATOM     34  C   UNL     1       2.396   0.029  -0.020  0.00  0.00    +0.109 A 
ATOM     35  C   UNL     1       1.208  -0.679  -0.012  0.00  0.00    +0.029 A 
ATOM     36  C   UNL     1       0.002  -0.004   0.002  0.00  0.00    +0.002 A 
ENDBRANCH  28  34
ENDBRANCH  20  28
ENDBRANCH   1  20
TORSDOF 8
