REMARK  Name = ZINC39389061
REMARK  12 active torsions:
REMARK  status: ('A' for Active; 'I' for Inactive)
REMARK    1  A    between atoms: C_1  and  C_2
REMARK    2  A    between atoms: C_2  and  C_3
REMARK    3  A    between atoms: C_8  and  N_9
REMARK    4  A    between atoms: C_10  and  C_12
REMARK    5  A    between atoms: C_16  and  N_17
REMARK    6  A    between atoms: C_18  and  C_20
REMARK    7  A    between atoms: C_20  and  O_21
REMARK    8  A    between atoms: O_21  and  C_22
REMARK    9  A    between atoms: C_30  and  C_34
REMARK   10  A    between atoms: C_34  and  C_35
REMARK   11  A    between atoms: C_34  and  C_36
REMARK   12  A    between atoms: C_34  and  C_37
REMARK                            x       y       z     vdW  Elec       q    Type
REMARK                         _______ _______ _______ _____ _____    ______ ____
ROOT
ATOM      1  C   UNL     1      -1.471  -0.279  -4.828  0.00  0.00    +0.069 A 
ATOM      2  C   UNL     1      -0.696  -1.308  -5.499  0.00  0.00    -0.023 A 
ATOM      3  C   UNL     1      -0.136  -0.909  -6.661  0.00  0.00    -0.004 A 
ATOM      4  S   UNL     1      -0.631   0.780  -6.841  0.00  0.00    -0.077 S 
ATOM      5  C   UNL     1      -1.547   0.960  -5.445  0.00  0.00    +0.085 A 
ATOM      6  C   UNL     1       0.716  -1.731  -7.578  0.00  0.00    +0.046 C 
ATOM      7  C   UNL     1       1.171  -2.985  -6.818  0.00  0.00    -0.000 C 
ATOM      8  C   UNL     1      -0.042  -3.616  -6.129  0.00  0.00    +0.009 C 
ATOM      9  C   UNL     1      -0.508  -2.725  -4.976  0.00  0.00    +0.037 C 
ENDROOT
BRANCH   1  11
ATOM     10  N   UNL     1      -1.506  -0.314  -2.391  0.00  0.00    -0.281 N 
ATOM     11  C   UNL     1      -2.148  -0.540  -3.554  0.00  0.00    +0.251 C 
ATOM     12  O   UNL     1      -3.289  -0.962  -3.547  0.00  0.00    -0.270 OA
ATOM     13  H   UNL     1      -0.621   0.083  -2.394  0.00  0.00    +0.155 HD
BRANCH  10  19
ATOM     14  C   UNL     1      -1.348  -1.119  -0.120  0.00  0.00    -0.026 A 
ATOM     15  C   UNL     1      -1.953  -1.446   1.078  0.00  0.00    +0.005 A 
ATOM     16  C   UNL     1      -3.322  -1.314   1.222  0.00  0.00    +0.000 A 
ATOM     17  C   UNL     1      -4.090  -0.854   0.168  0.00  0.00    +0.002 A 
ATOM     18  C   UNL     1      -3.491  -0.525  -1.032  0.00  0.00    +0.023 A 
ATOM     19  C   UNL     1      -2.116  -0.652  -1.179  0.00  0.00    +0.037 A 
BRANCH  14  21
ATOM     20  C   UNL     1       0.820   0.076   0.018  0.00  0.00    +0.009 C 
ATOM     21  C   UNL     1       0.143  -1.264  -0.276  0.00  0.00    +0.033 C 
ENDBRANCH  14  21
ENDBRANCH  10  19
ENDBRANCH   1  11
BRANCH   5  22
ATOM     22  N   UNL     1      -2.223   2.089  -5.009  0.00  0.00    -0.277 N 
ATOM     23  C   UNL     1      -2.190   3.220  -5.743  0.00  0.00    +0.255 C 
ATOM     24  O   UNL     1      -1.569   3.249  -6.784  0.00  0.00    -0.272 OA
ATOM     25  H   UNL     1      -2.720   2.066  -4.176  0.00  0.00    +0.155 HD
BRANCH  23  26
ATOM     26  C   UNL     1      -2.925   4.447  -5.269  0.00  0.00    +0.324 C 
BRANCH  26  27
ATOM     27  O   UNL     1      -2.740   5.506  -6.210  0.00  0.00    -0.483 OA
BRANCH  27  28
ATOM     28  C   UNL     1      -3.341   6.692  -5.931  0.00  0.00    +0.121 A 
ATOM     29  C   UNL     1      -4.090   6.836  -4.771  0.00  0.00    +0.047 A 
ATOM     30  C   UNL     1      -4.700   8.042  -4.489  0.00  0.00    +0.023 A 
ATOM     31  C   UNL     1      -4.567   9.107  -5.362  0.00  0.00    +0.041 A 
ATOM     32  C   UNL     1      -3.821   8.966  -6.519  0.00  0.00    +0.023 A 
ATOM     33  C   UNL     1      -3.203   7.763  -6.802  0.00  0.00    +0.047 A 
ATOM     34 CL   UNL     1      -5.336  10.622  -5.005  0.00  0.00    -0.084 Cl
ENDBRANCH  27  28
ENDBRANCH  26  27
ENDBRANCH  23  26
ENDBRANCH   5  22
BRANCH   7  35
ATOM     35  C   UNL     1       1.783  -3.986  -7.801  0.00  0.00    -0.035 C 
ATOM     36  C   UNL     1       2.987  -3.347  -8.496  0.00  0.00    +0.011 C 
ATOM     37  C   UNL     1       2.236  -5.235  -7.042  0.00  0.00    +0.011 C 
ATOM     38  C   UNL     1       0.738  -4.377  -8.848  0.00  0.00    +0.011 C 
ENDBRANCH   7  35
TORSDOF 8
