REMARK  Name = ZINC03521803
REMARK  7 active torsions:
REMARK  status: ('A' for Active; 'I' for Inactive)
REMARK    1  A    between atoms: C_1  and  C_2
REMARK    2  A    between atoms: C_5  and  C_32
REMARK    3  A    between atoms: C_6  and  N_8
REMARK    4  A    between atoms: C_17  and  S_18
REMARK    5  A    between atoms: S_18  and  C_19
REMARK    6  A    between atoms: C_19  and  C_21
REMARK    7  A    between atoms: C_19  and  C_22
REMARK                            x       y       z     vdW  Elec       q    Type
REMARK                         _______ _______ _______ _____ _____    ______ ____
ROOT
ATOM      1  N   UNL     1       1.158   2.448   0.004  0.00  0.00    -0.255 N 
ATOM      2  C   UNL     1       1.179   3.794   0.011  0.00  0.00    +0.268 A 
ATOM      3  O   UNL     1       2.239   4.396   0.004  0.00  0.00    -0.267 OA
ATOM      4  C   UNL     1      -0.061   4.509   0.026  0.00  0.00    +0.076 A 
ATOM      5  C   UNL     1      -0.272   5.957   0.035  0.00  0.00    -0.023 A 
ATOM      6  C   UNL     1      -1.549   6.390   0.048  0.00  0.00    -0.004 A 
ATOM      7  S   UNL     1      -2.534   4.916   0.050  0.00  0.00    -0.073 S 
ATOM      8  C   UNL     1      -1.223   3.719   0.033  0.00  0.00    +0.117 A 
ATOM      9  N   UNL     1      -1.177   2.392   0.021  0.00  0.00    -0.215 NA
ATOM     10  C   UNL     1      -0.022   1.758   0.012  0.00  0.00    +0.178 A 
ATOM     11  C   UNL     1      -2.026   7.810   0.060  0.00  0.00    +0.043 C 
ATOM     12  C   UNL     1      -0.843   8.716   0.428  0.00  0.00    +0.005 C 
ATOM     13  C   UNL     1       0.366   8.315  -0.423  0.00  0.00    +0.005 C 
ATOM     14  C   UNL     1       0.887   6.950   0.028  0.00  0.00    +0.037 C 
ENDROOT
BRANCH   1  20
ATOM     15  C   UNL     1       4.791   0.326  -2.542  0.00  0.00    +0.044 C 
ATOM     16  C   UNL     1       4.150   0.701  -1.230  0.00  0.00    -0.048 A 
ATOM     17  C   UNL     1       4.757   0.347  -0.039  0.00  0.00    +0.004 A 
ATOM     18  C   UNL     1       4.172   0.689   1.166  0.00  0.00    +0.005 A 
ATOM     19  C   UNL     1       2.979   1.386   1.184  0.00  0.00    -0.026 A 
ATOM     20  C   UNL     1       2.368   1.742  -0.010  0.00  0.00    +0.055 A 
ATOM     21  C   UNL     1       2.955   1.392  -1.219  0.00  0.00    +0.030 A 
ATOM     22  C   UNL     1       2.343   1.758   2.498  0.00  0.00    +0.046 C 
ENDBRANCH   1  20
BRANCH  10  23
ATOM     23  S   UNL     1       0.002  -0.004   0.002  0.00  0.00    -0.075 S 
BRANCH  23  24
ATOM     24  C   UNL     1      -1.776  -0.343   0.017  0.00  0.00    +0.137 C 
ATOM     25  C   UNL     1      -2.378   0.154   1.333  0.00  0.00    +0.029 C 
BRANCH  24  26
ATOM     26  C   UNL     1      -2.006  -1.826  -0.112  0.00  0.00    +0.233 C 
ATOM     27  O   UNL     1      -1.147  -2.606   0.240  0.00  0.00    -0.274 OA
ATOM     28  N   UNL     1      -3.167  -2.287  -0.620  0.00  0.00    -0.239 N 
ATOM     29  C   UNL     1      -3.372  -3.613  -0.736  0.00  0.00    +0.303 C 
ATOM     30  O   UNL     1      -2.511  -4.395  -0.383  0.00  0.00    -0.253 OA
ATOM     31  N   UNL     1      -4.533  -4.074  -1.243  0.00  0.00    -0.313 N 
ATOM     32  H   UNL     1      -3.854  -1.663  -0.902  0.00  0.00    +0.159 HD
ATOM     33  H   UNL     1      -5.220  -3.450  -1.525  0.00  0.00    +0.146 HD
ATOM     34  H   UNL     1      -4.681  -5.029  -1.327  0.00  0.00    +0.146 HD
ENDBRANCH  24  26
ENDBRANCH  23  24
ENDBRANCH  10  23
TORSDOF 4
