REMARK  Name = ZINC16049311
REMARK  5 active torsions:
REMARK  status: ('A' for Active; 'I' for Inactive)
REMARK    1  A    between atoms: C_10  and  S_19
REMARK    2  A    between atoms: N_11  and  C_14
REMARK    3  A    between atoms: S_19  and  C_20
REMARK    4  A    between atoms: C_20  and  C_21
REMARK    5  A    between atoms: N_26  and  C_27
REMARK                            x       y       z     vdW  Elec       q    Type
REMARK                         _______ _______ _______ _____ _____    ______ ____
ROOT
ATOM      1  C   UNL     1       5.845  -1.427   1.092  0.00  0.00    +0.005 C 
ATOM      2  C   UNL     1       5.752  -2.682   0.220  0.00  0.00    +0.005 C 
ATOM      3  C   UNL     1       4.358  -3.301   0.395  0.00  0.00    +0.043 C 
ATOM      4  C   UNL     1       3.337  -2.212   0.263  0.00  0.00    -0.004 A 
ATOM      5  C   UNL     1       3.552  -0.881   0.307  0.00  0.00    -0.023 A 
ATOM      6  C   UNL     1       2.383  -0.014   0.152  0.00  0.00    +0.076 A 
ATOM      7  C   UNL     1       1.153  -0.668  -0.027  0.00  0.00    +0.117 A 
ATOM      8  S   UNL     1       1.591  -2.388   0.015  0.00  0.00    -0.073 S 
ATOM      9  N   UNL     1       0.014  -0.003  -0.179  0.00  0.00    -0.216 NA
ATOM     10  C   UNL     1      -0.004   1.315  -0.167  0.00  0.00    +0.173 A 
ATOM     11  N   UNL     1       1.146   2.030   0.002  0.00  0.00    -0.284 N 
ATOM     12  C   UNL     1       2.333   1.416   0.161  0.00  0.00    +0.263 A 
ATOM     13  O   UNL     1       3.351   2.070   0.311  0.00  0.00    -0.267 OA
ATOM     14  C   UNL     1       4.958  -0.325   0.512  0.00  0.00    +0.037 C 
ENDROOT
BRANCH  11  15
ATOM     15  C   UNL     1       1.087   3.494   0.010  0.00  0.00    +0.093 C 
ATOM     16  C   UNL     1       1.942   4.064  -1.140  0.00  0.00    +0.025 C 
ATOM     17  C   UNL     1       2.581   5.342  -0.541  0.00  0.00    +0.002 C 
ATOM     18  C   UNL     1       2.889   4.920   0.917  0.00  0.00    +0.002 C 
ATOM     19  C   UNL     1       1.689   4.038   1.318  0.00  0.00    +0.025 C 
ENDBRANCH  11  15
BRANCH  10  20
ATOM     20  S   UNL     1      -1.533   2.165  -0.379  0.00  0.00    -0.078 S 
BRANCH  20  21
ATOM     21  C   UNL     1      -2.654   0.755  -0.558  0.00  0.00    +0.173 C 
BRANCH  21  22
ATOM     22  C   UNL     1      -4.062   1.255  -0.756  0.00  0.00    +0.231 C 
ATOM     23  O   UNL     1      -4.285   2.447  -0.775  0.00  0.00    -0.274 OA
ATOM     24  N   UNL     1      -5.073   0.378  -0.912  0.00  0.00    -0.239 N 
ATOM     25  C   UNL     1      -6.332   0.825  -1.090  0.00  0.00    +0.306 C 
ATOM     26  O   UNL     1      -6.556   2.019  -1.109  0.00  0.00    -0.252 OA
ATOM     27  N   UNL     1      -7.343  -0.052  -1.246  0.00  0.00    -0.296 N 
ATOM     28  H   UNL     1      -4.894  -0.575  -0.897  0.00  0.00    +0.159 HD
ATOM     29  H   UNL     1      -7.165  -1.006  -1.231  0.00  0.00    +0.151 HD
BRANCH  27  30
ATOM     30  C   UNL     1      -8.712   0.433  -1.439  0.00  0.00    +0.074 C 
ATOM     31  C   UNL     1      -9.395   0.644  -0.072  0.00  0.00    +0.022 C 
ATOM     32  C   UNL     1     -10.861   0.205  -0.309  0.00  0.00    +0.002 C 
ATOM     33  C   UNL     1     -10.705  -1.014  -1.252  0.00  0.00    +0.002 C 
ATOM     34  C   UNL     1      -9.544  -0.621  -2.189  0.00  0.00    +0.022 C 
ENDBRANCH  27  30
ENDBRANCH  21  22
ENDBRANCH  20  21
ENDBRANCH  10  20
TORSDOF 5
