REMARK  Name = ZINC61519106
REMARK  3 active torsions:
REMARK  status: ('A' for Active; 'I' for Inactive)
REMARK    1  A    between atoms: C_1  and  O_2
REMARK    2  A    between atoms: O_2  and  C_3
REMARK    3  A    between atoms: C_8  and  N_10
REMARK                            x       y       z     vdW  Elec       q    Type
REMARK                         _______ _______ _______ _____ _____    ______ ____
ROOT
ATOM      1  N   UNL     1       0.106  -2.239  -1.180  0.00  0.00    -0.308 N 
ATOM      2  C   UNL     1       0.304  -3.087  -2.250  0.00  0.00    +0.221 A 
ATOM      3  N   UNL     1      -0.738  -3.653  -2.854  0.00  0.00    -0.184 NA
ATOM      4  C   UNL     1      -0.545  -4.465  -3.879  0.00  0.00    +0.228 A 
ATOM      5  N   UNL     1       0.684  -4.716  -4.305  0.00  0.00    -0.187 NA
ATOM      6  C   UNL     1       1.723  -4.155  -3.706  0.00  0.00    +0.228 A 
ATOM      7  N   UNL     1       1.536  -3.337  -2.684  0.00  0.00    -0.184 NA
ATOM      8 CL   UNL     1       3.331  -4.488  -4.267  0.00  0.00    -0.041 Cl
ATOM      9 CL   UNL     1      -1.904  -5.204  -4.667  0.00  0.00    -0.041 Cl
ATOM     10  H   UNL     1       0.866  -1.824  -0.743  0.00  0.00    +0.149 HD
ENDROOT
BRANCH   1  15
ATOM     11  C   UNL     1      -1.295  -0.603   0.011  0.00  0.00    +0.138 C 
ATOM     12  C   UNL     1      -1.739  -0.880   1.462  0.00  0.00    +0.033 C 
ATOM     13  C   UNL     1      -2.501  -2.226   1.376  0.00  0.00    +0.004 C 
ATOM     14  C   UNL     1      -1.671  -3.023   0.339  0.00  0.00    +0.025 C 
ATOM     15  C   UNL     1      -1.252  -1.965  -0.704  0.00  0.00    +0.102 C 
BRANCH  11  17
ATOM     16  C   UNL     1      -0.017   1.425   0.010  0.00  0.00    +0.194 C 
ATOM     17  O   UNL     1       0.002  -0.004   0.002  0.00  0.00    -0.378 OA
ENDBRANCH  11  17
ENDBRANCH   1  15
TORSDOF 2
