REMARK  Name = ZINC63948451
REMARK  7 active torsions:
REMARK  status: ('A' for Active; 'I' for Inactive)
REMARK    1  A    between atoms: N_4  and  C_6
REMARK    2  A    between atoms: C_12  and  C_16
REMARK    3  A    between atoms: N_18  and  C_19
REMARK    4  A    between atoms: C_19  and  C_20
REMARK    5  A    between atoms: N_22  and  C_23
REMARK    6  A    between atoms: C_23  and  C_24
REMARK    7  A    between atoms: C_24  and  C_25
REMARK                            x       y       z     vdW  Elec       q    Type
REMARK                         _______ _______ _______ _____ _____    ______ ____
ROOT
ATOM      1  C   UNL     1      -1.381  -6.650  -2.875  0.00  0.00    +0.244 C 
ATOM      2  O   UNL     1      -1.000  -6.698  -4.029  0.00  0.00    -0.270 OA
ATOM      3  N   UNL     1      -2.302  -7.530  -2.433  0.00  0.00    -0.303 N 
ATOM      4  H   UNL     1      -2.606  -7.492  -1.512  0.00  0.00    +0.150 HD
ENDROOT
BRANCH   1  10
ATOM      5  C   UNL     1       1.760  -1.804  -0.025  0.00  0.00    +0.237 C 
ATOM      6  N   UNL     1       0.767  -2.693   0.594  0.00  0.00    -0.314 N 
ATOM      7  C   UNL     1       0.203  -3.681  -0.200  0.00  0.00    +0.043 A 
ATOM      8  C   UNL     1      -0.761  -4.619   0.225  0.00  0.00    +0.025 A 
ATOM      9  C   UNL     1      -1.264  -5.563  -0.631  0.00  0.00    +0.015 A 
ATOM     10  C   UNL     1      -0.836  -5.630  -1.960  0.00  0.00    +0.038 A 
ATOM     11  C   UNL     1       0.121  -4.710  -2.404  0.00  0.00    +0.029 A 
ATOM     12  C   UNL     1       0.615  -3.769  -1.537  0.00  0.00    +0.033 A 
ATOM     13  S   UNL     1       1.813  -2.468  -1.738  0.00  0.00    -0.079 S 
ATOM     14  H   UNL     1       0.514  -2.592   1.525  0.00  0.00    +0.149 HD
BRANCH   5  18
ATOM     15  C   UNL     1      -0.016   1.344   0.009  0.00  0.00    +0.019 A 
ATOM     16  C   UNL     1       1.322   1.784  -0.001  0.00  0.00    +0.019 A 
ATOM     17  C   UNL     1       2.107   0.688  -0.014  0.00  0.00    +0.088 A 
ATOM     18  N   UNL     1       1.303  -0.413  -0.013  0.00  0.00    -0.326 N 
ATOM     19  C   UNL     1       0.002  -0.004   0.002  0.00  0.00    +0.088 A 
ENDBRANCH   5  18
ENDBRANCH   1  10
BRANCH   3  20
ATOM     20  C   UNL     1      -2.843  -8.543  -3.342  0.00  0.00    +0.200 C 
BRANCH  20  21
ATOM     21  C   UNL     1      -3.846  -9.394  -2.606  0.00  0.00    +0.230 C 
ATOM     22  O   UNL     1      -4.085  -9.176  -1.437  0.00  0.00    -0.274 OA
ATOM     23  N   UNL     1      -4.477 -10.398  -3.247  0.00  0.00    -0.314 N 
ATOM     24  H   UNL     1      -4.286 -10.573  -4.182  0.00  0.00    +0.149 HD
BRANCH  23  25
ATOM     25  C   UNL     1      -5.452 -11.225  -2.531  0.00  0.00    +0.108 C 
BRANCH  25  26
ATOM     26  C   UNL     1      -6.017 -12.283  -3.481  0.00  0.00    +0.052 C 
BRANCH  26  27
ATOM     27  C   UNL     1      -7.020 -13.134  -2.745  0.00  0.00    -0.040 C 
ATOM     28  C   UNL     1      -8.362 -12.969  -2.718  0.00  0.00    +0.000 A 
ATOM     29  C   UNL     1      -9.255 -11.986  -3.341  0.00  0.00    +0.030 A 
ATOM     30  C   UNL     1     -10.588 -12.079  -3.124  0.00  0.00    +0.042 A 
ATOM     31  C   UNL     1     -11.134 -13.091  -2.320  0.00  0.00    +0.022 A 
ATOM     32  C   UNL     1     -10.377 -14.030  -1.715  0.00  0.00    +0.027 A 
ATOM     33  C   UNL     1      -8.964 -14.027  -1.875  0.00  0.00    +0.043 A 
ATOM     34  N   UNL     1      -8.030 -14.815  -1.399  0.00  0.00    -0.380 N 
ATOM     35  C   UNL     1      -6.729 -14.349  -1.893  0.00  0.00    +0.144 C 
ATOM     36 CL   UNL     1     -11.648 -10.918  -3.859  0.00  0.00    -0.084 Cl
ATOM     37  H   UNL     1      -8.176 -15.579  -0.821  0.00  0.00    +0.160 HD
ENDBRANCH  26  27
ENDBRANCH  25  26
ENDBRANCH  23  25
ENDBRANCH  20  21
ENDBRANCH   3  20
TORSDOF 7
