REMARK  Name = ZINC15945285
REMARK  8 active torsions:
REMARK  status: ('A' for Active; 'I' for Inactive)
REMARK    1  A    between atoms: C_1  and  O_2
REMARK    2  A    between atoms: O_2  and  C_3
REMARK    3  A    between atoms: C_5  and  C_18
REMARK    4  A    between atoms: C_8  and  O_9
REMARK    5  A    between atoms: O_9  and  C_10
REMARK    6  A    between atoms: C_10  and  C_12
REMARK    7  A    between atoms: C_29  and  C_30
REMARK    8  A    between atoms: C_29  and  N_65
REMARK                            x       y       z     vdW  Elec       q    Type
REMARK                         _______ _______ _______ _____ _____    ______ ____
ROOT
ATOM      1  C   UNL     1      -0.040   0.468   5.328  0.00  0.00    +0.190 C 
ATOM      2  N   UNL     1      -1.252   1.168   4.867  0.00  0.00    -0.316 N 
ATOM      3  C   UNL     1      -1.274   1.562   3.554  0.00  0.00    +0.080 A 
ATOM      4  C   UNL     1      -0.492   0.952   2.560  0.00  0.00    +0.068 A 
ATOM      5  C   UNL     1      -0.643   1.489   1.220  0.00  0.00    -0.027 A 
ATOM      6  C   UNL     1      -1.517   2.515   1.093  0.00  0.00    -0.021 A 
ATOM      7  S   UNL     1      -2.148   2.781   2.727  0.00  0.00    -0.080 S 
ATOM      8  C   UNL     1      -1.855   3.245  -0.168  0.00  0.00    -0.035 C 
ATOM      9  C   UNL     1      -0.627   1.462  -1.256  0.00  0.00    -0.073 C 
ATOM     10  C   UNL     1       0.105   0.971  -0.004  0.00  0.00    +0.018 C 
ATOM     11  C   UNL     1       0.396  -0.159   2.974  0.00  0.00    +0.248 C 
ATOM     12  O   UNL     1       1.019  -0.810   2.157  0.00  0.00    -0.270 OA
ATOM     13  N   UNL     1       0.485  -0.419   4.295  0.00  0.00    -0.289 N 
ATOM     14  H   UNL     1      -1.998   1.341   5.462  0.00  0.00    +0.149 HD
ATOM     15  H   UNL     1       0.922  -1.239   4.573  0.00  0.00    +0.151 HD
ATOM     16  N   UNL     1      -0.811   2.926  -1.172  0.00  0.00    +0.386 N 
ATOM     17  H   UNL     1       0.074   3.358  -0.883  0.00  0.00    -0.081 HD
ENDROOT
BRANCH   1  20
ATOM     18  C   UNL     1       3.320   2.108   5.870  0.00  0.00    +0.163 A 
ATOM     19  C   UNL     1       2.351   1.171   5.549  0.00  0.00    +0.056 A 
ATOM     20  C   UNL     1       1.012   1.487   5.684  0.00  0.00    -0.006 A 
ATOM     21  C   UNL     1       0.636   2.733   6.151  0.00  0.00    +0.011 A 
ATOM     22  C   UNL     1       1.598   3.670   6.479  0.00  0.00    +0.050 A 
ATOM     23  C   UNL     1       2.942   3.362   6.340  0.00  0.00    +0.173 A 
BRANCH  18  25
ATOM     24  C   UNL     1       4.952   0.495   5.245  0.00  0.00    +0.277 C 
ATOM     25  O   UNL     1       4.638   1.801   5.733  0.00  0.00    -0.491 OA
ENDBRANCH  18  25
BRANCH  23  26
ATOM     26  O   UNL     1       3.889   4.284   6.662  0.00  0.00    -0.419 OA
BRANCH  26  27
ATOM     27  C   UNL     1       4.426   4.988   5.647  0.00  0.00    +0.345 C 
ATOM     28  O   UNL     1       3.993   4.857   4.520  0.00  0.00    -0.245 OA
BRANCH  27  29
ATOM     29  C   UNL     1       5.543   5.920   5.905  0.00  0.00    +0.059 A 
ATOM     30  C   UNL     1       6.041   6.077   7.200  0.00  0.00    +0.015 A 
ATOM     31  C   UNL     1       7.088   6.944   7.433  0.00  0.00    +0.001 A 
ATOM     32  C   UNL     1       7.637   7.667   6.389  0.00  0.00    +0.000 A 
ATOM     33  C   UNL     1       7.146   7.520   5.104  0.00  0.00    +0.001 A 
ATOM     34  C   UNL     1       6.103   6.651   4.856  0.00  0.00    +0.015 A 
ENDBRANCH  27  29
ENDBRANCH  26  27
ENDBRANCH  23  26
ENDBRANCH   1  20
BRANCH  16  35
ATOM     35  C   UNL     1      -1.199   3.463  -2.494  0.00  0.00    -0.043 C 
BRANCH  35  36
ATOM     36  C   UNL     1      -1.163   4.969  -2.438  0.00  0.00    -0.064 A 
ATOM     37  C   UNL     1      -2.300   5.675  -2.091  0.00  0.00    +0.002 A 
ATOM     38  C   UNL     1      -2.267   7.056  -2.035  0.00  0.00    +0.000 A 
ATOM     39  C   UNL     1      -1.098   7.731  -2.335  0.00  0.00    +0.000 A 
ATOM     40  C   UNL     1       0.037   7.025  -2.687  0.00  0.00    +0.000 A 
ATOM     41  C   UNL     1       0.004   5.644  -2.738  0.00  0.00    +0.002 A 
ENDBRANCH  35  36
ENDBRANCH  16  35
TORSDOF 7
