REMARK  Name = ZINC28057985
REMARK  4 active torsions:
REMARK  status: ('A' for Active; 'I' for Inactive)
REMARK    1  A    between atoms: C_1  and  O_2
REMARK    2  A    between atoms: O_2  and  C_3
REMARK    3  A    between atoms: C_8  and  C_9
REMARK    4  A    between atoms: C_20  and  C_22
REMARK                            x       y       z     vdW  Elec       q    Type
REMARK                         _______ _______ _______ _____ _____    ______ ____
ROOT
ATOM      1  C   UNL     1      -2.113   2.559   3.974  0.00  0.00    +0.177 C 
ATOM      2  C   UNL     1      -1.747   3.958   4.404  0.00  0.00    +0.026 C 
ATOM      3  C   UNL     1      -2.202   4.500   5.536  0.00  0.00    +0.050 C 
ATOM      4  C   UNL     1      -1.793   5.885   5.870  0.00  0.00    +0.038 A 
ATOM      5  C   UNL     1      -1.931   6.394   7.155  0.00  0.00    +0.013 A 
ATOM      6  C   UNL     1      -1.543   7.694   7.418  0.00  0.00    +0.001 A 
ATOM      7  C   UNL     1      -1.020   8.484   6.409  0.00  0.00    +0.004 A 
ATOM      8  C   UNL     1      -0.877   7.984   5.127  0.00  0.00    +0.046 A 
ATOM      9  C   UNL     1      -1.260   6.685   4.851  0.00  0.00    +0.131 A 
ATOM     10  O   UNL     1      -1.134   6.156   3.607  0.00  0.00    -0.479 OA
ATOM     11  C   UNL     1      -0.822   4.766   3.522  0.00  0.00    +0.234 C 
ATOM     12  N   UNL     1      -3.053   3.808   6.406  0.00  0.00    -0.282 N 
ATOM     13  C   UNL     1      -3.644   2.650   5.928  0.00  0.00    +0.240 A 
ATOM     14  N   UNL     1      -3.214   2.060   4.785  0.00  0.00    -0.201 N 
ATOM     15  N   UNL     1      -4.035   0.944   4.611  0.00  0.00    -0.042 NA
ATOM     16  N   UNL     1      -4.856   0.933   5.610  0.00  0.00    -0.021 NA
ATOM     17  N   UNL     1      -4.629   1.935   6.390  0.00  0.00    -0.092 NA
ATOM     18  H   UNL     1      -3.229   4.190   7.423  0.00  0.00    +0.155 HD
ENDROOT
BRANCH  11  19
ATOM     19  C   UNL     1       0.602   4.549   3.964  0.00  0.00    -0.003 A 
ATOM     20  C   UNL     1       1.448   3.760   3.207  0.00  0.00    +0.008 A 
ATOM     21  C   UNL     1       2.756   3.564   3.609  0.00  0.00    +0.015 A 
ATOM     22  C   UNL     1       3.215   4.149   4.775  0.00  0.00    +0.018 A 
ATOM     23  C   UNL     1       2.367   4.934   5.535  0.00  0.00    +0.015 A 
ATOM     24  C   UNL     1       1.061   5.134   5.129  0.00  0.00    +0.008 A 
ATOM     25 BR   UNL     1       5.002   3.876   5.331  0.00  0.00    -0.050 Br
ENDBRANCH  11  19
BRANCH   1  31
ATOM     26  C   UNL     1      -0.383   1.000   3.045  0.00  0.00    +0.126 A 
ATOM     27  C   UNL     1       0.713   0.165   3.205  0.00  0.00    +0.046 A 
ATOM     28  C   UNL     1       1.275  -0.004   4.455  0.00  0.00    +0.004 A 
ATOM     29  C   UNL     1       0.740   0.652   5.549  0.00  0.00    +0.001 A 
ATOM     30  C   UNL     1      -0.355   1.481   5.393  0.00  0.00    +0.009 A 
ATOM     31  C   UNL     1      -0.918   1.656   4.143  0.00  0.00    +0.023 A 
BRANCH  26  33
ATOM     32  C   UNL     1      -0.331   0.464   0.729  0.00  0.00    +0.277 C 
ATOM     33  O   UNL     1      -0.935   1.171   1.814  0.00  0.00    -0.495 OA
ENDBRANCH  26  33
ENDBRANCH   1  31
TORSDOF 3
