REMARK  Name = ZINC57333081
REMARK  6 active torsions:
REMARK  status: ('A' for Active; 'I' for Inactive)
REMARK    1  A    between atoms: C_1  and  C_2
REMARK    2  A    between atoms: C_2  and  C_3
REMARK    3  A    between atoms: C_3  and  C_27
REMARK    4  A    between atoms: N_6  and  C_10
REMARK    5  A    between atoms: C_10  and  C_11
REMARK    6  A    between atoms: N_13  and  C_14
REMARK                            x       y       z     vdW  Elec       q    Type
REMARK                         _______ _______ _______ _____ _____    ______ ____
ROOT
ATOM      1  C   UNL     1      -1.248  -3.892   2.916  0.00  0.00    +0.235 C 
ATOM      2  O   UNL     1      -0.319  -3.126   3.062  0.00  0.00    -0.274 OA
ATOM      3  N   UNL     1      -1.268  -5.062   3.584  0.00  0.00    -0.284 N 
ATOM      4  H   UNL     1      -2.041  -5.644   3.520  0.00  0.00    +0.155 HD
ENDROOT
BRANCH   3   5
ATOM      5  C   UNL     1      -0.173  -5.438   4.370  0.00  0.00    +0.034 A 
ATOM      6  C   UNL     1       0.196  -6.775   4.454  0.00  0.00    +0.024 A 
ATOM      7  C   UNL     1       1.274  -7.149   5.227  0.00  0.00    +0.010 A 
ATOM      8  C   UNL     1       1.999  -6.183   5.929  0.00  0.00    -0.014 A 
ATOM      9  C   UNL     1       1.624  -4.845   5.840  0.00  0.00    -0.034 A 
ATOM     10  C   UNL     1       0.549  -4.473   5.062  0.00  0.00    +0.028 A 
ATOM     11  C   UNL     1       2.579  -4.047   6.694  0.00  0.00    +0.071 C 
ATOM     12  C   UNL     1       3.542  -5.045   7.287  0.00  0.00    -0.035 A 
ATOM     13  C   UNL     1       3.180  -6.306   6.819  0.00  0.00    -0.014 A 
ATOM     14  C   UNL     1       3.916  -7.423   7.220  0.00  0.00    +0.009 A 
ATOM     15  C   UNL     1       4.991  -7.269   8.071  0.00  0.00    +0.001 A 
ATOM     16  C   UNL     1       5.344  -6.013   8.530  0.00  0.00    +0.000 A 
ATOM     17  C   UNL     1       4.618  -4.902   8.137  0.00  0.00    +0.004 A 
ENDBRANCH   3   5
BRANCH   1  18
ATOM     18  C   UNL     1      -2.380  -3.535   1.988  0.00  0.00    +0.214 C 
BRANCH  18  22
ATOM     19  C   UNL     1      -1.436  -0.537   0.008  0.00  0.00    +0.110 C 
ATOM     20  C   UNL     1      -1.455  -2.036   0.234  0.00  0.00    +0.247 C 
ATOM     21  O   UNL     1      -0.968  -2.890  -0.477  0.00  0.00    -0.273 OA
ATOM     22  N   UNL     1      -2.124  -2.223   1.388  0.00  0.00    -0.215 N 
ATOM     23  C   UNL     1      -2.527  -1.062   1.918  0.00  0.00    +0.310 C 
ATOM     24  O   UNL     1      -3.150  -0.975   2.958  0.00  0.00    -0.252 OA
ATOM     25  N   UNL     1      -2.166  -0.004   1.171  0.00  0.00    -0.285 N 
ATOM     26  C   UNL     1      -2.158  -0.176  -1.292  0.00  0.00    +0.041 C 
ATOM     27  H   UNL     1      -2.350   0.930   1.362  0.00  0.00    +0.151 HD
BRANCH  19  29
ATOM     28  C   UNL     1      -0.013   1.516  -0.006  0.00  0.00    +0.006 C 
ATOM     29  C   UNL     1       0.001  -0.014  -0.012  0.00  0.00    +0.031 C 
ENDBRANCH  19  29
ENDBRANCH  18  22
ENDBRANCH   1  18
TORSDOF 4
