REMARK  Name = ZINC20763567
REMARK  9 active torsions:
REMARK  status: ('A' for Active; 'I' for Inactive)
REMARK    1  A    between atoms: C_1  and  C_2
REMARK    2  A    between atoms: C_2  and  C_3
REMARK    3  A    between atoms: C_3  and  C_5
REMARK    4  A    between atoms: C_3  and  C_6
REMARK    5  A    between atoms: C_6  and  C_8
REMARK    6  A    between atoms: C_6  and  N_12
REMARK    7  A    between atoms: C_8  and  O_10
REMARK    8  A    between atoms: O_10  and  C_11
REMARK    9  A    between atoms: C_24  and  C_26
REMARK                            x       y       z     vdW  Elec       q    Type
REMARK                         _______ _______ _______ _____ _____    ______ ____
ROOT
ATOM      1  N   UNL     1       2.757  -2.154   1.667  0.00  0.00    -0.286 N 
ATOM      2  C   UNL     1       2.717  -1.147   2.563  0.00  0.00    +0.304 C 
ATOM      3  O   UNL     1       2.345  -0.042   2.219  0.00  0.00    -0.253 OA
ATOM      4  N   UNL     1       3.090  -1.366   3.839  0.00  0.00    -0.273 N 
ATOM      5  C   UNL     1       2.943  -0.317   4.859  0.00  0.00    +0.116 C 
ATOM      6  C   UNL     1       1.934  -0.780   5.917  0.00  0.00    +0.076 C 
ATOM      7  C   UNL     1       2.246  -2.206   6.296  0.00  0.00    +0.066 A 
ATOM      8  C   UNL     1       3.006  -3.043   5.556  0.00  0.00    +0.064 A 
ATOM      9  N   UNL     1       3.054  -4.232   6.215  0.00  0.00    -0.346 N 
ATOM     10  H   UNL     1       3.524  -5.031   5.929  0.00  0.00    +0.167 HD
ATOM     11  C   UNL     1       2.324  -4.088   7.345  0.00  0.00    +0.197 A 
ATOM     12  N   UNL     1       1.845  -2.872   7.383  0.00  0.00    -0.240 NA
ATOM     13  C   UNL     1       3.652  -2.666   4.251  0.00  0.00    +0.156 C 
ATOM     14  H   UNL     1       2.984  -3.051   1.956  0.00  0.00    +0.151 HD
ENDROOT
BRANCH  13  15
ATOM     15  C   UNL     1       5.142  -2.546   4.437  0.00  0.00    -0.017 A 
ATOM     16  C   UNL     1       5.650  -1.709   5.413  0.00  0.00    +0.009 A 
ATOM     17  C   UNL     1       7.017  -1.595   5.588  0.00  0.00    +0.050 A 
ATOM     18  C   UNL     1       7.881  -2.320   4.784  0.00  0.00    +0.166 A 
ATOM     19  C   UNL     1       7.370  -3.163   3.800  0.00  0.00    +0.167 A 
ATOM     20  C   UNL     1       5.999  -3.276   3.635  0.00  0.00    +0.055 A 
ATOM     21  O   UNL     1       8.412  -3.759   3.151  0.00  0.00    -0.453 OA
ATOM     22  C   UNL     1       9.569  -2.964   3.472  0.00  0.00    +0.466 C 
ATOM     23  O   UNL     1       9.244  -2.388   4.750  0.00  0.00    -0.453 OA
ENDBRANCH  13  15
BRANCH   1  24
ATOM     24  C   UNL     1       2.457  -1.891   0.257  0.00  0.00    +0.186 C 
BRANCH  24  25
ATOM     25  C   UNL     1       3.724  -1.406  -0.452  0.00  0.00    +0.017 C 
ATOM     26  C   UNL     1       4.855  -2.410  -0.218  0.00  0.00    +0.010 C 
BRANCH  25  28
ATOM     27  C   UNL     1       3.069   0.997  -0.264  0.00  0.00    +0.004 C 
ATOM     28  C   UNL     1       4.129  -0.041   0.107  0.00  0.00    +0.002 C 
ENDBRANCH  25  28
ENDBRANCH  24  25
BRANCH  24  29
ATOM     29  C   UNL     1       1.970  -3.159  -0.397  0.00  0.00    +0.328 C 
ATOM     30  O   UNL     1       2.225  -4.231   0.098  0.00  0.00    -0.249 OA
BRANCH  29  31
ATOM     31  O   UNL     1       1.252  -3.096  -1.529  0.00  0.00    -0.467 OA
ATOM     32  C   UNL     1       0.732  -4.327  -2.037  0.00  0.00    +0.280 C 
ENDBRANCH  29  31
ENDBRANCH  24  29
ENDBRANCH   1  24
TORSDOF 6
