REMARK  Name = ZINC64012462
REMARK  8 active torsions:
REMARK  status: ('A' for Active; 'I' for Inactive)
REMARK    1  A    between atoms: C_1  and  C_2
REMARK    2  A    between atoms: C_2  and  C_3
REMARK    3  A    between atoms: C_3  and  N_4
REMARK    4  A    between atoms: N_4  and  C_5
REMARK    5  A    between atoms: N_4  and  S_18
REMARK    6  A    between atoms: C_5  and  C_6
REMARK    7  A    between atoms: N_8  and  C_9
REMARK    8  A    between atoms: S_18  and  C_21
REMARK                            x       y       z     vdW  Elec       q    Type
REMARK                         _______ _______ _______ _____ _____    ______ ____
ROOT
ATOM      1  N   UNL     1       0.754  -1.998   1.244  0.00  0.00    -0.168 NA
ENDROOT
BRANCH   1   2
ATOM      2  S   UNL     1      -0.393  -2.852   2.080  0.00  0.00    +0.061 S 
ATOM      3  O   UNL     1       0.175  -4.123   2.365  0.00  0.00    -0.153 OA
ATOM      4  O   UNL     1      -0.878  -1.989   3.100  0.00  0.00    -0.153 OA
BRANCH   2   5
ATOM      5  C   UNL     1      -1.738  -3.136   0.978  0.00  0.00    +0.107 A 
ATOM      6  C   UNL     1      -2.778  -2.188   0.909  0.00  0.00    +0.030 A 
ATOM      7  C   UNL     1      -3.838  -2.348   0.085  0.00  0.00    +0.027 A 
ATOM      8  C   UNL     1      -3.916  -3.499  -0.741  0.00  0.00    +0.055 A 
ATOM      9  N   UNL     1      -4.935  -3.681  -1.554  0.00  0.00    -0.276 N 
ATOM     10  C   UNL     1      -4.987  -4.783  -2.330  0.00  0.00    +0.304 C 
ATOM     11  O   UNL     1      -5.924  -4.957  -3.083  0.00  0.00    -0.265 OA
ATOM     12  C   UNL     1      -3.883  -5.789  -2.258  0.00  0.00    +0.304 C 
ATOM     13  O   UNL     1      -3.917  -6.785  -2.951  0.00  0.00    -0.265 OA
ATOM     14  N   UNL     1      -2.848  -5.582  -1.417  0.00  0.00    -0.276 N 
ATOM     15  C   UNL     1      -2.818  -4.499  -0.669  0.00  0.00    +0.057 A 
ATOM     16  C   UNL     1      -1.738  -4.255   0.219  0.00  0.00    +0.053 A 
ATOM     17  H   UNL     1      -2.128  -6.229  -1.364  0.00  0.00    +0.155 HD
ATOM     18  H   UNL     1      -5.647  -3.024  -1.595  0.00  0.00    +0.155 HD
ENDBRANCH   2   5
ENDBRANCH   1   2
BRANCH   1  19
ATOM     19  C   UNL     1       0.724  -0.533   1.249  0.00  0.00    +0.110 C 
BRANCH  19  21
ATOM     20  C   UNL     1      -0.056   1.495   0.016  0.00  0.00    +0.005 C 
ATOM     21  C   UNL     1      -0.025  -0.034   0.011  0.00  0.00    +0.014 C 
ENDBRANCH  19  21
ENDBRANCH   1  19
BRANCH   1  22
ATOM     22  C   UNL     1       1.797  -2.707   0.500  0.00  0.00    +0.205 C 
BRANCH  22  23
ATOM     23  C   UNL     1       3.031  -2.828   1.357  0.00  0.00    +0.233 C 
ATOM     24  O   UNL     1       3.038  -2.368   2.479  0.00  0.00    -0.274 OA
ATOM     25  N   UNL     1       4.127  -3.449   0.877  0.00  0.00    -0.282 N 
ATOM     26  H   UNL     1       4.101  -3.873   0.005  0.00  0.00    +0.155 HD
BRANCH  25  27
ATOM     27  C   UNL     1       5.304  -3.480   1.637  0.00  0.00    +0.072 A 
ATOM     28  C   UNL     1       5.236  -3.567   3.020  0.00  0.00    +0.029 A 
ATOM     29  C   UNL     1       6.396  -3.598   3.769  0.00  0.00    +0.043 A 
ATOM     30  C   UNL     1       7.629  -3.542   3.142  0.00  0.00    +0.161 A 
ATOM     31  C   UNL     1       7.702  -3.455   1.760  0.00  0.00    +0.195 A 
ATOM     32  C   UNL     1       6.541  -3.430   1.006  0.00  0.00    +0.182 A 
ATOM     33  F   UNL     1       6.611  -3.352  -0.341  0.00  0.00    -0.200 F 
ATOM     34  F   UNL     1       8.906  -3.400   1.149  0.00  0.00    -0.199 F 
ATOM     35  F   UNL     1       8.762  -3.572   3.877  0.00  0.00    -0.202 F 
ENDBRANCH  25  27
ENDBRANCH  22  23
ENDBRANCH   1  22
TORSDOF 7
