REMARK  Name = ZINC11912160
REMARK  9 active torsions:
REMARK  status: ('A' for Active; 'I' for Inactive)
REMARK    1  A    between atoms: C_1  and  O_2
REMARK    2  A    between atoms: O_2  and  C_3
REMARK    3  A    between atoms: C_5  and  N_32
REMARK    4  A    between atoms: C_18  and  C_19
REMARK    5  A    between atoms: C_18  and  N_66
REMARK    6  A    between atoms: C_24  and  C_25
REMARK    7  A    between atoms: C_33  and  C_35
REMARK    8  A    between atoms: C_35  and  S_36
REMARK    9  A    between atoms: S_36  and  C_37
REMARK                            x       y       z     vdW  Elec       q    Type
REMARK                         _______ _______ _______ _____ _____    ______ ____
ROOT
ATOM      1  C   UNL     1       1.679   5.500   0.449  0.00  0.00    +0.153 C 
ATOM      2  C   UNL     1       2.303   4.160   0.001  0.00  0.00    +0.133 C 
ATOM      3  C   UNL     1       1.160   3.168   0.007  0.00  0.00    -0.021 A 
ATOM      4  C   UNL     1       1.173   1.784   0.000  0.00  0.00    +0.006 A 
ATOM      5  C   UNL     1      -0.013   1.076   0.008  0.00  0.00    +0.000 A 
ATOM      6  C   UNL     1      -1.219   1.752   0.017  0.00  0.00    +0.000 A 
ATOM      7  C   UNL     1      -1.235   3.132   0.029  0.00  0.00    +0.004 A 
ATOM      8  C   UNL     1      -0.047   3.845   0.022  0.00  0.00    -0.034 A 
ATOM      9  C   UNL     1       0.208   5.333   0.028  0.00  0.00    +0.021 C 
ATOM     10  C   UNL     1      -0.004   5.915  -1.367  0.00  0.00    -0.005 C 
ATOM     11  C   UNL     1       0.237   7.427  -1.326  0.00  0.00    -0.077 C 
ATOM     12  C   UNL     1      -0.443   7.535   0.999  0.00  0.00    -0.077 C 
ATOM     13  C   UNL     1      -0.706   6.027   1.034  0.00  0.00    -0.005 C 
ATOM     14  N   UNL     1      -0.710   8.036  -0.367  0.00  0.00    +0.383 N 
ATOM     15  H   UNL     1      -1.667   7.778  -0.635  0.00  0.00    -0.081 HD
ENDROOT
BRANCH   2  16
ATOM     16  N   UNL     1       2.860   4.285  -1.348  0.00  0.00    -0.305 N 
ATOM     17  C   UNL     1       3.817   3.433  -1.764  0.00  0.00    +0.223 C 
ATOM     18  O   UNL     1       4.218   2.562  -1.021  0.00  0.00    -0.275 OA
ATOM     19  H   UNL     1       2.540   4.982  -1.943  0.00  0.00    +0.149 HD
BRANCH  17  20
ATOM     20  C   UNL     1       4.390   3.561  -3.152  0.00  0.00    +0.164 C 
BRANCH  20  21
ATOM     21  S   UNL     1       5.648   2.279  -3.408  0.00  0.00    -0.155 S 
ATOM     22  C   UNL     1       6.230   2.568  -5.102  0.00  0.00    +0.085 C 
ENDBRANCH  20  21
ENDBRANCH  17  20
ENDBRANCH   2  16
BRANCH   1  24
ATOM     23  C   UNL     1       2.974   6.352   2.277  0.00  0.00    +0.194 C 
ATOM     24  O   UNL     1       1.791   5.665   1.864  0.00  0.00    -0.377 OA
ENDBRANCH   1  24
BRANCH  14  25
ATOM     25  C   UNL     1      -0.583   9.507  -0.398  0.00  0.00    -0.039 C 
BRANCH  25  26
ATOM     26  C   UNL     1      -0.588   9.973  -1.831  0.00  0.00    -0.019 A 
ATOM     27  C   UNL     1       0.495  10.331  -2.555  0.00  0.00    +0.107 A 
ATOM     28  N   UNL     1       0.075  10.681  -3.789  0.00  0.00    -0.284 N 
ATOM     29  H   UNL     1       0.658  10.985  -4.543  0.00  0.00    +0.188 HD
ATOM     30  N   UNL     1      -1.318  10.543  -3.831  0.00  0.00    -0.174 NA
ATOM     31  C   UNL     1      -1.722  10.117  -2.653  0.00  0.00    +0.094 A 
BRANCH  31  32
ATOM     32  C   UNL     1      -3.126   9.836  -2.261  0.00  0.00    +0.002 A 
ATOM     33  C   UNL     1      -3.412   8.786  -1.391  0.00  0.00    +0.013 A 
ATOM     34  C   UNL     1      -4.718   8.533  -1.024  0.00  0.00    +0.039 A 
ATOM     35  C   UNL     1      -5.745   9.313  -1.528  0.00  0.00    +0.123 A 
ATOM     36  C   UNL     1      -5.466  10.355  -2.398  0.00  0.00    +0.039 A 
ATOM     37  C   UNL     1      -4.162  10.619  -2.766  0.00  0.00    +0.013 A 
ATOM     38  F   UNL     1      -7.023   9.058  -1.171  0.00  0.00    -0.205 F 
ENDBRANCH  31  32
ENDBRANCH  25  26
ENDBRANCH  14  25
TORSDOF 7
