REMARK  Name = ZINC13120358
REMARK  11 active torsions:
REMARK  status: ('A' for Active; 'I' for Inactive)
REMARK    1  A    between atoms: C_1  and  C_2
REMARK    2  A    between atoms: C_2  and  C_4
REMARK    3  A    between atoms: C_2  and  N_65
REMARK    4  A    between atoms: C_15  and  C_16
REMARK    5  A    between atoms: C_15  and  N_65
REMARK    6  A    between atoms: C_16  and  C_18
REMARK    7  A    between atoms: C_16  and  C_28
REMARK    8  A    between atoms: C_22  and  O_26
REMARK    9  A    between atoms: C_23  and  O_24
REMARK   10  A    between atoms: O_24  and  C_25
REMARK   11  A    between atoms: O_26  and  C_27
REMARK                            x       y       z     vdW  Elec       q    Type
REMARK                         _______ _______ _______ _____ _____    ______ ____
ROOT
ATOM      1  C   UNL     1       3.001   2.318   2.667  0.00  0.00    +0.038 C 
ENDROOT
BRANCH   1   2
ATOM      2  C   UNL     1       3.389   3.471   3.556  0.00  0.00    -0.017 A 
ATOM      3  C   UNL     1       4.577   3.655   4.153  0.00  0.00    +0.087 A 
ATOM      4  N   UNL     1       4.559   4.813   4.881  0.00  0.00    -0.360 N 
ATOM      5  H   UNL     1       5.303   5.156   5.400  0.00  0.00    +0.165 HD
ATOM      6  C   UNL     1       3.328   5.419   4.767  0.00  0.00    +0.047 A 
ATOM      7  C   UNL     1       2.542   4.608   3.927  0.00  0.00    +0.003 A 
ATOM      8  C   UNL     1       1.228   4.976   3.634  0.00  0.00    +0.010 A 
ATOM      9  C   UNL     1       0.714   6.129   4.157  0.00  0.00    +0.001 A 
ATOM     10  C   UNL     1       1.486   6.935   4.981  0.00  0.00    +0.002 A 
ATOM     11  C   UNL     1       2.784   6.588   5.287  0.00  0.00    +0.026 A 
ENDBRANCH   1   2
BRANCH   1  12
ATOM     12  C   UNL     1       3.917   2.275   1.471  0.00  0.00    +0.004 A 
ATOM     13  C   UNL     1       5.279   2.112   1.648  0.00  0.00    +0.008 A 
ATOM     14  C   UNL     1       6.122   2.079   0.554  0.00  0.00    +0.004 A 
ATOM     15  C   UNL     1       5.608   2.203  -0.723  0.00  0.00    +0.049 A 
ATOM     16  C   UNL     1       4.244   2.362  -0.909  0.00  0.00    +0.162 A 
ATOM     17  C   UNL     1       3.394   2.395   0.194  0.00  0.00    +0.165 A 
BRANCH  17  18
ATOM     18  O   UNL     1       2.055   2.550   0.017  0.00  0.00    -0.491 OA
ATOM     19  C   UNL     1       1.278   1.360  -0.135  0.00  0.00    +0.277 C 
ENDBRANCH  17  18
BRANCH  16  20
ATOM     20  O   UNL     1       3.737   2.484  -2.164  0.00  0.00    -0.491 OA
ATOM     21  C   UNL     1       4.668   2.441  -3.248  0.00  0.00    +0.277 C 
ENDBRANCH  16  20
ENDBRANCH   1  12
BRANCH   1  22
ATOM     22  C   UNL     1       3.122   1.008   3.448  0.00  0.00    -0.069 C 
BRANCH  22  23
ATOM     23  N   UNL     1       2.137   1.008   4.546  0.00  0.00    +0.387 N 
ATOM     24  H   UNL     1       2.322   1.803   5.168  0.00  0.00    -0.085 HD
ATOM     25  H   UNL     1       1.192   1.093   4.154  0.00  0.00    -0.085 HD
BRANCH  23  27
ATOM     26  C   UNL     1       1.385  -1.327   4.643  0.00  0.00    -0.004 C 
ATOM     27  C   UNL     1       2.231  -0.246   5.319  0.00  0.00    +0.013 C 
BRANCH  27  28
ATOM     28  C   UNL     1       1.718  -0.006   6.715  0.00  0.00    +0.206 C 
ATOM     29  O   UNL     1       0.903   0.869   6.920  0.00  0.00    -0.277 OA
ATOM     30  N   UNL     1       2.163  -0.764   7.736  0.00  0.00    -0.272 N 
ATOM     31  C   UNL     1       3.214  -1.780   7.632  0.00  0.00    +0.118 C 
ATOM     32  C   UNL     1       3.361  -2.356   9.050  0.00  0.00    +0.056 C 
ATOM     33  C   UNL     1       2.340  -1.604   9.873  0.00  0.00    -0.024 A 
ATOM     34  C   UNL     1       1.687  -0.701   9.049  0.00  0.00    +0.039 A 
ATOM     35  C   UNL     1       0.692   0.114   9.591  0.00  0.00    +0.024 A 
ATOM     36  C   UNL     1       0.367   0.019  10.928  0.00  0.00    +0.002 A 
ATOM     37  C   UNL     1       1.025  -0.884  11.742  0.00  0.00    +0.000 A 
ATOM     38  C   UNL     1       2.011  -1.695  11.212  0.00  0.00    +0.005 A 
ENDBRANCH  27  28
ENDBRANCH  23  27
ENDBRANCH  22  23
ENDBRANCH   1  22
TORSDOF 8
