REMARK  Name = ZINC39920477
REMARK  7 active torsions:
REMARK  status: ('A' for Active; 'I' for Inactive)
REMARK    1  A    between atoms: C_1  and  C_2
REMARK    2  A    between atoms: C_2  and  C_3
REMARK    3  A    between atoms: C_3  and  C_4
REMARK    4  A    between atoms: N_15  and  N_16
REMARK    5  A    between atoms: C_17  and  C_19
REMARK    6  A    between atoms: C_19  and  O_20
REMARK    7  A    between atoms: O_20  and  C_21
REMARK                            x       y       z     vdW  Elec       q    Type
REMARK                         _______ _______ _______ _____ _____    ______ ____
ROOT
ATOM      1  C   UNL     1      -1.413  -2.063   0.004  0.00  0.00    +0.180 C 
ATOM      2  N   UNL     1      -0.801  -2.548   1.248  0.00  0.00    -0.324 N 
ATOM      3  C   UNL     1      -1.552  -2.504   2.418  0.00  0.00    +0.041 A 
ATOM      4  C   UNL     1      -0.963  -2.347   3.661  0.00  0.00    +0.025 A 
ATOM      5  C   UNL     1      -1.755  -2.306   4.792  0.00  0.00    +0.017 A 
ATOM      6  C   UNL     1      -3.134  -2.421   4.692  0.00  0.00    +0.019 A 
ATOM      7  C   UNL     1      -3.736  -2.579   3.461  0.00  0.00    +0.030 A 
ATOM      8  C   UNL     1      -2.949  -2.624   2.313  0.00  0.00    +0.060 A 
ATOM      9  C   UNL     1      -3.539  -2.801   0.974  0.00  0.00    +0.266 C 
ATOM     10  O   UNL     1      -4.697  -3.154   0.853  0.00  0.00    -0.268 OA
ATOM     11  N   UNL     1      -2.781  -2.566  -0.114  0.00  0.00    -0.196 N 
ATOM     12 BR   UNL     1      -4.196  -2.360   6.256  0.00  0.00    -0.050 Br
ATOM     13  H   UNL     1       0.106  -2.892   1.254  0.00  0.00    +0.148 HD
ENDROOT
BRANCH  11  14
ATOM     14  N   UNL     1      -3.318  -2.807  -1.385  0.00  0.00    -0.227 N 
ATOM     15  C   UNL     1      -3.450  -4.072  -1.831  0.00  0.00    +0.267 C 
ATOM     16  O   UNL     1      -3.104  -5.001  -1.133  0.00  0.00    -0.271 OA
ATOM     17  H   UNL     1      -3.594  -2.064  -1.944  0.00  0.00    +0.173 HD
BRANCH  15  18
ATOM     18  C   UNL     1      -4.027  -4.332  -3.199  0.00  0.00    +0.326 C 
BRANCH  18  19
ATOM     19  O   UNL     1      -4.064  -5.740  -3.441  0.00  0.00    -0.482 OA
BRANCH  19  20
ATOM     20  C   UNL     1      -4.561  -6.147  -4.637  0.00  0.00    +0.129 A 
ATOM     21  C   UNL     1      -4.993  -5.228  -5.552  0.00  0.00    +0.046 A 
ATOM     22  C   UNL     1      -5.504  -5.629  -6.783  0.00  0.00    +0.004 A 
ATOM     23  C   UNL     1      -5.589  -6.948  -7.112  0.00  0.00    +0.009 A 
ATOM     24  C   UNL     1      -5.155  -7.924  -6.199  0.00  0.00    -0.014 A 
ATOM     25  C   UNL     1      -4.629  -7.521  -4.947  0.00  0.00    +0.024 A 
ATOM     26  C   UNL     1      -4.191  -8.496  -4.037  0.00  0.00    +0.012 A 
ATOM     27  C   UNL     1      -4.272  -9.813  -4.370  0.00  0.00    +0.001 A 
ATOM     28  C   UNL     1      -4.785 -10.211  -5.604  0.00  0.00    +0.001 A 
ATOM     29  C   UNL     1      -5.228  -9.294  -6.506  0.00  0.00    +0.008 A 
ENDBRANCH  19  20
ENDBRANCH  18  19
ENDBRANCH  15  18
ENDBRANCH  11  14
BRANCH   1  30
ATOM     30  C   UNL     1      -1.433  -0.534   0.013  0.00  0.00    +0.043 C 
BRANCH  30  32
ATOM     31  C   UNL     1      -0.019   1.526   0.010  0.00  0.00    +0.004 C 
ATOM     32  C   UNL     1       0.002  -0.004   0.002  0.00  0.00    +0.000 C 
ENDBRANCH  30  32
ENDBRANCH   1  30
TORSDOF 6
