REMARK  Name = ZINC09765659
REMARK  13 active torsions:
REMARK  status: ('A' for Active; 'I' for Inactive)
REMARK    1  A    between atoms: C_1  and  C_2
REMARK    2  A    between atoms: C_2  and  O_3
REMARK    3  A    between atoms: O_3  and  C_4
REMARK    4  A    between atoms: C_4  and  C_5
REMARK    5  A    between atoms: C_5  and  N_6
REMARK    6  A    between atoms: C_9  and  C_38
REMARK    7  A    between atoms: C_11  and  C_37
REMARK    8  A    between atoms: N_15  and  C_16
REMARK    9  A    between atoms: C_16  and  C_18
REMARK   10  A    between atoms: C_21  and  S_24
REMARK   11  A    between atoms: S_24  and  N_27
REMARK   12  A    between atoms: C_29  and  C_36
REMARK   13  A    between atoms: C_32  and  C_35
REMARK                            x       y       z     vdW  Elec       q    Type
REMARK                         _______ _______ _______ _____ _____    ______ ____
ROOT
ATOM      1  C   UNL     1      -0.894   3.491   0.025  0.00  0.00    +0.269 C 
ATOM      2  O   UNL     1       0.232   3.956   0.022  0.00  0.00    -0.268 OA
ENDROOT
BRANCH   1  12
ATOM      3  N   UNL     1       0.002  -0.004   0.002  0.00  0.00    -0.319 N 
ATOM      4  C   UNL     1       1.208  -0.681  -0.013  0.00  0.00    +0.058 A 
ATOM      5  C   UNL     1       1.428  -2.067  -0.023  0.00  0.00    +0.030 A 
ATOM      6  C   UNL     1       2.705  -2.575  -0.038  0.00  0.00    -0.048 A 
ATOM      7  C   UNL     1       3.810  -1.741  -0.044  0.00  0.00    +0.008 A 
ATOM      8  C   UNL     1       3.622  -0.370  -0.035  0.00  0.00    -0.034 A 
ATOM      9  C   UNL     1       2.345   0.140  -0.020  0.00  0.00    +0.042 A 
ATOM     10  S   UNL     1       1.665   1.779  -0.004  0.00  0.00    -0.052 S 
ATOM     11  C   UNL     1      -0.016   1.356   0.009  0.00  0.00    +0.167 A 
ATOM     12  N   UNL     1      -1.070   2.166   0.019  0.00  0.00    -0.152 NA
ATOM     13  C   UNL     1       4.809   0.558  -0.040  0.00  0.00    +0.045 C 
ATOM     14  C   UNL     1       2.906  -4.069  -0.049  0.00  0.00    +0.044 C 
BRANCH   3  15
ATOM     15  C   UNL     1      -1.257  -0.753   0.009  0.00  0.00    +0.152 C 
BRANCH  15  16
ATOM     16  C   UNL     1      -1.709  -1.005  -1.430  0.00  0.00    +0.181 C 
BRANCH  16  17
ATOM     17  O   UNL     1      -2.937  -1.736  -1.423  0.00  0.00    -0.378 OA
BRANCH  17  19
ATOM     18  C   UNL     1      -4.759  -2.806  -2.597  0.00  0.00    +0.034 C 
ATOM     19  C   UNL     1      -3.449  -2.025  -2.725  0.00  0.00    +0.156 C 
ENDBRANCH  17  19
ENDBRANCH  16  17
ENDBRANCH  15  16
ENDBRANCH   3  15
ENDBRANCH   1  12
BRANCH   1  20
ATOM     20  C   UNL     1      -2.068   4.394   0.036  0.00  0.00    +0.039 A 
ATOM     21  C   UNL     1      -3.359   3.864   0.034  0.00  0.00    +0.015 A 
ATOM     22  C   UNL     1      -4.449   4.710   0.049  0.00  0.00    +0.029 A 
ATOM     23  C   UNL     1      -4.264   6.081   0.056  0.00  0.00    +0.106 A 
ATOM     24  C   UNL     1      -2.986   6.613   0.052  0.00  0.00    +0.029 A 
ATOM     25  C   UNL     1      -1.888   5.777   0.043  0.00  0.00    +0.015 A 
BRANCH  23  26
ATOM     26  S   UNL     1      -5.661   7.155   0.069  0.00  0.00    +0.061 S 
ATOM     27  O   UNL     1      -6.739   6.412   0.621  0.00  0.00    -0.153 OA
ATOM     28  O   UNL     1      -5.221   8.387   0.624  0.00  0.00    -0.153 OA
BRANCH  26  29
ATOM     29  N   UNL     1      -6.057   7.462  -1.510  0.00  0.00    -0.172 NA
ATOM     30  C   UNL     1      -5.474   8.606  -2.228  0.00  0.00    +0.140 C 
ATOM     31  C   UNL     1      -4.907   8.096  -3.563  0.00  0.00    +0.131 C 
ATOM     32  O   UNL     1      -5.922   7.363  -4.254  0.00  0.00    -0.371 OA
ATOM     33  C   UNL     1      -6.370   6.192  -3.566  0.00  0.00    +0.131 C 
ATOM     34  C   UNL     1      -7.007   6.602  -2.233  0.00  0.00    +0.140 C 
ATOM     35  C   UNL     1      -7.404   5.459  -4.423  0.00  0.00    +0.039 C 
ATOM     36  C   UNL     1      -3.708   7.183  -3.299  0.00  0.00    +0.039 C 
ENDBRANCH  26  29
ENDBRANCH  23  26
ENDBRANCH   1  20
TORSDOF 8
