REMARK  Name = ZINC09350252
REMARK  9 active torsions:
REMARK  status: ('A' for Active; 'I' for Inactive)
REMARK    1  A    between atoms: C_1  and  C_2
REMARK    2  A    between atoms: C_2  and  C_3
REMARK    3  A    between atoms: C_3  and  C_30
REMARK    4  A    between atoms: N_4  and  N_5
REMARK    5  A    between atoms: C_6  and  C_8
REMARK    6  A    between atoms: C_8  and  S_9
REMARK    7  A    between atoms: S_9  and  C_10
REMARK    8  A    between atoms: N_23  and  C_24
REMARK    9  A    between atoms: C_33  and  O_36
REMARK                            x       y       z     vdW  Elec       q    Type
REMARK                         _______ _______ _______ _____ _____    ______ ____
ROOT
ATOM      1  C   UNL     1      -1.260  -1.124  -7.828  0.00  0.00    +0.178 A 
ATOM      2  N   UNL     1      -0.020  -0.693  -7.711  0.00  0.00    -0.215 NA
ATOM      3  C   UNL     1       0.480   0.181  -8.575  0.00  0.00    +0.117 A 
ATOM      4  C   UNL     1      -0.273   0.688  -9.648  0.00  0.00    +0.076 A 
ATOM      5  C   UNL     1       0.415   1.645 -10.517  0.00  0.00    -0.023 A 
ATOM      6  C   UNL     1       1.692   1.944 -10.207  0.00  0.00    -0.004 A 
ATOM      7  S   UNL     1       2.053   0.984  -8.761  0.00  0.00    -0.073 S 
ATOM      8  C   UNL     1       2.606   2.885 -10.932  0.00  0.00    +0.043 C 
ATOM      9  C   UNL     1       1.996   3.188 -12.308  0.00  0.00    +0.005 C 
ATOM     10  C   UNL     1       0.516   3.537 -12.123  0.00  0.00    +0.005 C 
ATOM     11  C   UNL     1      -0.266   2.286 -11.723  0.00  0.00    +0.037 C 
ATOM     12  C   UNL     1      -1.615   0.203  -9.751  0.00  0.00    +0.268 A 
ATOM     13  O   UNL     1      -2.343   0.587 -10.650  0.00  0.00    -0.267 OA
ATOM     14  N   UNL     1      -2.061  -0.686  -8.845  0.00  0.00    -0.255 N 
ENDROOT
BRANCH  14  15
ATOM     15  C   UNL     1      -3.373  -1.169  -8.943  0.00  0.00    +0.052 A 
ATOM     16  C   UNL     1      -3.639  -2.313  -9.683  0.00  0.00    +0.026 A 
ATOM     17  C   UNL     1      -4.933  -2.787  -9.777  0.00  0.00    +0.002 A 
ATOM     18  C   UNL     1      -5.963  -2.122  -9.137  0.00  0.00    +0.000 A 
ATOM     19  C   UNL     1      -5.701  -0.982  -8.400  0.00  0.00    +0.002 A 
ATOM     20  C   UNL     1      -4.408  -0.507  -8.296  0.00  0.00    +0.026 A 
ENDBRANCH  14  15
BRANCH   1  21
ATOM     21  S   UNL     1      -1.891  -2.284  -6.662  0.00  0.00    -0.078 S 
BRANCH  21  22
ATOM     22  C   UNL     1      -0.504  -2.563  -5.526  0.00  0.00    +0.174 C 
BRANCH  22  24
ATOM     23  N   UNL     1      -0.040  -3.912  -3.505  0.00  0.00    -0.206 N 
ATOM     24  C   UNL     1      -0.915  -3.550  -4.464  0.00  0.00    +0.242 C 
ATOM     25  O   UNL     1      -2.034  -4.020  -4.472  0.00  0.00    -0.273 OA
ATOM     26  H   UNL     1       0.854  -3.536  -3.498  0.00  0.00    +0.177 HD
BRANCH  23  28
ATOM     27  C   UNL     1       0.420  -5.177  -1.594  0.00  0.00    +0.066 C 
ATOM     28  N   UNL     1      -0.422  -4.829  -2.517  0.00  0.00    -0.184 NA
BRANCH  27  29
ATOM     29  C   UNL     1       0.018  -6.143  -0.555  0.00  0.00    -0.002 A 
ATOM     30  C   UNL     1       0.922  -6.515   0.444  0.00  0.00    +0.013 A 
ATOM     31  C   UNL     1       0.541  -7.418   1.413  0.00  0.00    +0.046 A 
ATOM     32  C   UNL     1      -0.738  -7.958   1.398  0.00  0.00    +0.117 A 
ATOM     33  C   UNL     1      -1.640  -7.592   0.406  0.00  0.00    +0.046 A 
ATOM     34  C   UNL     1      -1.270  -6.685  -0.563  0.00  0.00    +0.013 A 
BRANCH  32  35
ATOM     35  O   UNL     1      -1.109  -8.848   2.355  0.00  0.00    -0.507 OA
ATOM     36  H   UNL     1      -1.503  -8.442   3.139  0.00  0.00    +0.292 HD
ENDBRANCH  32  35
ENDBRANCH  27  29
BRANCH  27  38
ATOM     37  C   UNL     1       1.818  -3.312  -0.749  0.00  0.00    +0.010 C 
ATOM     38  C   UNL     1       1.810  -4.594  -1.583  0.00  0.00    +0.054 C 
ENDBRANCH  27  38
ENDBRANCH  23  28
ENDBRANCH  22  24
ENDBRANCH  21  22
ENDBRANCH   1  21
TORSDOF 8
