REMARK  Name = ZINC16026676
REMARK  8 active torsions:
REMARK  status: ('A' for Active; 'I' for Inactive)
REMARK    1  A    between atoms: C_1  and  C_2
REMARK    2  A    between atoms: C_2  and  C_3
REMARK    3  A    between atoms: C_2  and  C_4
REMARK    4  A    between atoms: C_4  and  C_5
REMARK    5  A    between atoms: C_8  and  C_20
REMARK    6  A    between atoms: N_22  and  C_23
REMARK    7  A    between atoms: C_28  and  O_29
REMARK    8  A    between atoms: O_29  and  C_30
REMARK                            x       y       z     vdW  Elec       q    Type
REMARK                         _______ _______ _______ _____ _____    ______ ____
ROOT
ATOM      1  C   UNL     1      -0.798   1.627   1.230  0.00  0.00    -0.069 C 
ATOM      2  C   UNL     1      -0.019   1.071   0.011  0.00  0.00    -0.004 C 
ATOM      3  C   UNL     1      -0.809   1.631  -1.196  0.00  0.00    +0.076 C 
ATOM      4  C   UNL     1      -2.204   1.943  -0.641  0.00  0.00    +0.049 C 
ATOM      5  C   UNL     1      -3.270   1.210  -1.410  0.00  0.00    -0.028 A 
ATOM      6  C   UNL     1      -3.519  -0.125  -1.640  0.00  0.00    +0.004 A 
ATOM      7  C   UNL     1      -4.606  -0.503  -2.408  0.00  0.00    +0.000 A 
ATOM      8  C   UNL     1      -5.440   0.462  -2.943  0.00  0.00    +0.002 A 
ATOM      9  C   UNL     1      -5.193   1.800  -2.716  0.00  0.00    +0.023 A 
ATOM     10  C   UNL     1      -4.100   2.189  -1.944  0.00  0.00    +0.036 A 
ATOM     11  N   UNL     1      -3.647   3.458  -1.579  0.00  0.00    -0.286 N 
ATOM     12  C   UNL     1      -2.539   3.402  -0.815  0.00  0.00    +0.211 C 
ATOM     13  O   UNL     1      -1.929   4.344  -0.356  0.00  0.00    -0.277 OA
ATOM     14  H   UNL     1      -4.080   4.285  -1.844  0.00  0.00    +0.155 HD
ATOM     15  N   UNL     1      -2.198   1.571   0.767  0.00  0.00    +0.394 N 
ATOM     16  H   UNL     1      -2.773   2.228   1.307  0.00  0.00    -0.083 HD
ATOM     17  H   UNL     1      -2.567   0.620   0.880  0.00  0.00    -0.083 HD
ENDROOT
BRANCH   3  18
ATOM     18  C   UNL     1      -0.899   0.598  -2.289  0.00  0.00    +0.220 C 
ATOM     19  O   UNL     1      -0.809  -0.581  -2.018  0.00  0.00    -0.275 OA
ATOM     20  N   UNL     1      -1.079   0.984  -3.568  0.00  0.00    -0.282 N 
ATOM     21  H   UNL     1      -1.093   1.927  -3.792  0.00  0.00    +0.155 HD
BRANCH  20  22
ATOM     22  C   UNL     1      -1.246   0.022  -4.573  0.00  0.00    +0.077 A 
ATOM     23  C   UNL     1      -0.726  -1.253  -4.408  0.00  0.00    +0.047 A 
ATOM     24  C   UNL     1      -0.892  -2.201  -5.402  0.00  0.00    +0.043 A 
ATOM     25  C   UNL     1      -1.576  -1.879  -6.561  0.00  0.00    +0.024 A 
ATOM     26  C   UNL     1      -2.097  -0.610  -6.731  0.00  0.00    +0.049 A 
ATOM     27  C   UNL     1      -1.940   0.343  -5.737  0.00  0.00    +0.141 A 
ATOM     28 CL   UNL     1      -0.240  -3.796  -5.195  0.00  0.00    -0.083 Cl
BRANCH  27  29
ATOM     29  O   UNL     1      -2.457   1.589  -5.901  0.00  0.00    -0.493 OA
ATOM     30  C   UNL     1      -3.156   1.847  -7.121  0.00  0.00    +0.277 C 
ENDBRANCH  27  29
ENDBRANCH  20  22
ENDBRANCH   3  18
BRANCH   1  31
ATOM     31  C   UNL     1      -0.576   0.745   2.461  0.00  0.00    -0.013 C 
BRANCH  31  33
ATOM     32  C   UNL     1      -2.768   1.408   3.461  0.00  0.00    +0.007 C 
ATOM     33  C   UNL     1      -1.253   1.384   3.675  0.00  0.00    -0.019 C 
ATOM     34  C   UNL     1      -0.927   0.569   4.928  0.00  0.00    +0.007 C 
ENDBRANCH  31  33
ENDBRANCH   1  31
TORSDOF 5
