REMARK  Name = ZINC39600338
REMARK  6 active torsions:
REMARK  status: ('A' for Active; 'I' for Inactive)
REMARK    1  A    between atoms: C_6  and  C_7
REMARK    2  A    between atoms: C_7  and  C_8
REMARK    3  A    between atoms: C_12  and  C_21
REMARK    4  A    between atoms: N_23  and  C_24
REMARK    5  A    between atoms: C_24  and  C_25
REMARK    6  A    between atoms: C_27  and  C_32
REMARK                            x       y       z     vdW  Elec       q    Type
REMARK                         _______ _______ _______ _____ _____    ______ ____
ROOT
ATOM      1  C   UNL     1      -1.707  -1.140  -1.115  0.00  0.00    +0.220 C 
ATOM      2  O   UNL     1      -0.959  -0.726  -1.974  0.00  0.00    -0.275 OA
ATOM      3  N   UNL     1      -2.848  -1.769  -1.461  0.00  0.00    -0.300 N 
ATOM      4  C   UNL     1      -3.882  -2.334  -0.562  0.00  0.00    +0.121 C 
ATOM      5  C   UNL     1      -5.224  -1.993  -1.248  0.00  0.00    +0.100 C 
ATOM      6  C   UNL     1      -4.870  -1.812  -2.734  0.00  0.00    -0.004 C 
ATOM      7  C   UNL     1      -3.355  -2.046  -2.826  0.00  0.00    +0.115 C 
ATOM      8  C   UNL     1      -5.617  -2.834  -3.584  0.00  0.00    -0.010 C 
ATOM      9  C   UNL     1      -5.293  -2.596  -5.062  0.00  0.00    -0.082 C 
ATOM     10  N   UNL     1      -5.690  -1.234  -5.439  0.00  0.00    +0.379 N 
ATOM     11  C   UNL     1      -4.900  -0.255  -4.682  0.00  0.00    -0.082 C 
ATOM     12  C   UNL     1      -5.207  -0.395  -3.188  0.00  0.00    -0.010 C 
ATOM     13  H   UNL     1      -5.532  -1.100  -6.426  0.00  0.00    -0.086 HD
ATOM     14  H   UNL     1      -6.670  -1.103  -5.236  0.00  0.00    -0.086 HD
ENDROOT
BRANCH   5  15
ATOM     15  C   UNL     1      -5.794  -0.718  -0.683  0.00  0.00    +0.218 C 
ATOM     16  O   UNL     1      -5.052   0.144  -0.263  0.00  0.00    -0.275 OA
ATOM     17  N   UNL     1      -7.129  -0.536  -0.643  0.00  0.00    -0.311 N 
ATOM     18  H   UNL     1      -7.723  -1.226  -0.979  0.00  0.00    +0.149 HD
BRANCH  17  19
ATOM     19  C   UNL     1      -7.684   0.703  -0.093  0.00  0.00    +0.139 C 
BRANCH  19  20
ATOM     20  C   UNL     1      -9.188   0.655  -0.164  0.00  0.00    -0.027 A 
ATOM     21  C   UNL     1      -9.842   1.127  -1.288  0.00  0.00    +0.017 A 
ATOM     22  C   UNL     1     -11.222   1.084  -1.354  0.00  0.00    +0.058 A 
ATOM     23  C   UNL     1     -11.950   0.570  -0.298  0.00  0.00    +0.050 A 
ATOM     24  C   UNL     1     -11.296   0.097   0.828  0.00  0.00    +0.124 A 
ATOM     25  C   UNL     1      -9.913   0.135   0.891  0.00  0.00    +0.043 A 
ATOM     26  F   UNL     1     -12.006  -0.405   1.861  0.00  0.00    -0.205 F 
BRANCH  22  27
ATOM     27  C   UNL     1     -11.933   1.599  -2.579  0.00  0.00    +0.418 C 
ATOM     28  F   UNL     1     -12.090   0.557  -3.499  0.00  0.00    -0.166 F 
ATOM     29  F   UNL     1     -13.191   2.092  -2.215  0.00  0.00    -0.166 F 
ATOM     30  F   UNL     1     -11.180   2.624  -3.159  0.00  0.00    -0.166 F 
ENDBRANCH  22  27
ENDBRANCH  19  20
ENDBRANCH  17  19
ENDBRANCH   5  15
BRANCH   1  31
ATOM     31  C   UNL     1      -1.362  -0.952   0.340  0.00  0.00    +0.131 C 
BRANCH  31  37
ATOM     32  C   UNL     1      -0.021   1.155   0.508  0.00  0.00    +0.005 A 
ATOM     33  C   UNL     1       1.185   1.821   0.613  0.00  0.00    +0.020 A 
ATOM     34  C   UNL     1       2.368   1.106   0.664  0.00  0.00    +0.041 A 
ATOM     35  C   UNL     1       2.343  -0.277   0.610  0.00  0.00    +0.020 A 
ATOM     36  C   UNL     1       1.136  -0.942   0.505  0.00  0.00    +0.005 A 
ATOM     37  C   UNL     1      -0.046  -0.226   0.454  0.00  0.00    -0.039 A 
ATOM     38 CL   UNL     1       3.884   1.942   0.795  0.00  0.00    -0.084 Cl
ENDBRANCH  31  37
ENDBRANCH   1  31
TORSDOF 6
