REMARK  Name = ZINC21801526
REMARK  4 active torsions:
REMARK  status: ('A' for Active; 'I' for Inactive)
REMARK    1  A    between atoms: C_2  and  C_11
REMARK    2  A    between atoms: C_6  and  N_7
REMARK    3  A    between atoms: C_11  and  C_13
REMARK    4  A    between atoms: C_11  and  N_21
REMARK                            x       y       z     vdW  Elec       q    Type
REMARK                         _______ _______ _______ _____ _____    ______ ____
ROOT
ATOM      1  C   UNL     1      -2.562   4.525   0.051  0.00  0.00    -0.013 C 
ENDROOT
BRANCH   1   2
ATOM      2  C   UNL     1      -3.134   4.564  -1.343  0.00  0.00    -0.055 A 
ATOM      3  C   UNL     1      -3.792   3.459  -1.850  0.00  0.00    +0.022 A 
ATOM      4  C   UNL     1      -4.322   3.495  -3.128  0.00  0.00    +0.043 A 
ATOM      5  C   UNL     1      -4.183   4.633  -3.902  0.00  0.00    +0.040 A 
ATOM      6  C   UNL     1      -3.520   5.737  -3.396  0.00  0.00    +0.043 A 
ATOM      7  C   UNL     1      -2.995   5.701  -2.116  0.00  0.00    +0.022 A 
ATOM      8 CL   UNL     1      -3.345   7.165  -4.367  0.00  0.00    -0.083 Cl
ATOM      9 CL   UNL     1      -5.155   2.110  -3.762  0.00  0.00    -0.083 Cl
ENDBRANCH   1   2
BRANCH   1  11
ATOM     10  C   UNL     1      -0.059   4.497   0.027  0.00  0.00    +0.035 A 
ATOM     11  C   UNL     1      -1.247   3.789   0.034  0.00  0.00    -0.054 A 
ATOM     12  C   UNL     1      -1.229   2.408   0.021  0.00  0.00    +0.022 A 
ATOM     13  C   UNL     1      -0.021   1.732   0.012  0.00  0.00    +0.043 A 
ATOM     14  C   UNL     1       1.167   2.440   0.004  0.00  0.00    +0.052 A 
ATOM     15  C   UNL     1       1.147   3.822   0.012  0.00  0.00    +0.128 A 
ATOM     16 CL   UNL     1       0.002  -0.004   0.002  0.00  0.00    -0.083 Cl
BRANCH  15  17
ATOM     17  N   UNL     1       2.419   4.580   0.004  0.00  0.00    +0.056 N 
ATOM     18  O   UNL     1       3.482   3.986  -0.009  0.00  0.00    -0.126 OA
ATOM     19  O   UNL     1       2.402   5.798   0.011  0.00  0.00    -0.126 OA
ENDBRANCH  15  17
ENDBRANCH   1  11
BRANCH   1  20
ATOM     20  N   UNL     1      -3.499   3.834   0.946  0.00  0.00    +0.385 N 
ATOM     21  H   UNL     1      -4.459   4.371   0.958  0.00  0.00    -0.089 HD
ATOM     22  H   UNL     1      -3.082   3.806   1.963  0.00  0.00    -0.089 HD
ATOM     23  H   UNL     1      -3.658   2.806   0.586  0.00  0.00    -0.089 HD
ENDBRANCH   1  20
TORSDOF 4
