REMARK  Name = ZINC62642065
REMARK  3 active torsions:
REMARK  status: ('A' for Active; 'I' for Inactive)
REMARK    1  A    between atoms: C_6  and  C_25
REMARK    2  A    between atoms: C_7  and  N_9
REMARK    3  A    between atoms: C_10  and  C_12
REMARK                            x       y       z     vdW  Elec       q    Type
REMARK                         _______ _______ _______ _____ _____    ______ ____
ROOT
ATOM      1  N   UNL     1       1.210  -5.876   3.666  0.00  0.00    -0.271 N 
ATOM      2  C   UNL     1       2.141  -5.993   4.633  0.00  0.00    +0.304 C 
ATOM      3  O   UNL     1       2.360  -7.076   5.138  0.00  0.00    -0.265 OA
ATOM      4  H   UNL     1       1.035  -5.012   3.263  0.00  0.00    +0.156 HD
ENDROOT
BRANCH   2   5
ATOM      5  C   UNL     1       2.904  -4.792   5.084  0.00  0.00    +0.302 C 
ATOM      6  O   UNL     1       2.773  -3.736   4.500  0.00  0.00    -0.265 OA
ATOM      7  N   UNL     1       3.738  -4.880   6.139  0.00  0.00    -0.290 N 
ATOM      8  C   UNL     1       4.457  -3.705   6.541  0.00  0.00    +0.112 C 
ATOM      9  C   UNL     1       5.823  -4.008   7.078  0.00  0.00    +0.007 C 
ATOM     10  C   UNL     1       6.590  -4.997   6.216  0.00  0.00    +0.008 C 
ATOM     11  C   UNL     1       6.340  -6.451   6.563  0.00  0.00    -0.009 C 
ATOM     12  C   UNL     1       6.497  -6.692   8.067  0.00  0.00    +0.007 C 
ATOM     13  C   UNL     1       5.480  -5.796   8.777  0.00  0.00    -0.009 C 
ATOM     14  C   UNL     1       5.879  -4.338   8.543  0.00  0.00    +0.008 C 
ATOM     15  C   UNL     1       4.072  -6.063   8.300  0.00  0.00    +0.026 C 
ATOM     16  C   UNL     1       3.862  -6.158   6.817  0.00  0.00    +0.077 C 
ATOM     17  C   UNL     1       4.974  -6.958   6.125  0.00  0.00    +0.026 C 
ENDBRANCH   2   5
BRANCH   1  24
ATOM     18  C   UNL     1      -2.225 -10.114   0.662  0.00  0.00    +0.005 C 
ATOM     19  C   UNL     1      -2.354 -10.927   1.953  0.00  0.00    +0.005 C 
ATOM     20  C   UNL     1      -1.028 -10.843   2.723  0.00  0.00    +0.043 C 
ATOM     21  C   UNL     1      -0.602  -9.409   2.775  0.00  0.00    -0.004 A 
ATOM     22  C   UNL     1      -1.077  -8.386   2.028  0.00  0.00    -0.018 A 
ATOM     23  C   UNL     1      -0.488  -7.081   2.277  0.00  0.00    +0.084 A 
ATOM     24  C   UNL     1       0.502  -6.991   3.248  0.00  0.00    +0.090 A 
ATOM     25  S   UNL     1       0.629  -8.677   3.818  0.00  0.00    -0.077 S 
ATOM     26  C   UNL     1      -2.170  -8.622   0.990  0.00  0.00    +0.037 C 
BRANCH  23  27
ATOM     27  C   UNL     1      -0.914  -5.926   1.546  0.00  0.00    +0.102 C 
ATOM     28  N   UNL     1      -1.252  -5.010   0.966  0.00  0.00    -0.191 NA
ENDBRANCH  23  27
ENDBRANCH   1  24
TORSDOF 3
