REMARK  Name = ZINC05834983
REMARK  8 active torsions:
REMARK  status: ('A' for Active; 'I' for Inactive)
REMARK    1  A    between atoms: C_1  and  C_2
REMARK    2  A    between atoms: C_2  and  O_3
REMARK    3  A    between atoms: O_3  and  C_4
REMARK    4  A    between atoms: C_4  and  C_6
REMARK    5  A    between atoms: C_9  and  C_24
REMARK    6  A    between atoms: C_10  and  O_23
REMARK    7  A    between atoms: C_18  and  C_22
REMARK    8  A    between atoms: C_19  and  C_21
REMARK                            x       y       z     vdW  Elec       q    Type
REMARK                         _______ _______ _______ _____ _____    ______ ____
ROOT
ATOM      1  C   UNL     1       4.678   2.681  -0.027  0.00  0.00    +0.147 A 
ATOM      2  C   UNL     1       5.233   4.039  -0.025  0.00  0.00    +0.204 A 
ATOM      3  O   UNL     1       6.441   4.225  -0.034  0.00  0.00    -0.286 OA
ATOM      4  C   UNL     1       4.332   5.125  -0.011  0.00  0.00    +0.057 A 
ATOM      5  C   UNL     1       2.997   4.891  -0.000  0.00  0.00    +0.206 A 
ATOM      6  N   UNL     1       2.480   3.623  -0.003  0.00  0.00    -0.264 N 
ATOM      7  C   UNL     1       3.285   2.528  -0.015  0.00  0.00    +0.137 A 
ATOM      8  N   UNL     1       2.514   1.402  -0.014  0.00  0.00    -0.339 N 
ATOM      9  H   UNL     1       2.841   0.489  -0.021  0.00  0.00    +0.167 HD
ATOM     10  C   UNL     1       1.179   1.788   0.000  0.00  0.00    +0.065 A 
ATOM     11  C   UNL     1       1.154   3.183   0.008  0.00  0.00    +0.075 A 
ATOM     12  C   UNL     1      -0.061   3.853   0.022  0.00  0.00    +0.032 A 
ATOM     13  C   UNL     1      -1.241   3.136   0.029  0.00  0.00    -0.045 A 
ATOM     14  C   UNL     1      -1.216   1.751   0.017  0.00  0.00    -0.045 A 
ATOM     15  C   UNL     1      -0.013   1.076   0.008  0.00  0.00    +0.031 A 
ATOM     16  C   UNL     1      -2.510   0.979   0.020  0.00  0.00    +0.044 C 
ATOM     17  C   UNL     1      -2.561   3.863   0.044  0.00  0.00    +0.044 C 
ATOM     18  C   UNL     1       4.851   6.539  -0.008  0.00  0.00    +0.053 C 
ENDROOT
BRANCH   1  19
ATOM     19  C   UNL     1       5.559   1.513  -0.042  0.00  0.00    +0.346 C 
ATOM     20  O   UNL     1       5.916   1.034  -1.101  0.00  0.00    -0.245 OA
BRANCH  19  21
ATOM     21  O   UNL     1       5.976   0.968   1.120  0.00  0.00    -0.461 OA
BRANCH  21  23
ATOM     22  C   UNL     1       7.213  -0.664   2.437  0.00  0.00    +0.048 C 
ATOM     23  C   UNL     1       6.848  -0.190   1.029  0.00  0.00    +0.229 C 
ENDBRANCH  21  23
ENDBRANCH  19  21
ENDBRANCH   1  19
BRANCH   5  24
ATOM     24  O   UNL     1       2.149   5.943   0.013  0.00  0.00    -0.493 OA
ATOM     25  H   UNL     1       1.894   6.254  -0.867  0.00  0.00    +0.294 HD
ENDBRANCH   5  24
TORSDOF 4
