REMARK  Name = ZINC09636238
REMARK  6 active torsions:
REMARK  status: ('A' for Active; 'I' for Inactive)
REMARK    1  A    between atoms: C_1  and  C_2
REMARK    2  A    between atoms: C_5  and  N_9
REMARK    3  A    between atoms: C_7  and  C_8
REMARK    4  A    between atoms: N_9  and  C_10
REMARK    5  A    between atoms: N_20  and  C_23
REMARK    6  A    between atoms: C_23  and  C_24
REMARK                            x       y       z     vdW  Elec       q    Type
REMARK                         _______ _______ _______ _____ _____    ______ ____
ROOT
ATOM      1  C   UNL     1       0.079  -4.854   1.153  0.00  0.00    +0.085 C 
ATOM      2  C   UNL     1       0.005  -6.229   1.096  0.00  0.00    +0.059 C 
ATOM      3  C   UNL     1       0.003  -6.937  -0.200  0.00  0.00    +0.000 A 
ATOM      4  C   UNL     1       0.085  -6.254  -1.408  0.00  0.00    +0.009 A 
ATOM      5  C   UNL     1       0.085  -6.962  -2.593  0.00  0.00    +0.001 A 
ATOM      6  C   UNL     1       0.009  -8.347  -2.586  0.00  0.00    +0.001 A 
ATOM      7  C   UNL     1      -0.068  -9.042  -1.398  0.00  0.00    +0.013 A 
ATOM      8  C   UNL     1      -0.069  -8.346  -0.189  0.00  0.00    +0.045 A 
ATOM      9  C   UNL     1      -0.149  -9.048   1.098  0.00  0.00    +0.254 C 
ATOM     10  O   UNL     1      -0.216 -10.262   1.114  0.00  0.00    -0.270 OA
ATOM     11  N   UNL     1      -0.149  -8.371   2.258  0.00  0.00    -0.230 N 
ATOM     12  C   UNL     1      -0.078  -7.032   2.321  0.00  0.00    +0.255 C 
ATOM     13  O   UNL     1      -0.084  -6.479   3.406  0.00  0.00    -0.269 OA
ENDROOT
BRANCH   1  14
ATOM     14  N   UNL     1       0.690  -4.164   0.154  0.00  0.00    -0.320 N 
ATOM     15  H   UNL     1       1.226  -4.705  -0.640  0.00  0.00    +0.152 HD
BRANCH  14  20
ATOM     16  C   UNL     1       0.479   1.503   0.080  0.00  0.00    +0.044 C 
ATOM     17  C   UNL     1       0.535  -0.003   0.100  0.00  0.00    -0.047 A 
ATOM     18  C   UNL     1      -0.087  -0.703   1.117  0.00  0.00    +0.005 A 
ATOM     19  C   UNL     1      -0.038  -2.083   1.138  0.00  0.00    +0.023 A 
ATOM     20  C   UNL     1       0.638  -2.768   0.135  0.00  0.00    +0.031 A 
ATOM     21  C   UNL     1       1.263  -2.061  -0.884  0.00  0.00    +0.026 A 
ATOM     22  C   UNL     1       1.204  -0.681  -0.902  0.00  0.00    -0.046 A 
ATOM     23  C   UNL     1       1.876   0.086  -2.012  0.00  0.00    +0.044 C 
ENDBRANCH  14  20
ENDBRANCH   1  14
BRANCH  11  24
ATOM     24  C   UNL     1      -0.232  -9.128   3.510  0.00  0.00    +0.152 C 
BRANCH  24  25
ATOM     25  C   UNL     1      -1.678  -9.310   3.893  0.00  0.00    -0.026 A 
ATOM     26  C   UNL     1      -2.376 -10.417   3.447  0.00  0.00    +0.009 A 
ATOM     27  C   UNL     1      -3.703 -10.588   3.795  0.00  0.00    +0.050 A 
ATOM     28  C   UNL     1      -4.337  -9.650   4.593  0.00  0.00    +0.166 A 
ATOM     29  C   UNL     1      -3.634  -8.534   5.043  0.00  0.00    +0.167 A 
ATOM     30  C   UNL     1      -2.303  -8.372   4.694  0.00  0.00    +0.054 A 
ATOM     31  O   UNL     1      -4.470  -7.769   5.803  0.00  0.00    -0.453 OA
ATOM     32  C   UNL     1      -5.800  -8.214   5.478  0.00  0.00    +0.466 C 
ATOM     33  O   UNL     1      -5.613  -9.583   5.072  0.00  0.00    -0.453 OA
ENDBRANCH  24  25
ENDBRANCH  11  24
TORSDOF 4
