REMARK  Name = ZINC10683211
REMARK  13 active torsions:
REMARK  status: ('A' for Active; 'I' for Inactive)
REMARK    1  A    between atoms: C_1  and  C_2
REMARK    2  A    between atoms: C_2  and  C_3
REMARK    3  A    between atoms: C_3  and  C_5
REMARK    4  A    between atoms: C_3  and  C_6
REMARK    5  A    between atoms: C_11  and  O_12
REMARK    6  A    between atoms: O_12  and  C_13
REMARK    7  A    between atoms: C_13  and  C_15
REMARK    8  A    between atoms: C_13  and  C_17
REMARK    9  A    between atoms: C_15  and  C_16
REMARK   10  A    between atoms: N_19  and  N_20
REMARK   11  A    between atoms: C_21  and  C_23
REMARK   12  A    between atoms: C_23  and  O_24
REMARK   13  A    between atoms: O_24  and  C_25
REMARK                            x       y       z     vdW  Elec       q    Type
REMARK                         _______ _______ _______ _____ _____    ______ ____
ROOT
ATOM      1  C   UNL     1       4.037  12.505   0.295  0.00  0.00    +0.270 C 
ATOM      2  O   UNL     1       5.166  12.072   0.380  0.00  0.00    -0.270 OA
ATOM      3  N   UNL     1       2.985  11.668   0.385  0.00  0.00    -0.231 N 
ATOM      4  H   UNL     1       2.081  12.015   0.317  0.00  0.00    +0.173 HD
ENDROOT
BRANCH   3   5
ATOM      5  N   UNL     1       3.196  10.296   0.577  0.00  0.00    -0.231 N 
ATOM      6  C   UNL     1       2.143   9.459   0.667  0.00  0.00    +0.267 C 
ATOM      7  O   UNL     1       1.014   9.892   0.582  0.00  0.00    -0.271 OA
ATOM      8  H   UNL     1       4.099   9.949   0.645  0.00  0.00    +0.173 HD
BRANCH   6   9
ATOM      9  C   UNL     1       2.370   7.983   0.874  0.00  0.00    +0.326 C 
BRANCH   9  10
ATOM     10  O   UNL     1       1.111   7.312   0.937  0.00  0.00    -0.482 OA
BRANCH  10  11
ATOM     11  C   UNL     1       1.138   5.965   1.121  0.00  0.00    +0.136 A 
ATOM     12  C   UNL     1       2.367   5.310   1.239  0.00  0.00    +0.047 A 
ATOM     13  C   UNL     1       2.426   3.964   1.425  0.00  0.00    +0.012 A 
ATOM     14  C   UNL     1       1.238   3.216   1.499  0.00  0.00    -0.017 A 
ATOM     15  C   UNL     1       1.263   1.824   1.690  0.00  0.00    +0.008 A 
ATOM     16  C   UNL     1       0.093   1.132   1.757  0.00  0.00    +0.001 A 
ATOM     17  C   UNL     1      -1.133   1.782   1.634  0.00  0.00    +0.001 A 
ATOM     18  C   UNL     1      -1.197   3.130   1.454  0.00  0.00    +0.010 A 
ATOM     19  C   UNL     1      -0.010   3.878   1.380  0.00  0.00    -0.000 A 
ATOM     20  C   UNL     1      -0.037   5.270   1.189  0.00  0.00    +0.067 A 
ATOM     21 BR   UNL     1      -1.689   6.176   1.027  0.00  0.00    -0.046 Br
ENDBRANCH  10  11
ENDBRANCH   9  10
ENDBRANCH   6   9
ENDBRANCH   3   5
BRANCH   1  22
ATOM     22  C   UNL     1       3.809  13.981   0.088  0.00  0.00    +0.260 C 
BRANCH  22  23
ATOM     23  C   UNL     1       3.160  14.210  -1.278  0.00  0.00    +0.051 C 
ATOM     24  C   UNL     1       2.816  15.693  -1.437  0.00  0.00    +0.008 C 
ENDBRANCH  22  23
BRANCH  22  25
ATOM     25  O   UNL     1       5.061  14.668   0.141  0.00  0.00    -0.479 OA
BRANCH  25  31
ATOM     26  C   UNL     1       6.227  16.661   0.711  0.00  0.00    -0.003 A 
ATOM     27  C   UNL     1       6.221  17.931   1.255  0.00  0.00    +0.007 A 
ATOM     28  C   UNL     1       5.049  18.460   1.764  0.00  0.00    +0.001 A 
ATOM     29  C   UNL     1       3.882  17.720   1.730  0.00  0.00    +0.004 A 
ATOM     30  C   UNL     1       3.882  16.452   1.183  0.00  0.00    +0.046 A 
ATOM     31  C   UNL     1       5.058  15.917   0.676  0.00  0.00    +0.125 A 
BRANCH  26  32
ATOM     32  C   UNL     1       7.505  16.086   0.155  0.00  0.00    +0.019 C 
ATOM     33  C   UNL     1       8.558  16.018   1.263  0.00  0.00    +0.012 C 
BRANCH  32  35
ATOM     34  C   UNL     1       9.240  16.328  -1.625  0.00  0.00    +0.004 C 
ATOM     35  C   UNL     1       8.014  16.977  -0.979  0.00  0.00    +0.004 C 
ENDBRANCH  32  35
ENDBRANCH  26  32
ENDBRANCH  25  31
ENDBRANCH  22  25
ENDBRANCH   1  22
TORSDOF 10
