REMARK  Name = ZINC63514076
REMARK  7 active torsions:
REMARK  status: ('A' for Active; 'I' for Inactive)
REMARK    1  A    between atoms: C_1  and  C_2
REMARK    2  A    between atoms: C_4  and  C_12
REMARK    3  A    between atoms: C_12  and  C_13
REMARK    4  A    between atoms: C_13  and  N_14
REMARK    5  A    between atoms: C_24  and  C_29
REMARK    6  A    between atoms: C_24  and  C_33
REMARK    7  A    between atoms: C_26  and  C_28
REMARK                            x       y       z     vdW  Elec       q    Type
REMARK                         _______ _______ _______ _____ _____    ______ ____
ROOT
ATOM      1  N   UNL     1      -0.519  -0.693  -4.042  0.00  0.00    -0.264 N 
ATOM      2  C   UNL     1      -0.678  -1.618  -5.175  0.00  0.00    +0.178 C 
ATOM      3  C   UNL     1      -1.608  -0.956  -6.200  0.00  0.00    +0.159 C 
ATOM      4  C   UNL     1      -1.140   0.448  -6.462  0.00  0.00    +0.250 C 
ATOM      5  O   UNL     1      -1.266   0.981  -7.689  0.00  0.00    -0.273 OA
ATOM      6  N   UNL     1      -0.613   1.149  -5.495  0.00  0.00    -0.128 NA
ATOM      7  C   UNL     1      -0.435   0.630  -4.267  0.00  0.00    +0.330 C 
ATOM      8  O   UNL     1      -0.216   1.377  -3.332  0.00  0.00    -0.250 OA
ATOM      9  C   UNL     1      -1.622  -1.766  -7.489  0.00  0.00    +0.244 C 
ATOM     10  N   UNL     1      -0.272  -2.126  -7.905  0.00  0.00    -0.356 N 
ATOM     11  C   UNL     1       0.737  -2.126  -7.117  0.00  0.00    +0.067 C 
ATOM     12  N   UNL     1       0.646  -1.794  -5.795  0.00  0.00    -0.315 N 
ATOM     13  C   UNL     1       2.080  -2.541  -7.661  0.00  0.00    +0.080 C 
ATOM     14  H   UNL     1       1.452  -1.647  -5.275  0.00  0.00    +0.149 HD
ATOM     15  H   UNL     1      -0.131  -2.378  -8.831  0.00  0.00    +0.162 HD
ENDROOT
BRANCH   9  16
ATOM     16  C   UNL     1      -2.434  -3.044  -7.268  0.00  0.00    +0.422 C 
ATOM     17  F   UNL     1      -3.744  -2.708  -6.909  0.00  0.00    -0.168 F 
ATOM     18  F   UNL     1      -2.453  -3.795  -8.448  0.00  0.00    -0.168 F 
ATOM     19  F   UNL     1      -1.849  -3.798  -6.245  0.00  0.00    -0.168 F 
ENDBRANCH   9  16
BRANCH   9  20
ATOM     20  C   UNL     1      -2.283  -0.939  -8.593  0.00  0.00    +0.422 C 
ATOM     21  F   UNL     1      -1.308  -0.194  -9.264  0.00  0.00    -0.168 F 
ATOM     22  F   UNL     1      -2.921  -1.794  -9.498  0.00  0.00    -0.168 F 
ATOM     23  F   UNL     1      -3.225  -0.073  -8.026  0.00  0.00    -0.168 F 
ENDBRANCH   9  20
BRANCH   1  24
ATOM     24  C   UNL     1      -0.458  -1.211  -2.673  0.00  0.00    +0.115 C 
BRANCH  24  25
ATOM     25  C   UNL     1      -1.872  -1.283  -2.092  0.00  0.00    +0.052 C 
BRANCH  25  28
ATOM     26  C   UNL     1      -3.700  -0.728   0.527  0.00  0.00    +0.035 C 
ATOM     27  C   UNL     1      -2.973  -2.046   0.254  0.00  0.00    +0.103 C 
ATOM     28  C   UNL     1      -1.809  -1.816  -0.683  0.00  0.00    -0.037 C 
ATOM     29  C   UNL     1      -0.701  -2.184  -0.002  0.00  0.00    -0.001 A 
ATOM     30  C   UNL     1       0.724  -2.200  -0.354  0.00  0.00    +0.010 A 
ATOM     31  C   UNL     1       1.621  -2.634   0.559  0.00  0.00    +0.001 A 
ATOM     32  C   UNL     1       1.226  -3.069   1.832  0.00  0.00    +0.002 A 
ATOM     33  C   UNL     1      -0.064  -3.084   2.229  0.00  0.00    +0.026 A 
ATOM     34  C   UNL     1      -1.093  -2.649   1.348  0.00  0.00    +0.043 A 
ATOM     35  N   UNL     1      -2.394  -2.571   1.496  0.00  0.00    -0.378 N 
ATOM     36  H   UNL     1      -2.891  -2.818   2.292  0.00  0.00    +0.160 HD
ENDBRANCH  25  28
ENDBRANCH  24  25
ENDBRANCH   1  24
TORSDOF 5
