REMARK  Name = ZINC21019129
REMARK  4 active torsions:
REMARK  status: ('A' for Active; 'I' for Inactive)
REMARK    1  A    between atoms: C_1  and  C_2
REMARK    2  A    between atoms: C_2  and  C_3
REMARK    3  A    between atoms: C_3  and  C_5
REMARK    4  A    between atoms: C_3  and  N_6
REMARK                            x       y       z     vdW  Elec       q    Type
REMARK                         _______ _______ _______ _____ _____    ______ ____
ROOT
ATOM      1  N   UNL     1      -4.179   7.062   4.847  0.00  0.00    -0.297 N 
ATOM      2  C   UNL     1      -4.343   7.383   3.548  0.00  0.00    +0.302 C 
ATOM      3  O   UNL     1      -5.257   8.111   3.212  0.00  0.00    -0.253 OA
ATOM      4  N   UNL     1      -3.493   6.897   2.622  0.00  0.00    -0.285 N 
ATOM      5  C   UNL     1      -2.320   6.107   3.022  0.00  0.00    +0.115 C 
ATOM      6  C   UNL     1      -2.337   4.779   2.260  0.00  0.00    +0.088 C 
ATOM      7  C   UNL     1      -2.419   5.059   0.756  0.00  0.00    +0.181 C 
ATOM      8  C   UNL     1      -3.721   5.807   0.450  0.00  0.00    +0.088 C 
ATOM      9  C   UNL     1      -3.721   7.147   1.192  0.00  0.00    +0.115 C 
ATOM     10  N   UNL     1      -1.280   5.889   0.356  0.00  0.00    -0.274 N 
ATOM     11  C   UNL     1      -0.101   5.311   0.030  0.00  0.00    +0.250 C 
ATOM     12  O   UNL     1       0.874   5.983  -0.247  0.00  0.00    -0.270 OA
ATOM     13  C   UNL     1      -0.039   3.835   0.022  0.00  0.00    +0.078 A 
ATOM     14  C   UNL     1       1.173   3.152   0.006  0.00  0.00    +0.017 A 
ATOM     15  C   UNL     1       1.174   1.771   0.000  0.00  0.00    +0.001 A 
ATOM     16  C   UNL     1      -0.020   1.070   0.009  0.00  0.00    +0.004 A 
ATOM     17  C   UNL     1      -1.230   1.739   0.019  0.00  0.00    +0.046 A 
ATOM     18  C   UNL     1      -1.249   3.123   0.031  0.00  0.00    +0.135 A 
ATOM     19  O   UNL     1      -2.412   3.818   0.046  0.00  0.00    -0.468 OA
ATOM     20  H   UNL     1      -3.305   6.473   5.162  0.00  0.00    +0.151 HD
ATOM     21  H   UNL     1      -1.383   6.984   0.322  0.00  0.00    +0.153 HD
ENDROOT
BRANCH   1  22
ATOM     22  C   UNL     1      -5.165   7.498   5.839  0.00  0.00    +0.071 C 
ATOM     23  C   UNL     1      -6.318   6.493   5.888  0.00  0.00    +0.028 C 
BRANCH  22  25
ATOM     24  C   UNL     1      -3.431   8.673   7.201  0.00  0.00    +0.005 C 
ATOM     25  C   UNL     1      -4.501   7.580   7.215  0.00  0.00    +0.019 C 
ENDBRANCH  22  25
ENDBRANCH   1  22
TORSDOF 2
