REMARK  Name = ZINC07400239
REMARK  8 active torsions:
REMARK  status: ('A' for Active; 'I' for Inactive)
REMARK    1  A    between atoms: C_1  and  C_2
REMARK    2  A    between atoms: C_6  and  N_9
REMARK    3  A    between atoms: C_7  and  C_8
REMARK    4  A    between atoms: C_10  and  C_12
REMARK    5  A    between atoms: C_12  and  C_14
REMARK    6  A    between atoms: C_12  and  S_15
REMARK    7  A    between atoms: S_15  and  C_16
REMARK    8  A    between atoms: C_19  and  N_22
REMARK                            x       y       z     vdW  Elec       q    Type
REMARK                         _______ _______ _______ _____ _____    ______ ____
ROOT
ATOM      1  N   UNL     1      -1.573   3.804  -0.670  0.00  0.00    -0.284 N 
ATOM      2  C   UNL     1      -0.903   2.665  -0.937  0.00  0.00    +0.230 C 
ATOM      3  O   UNL     1      -0.873   2.230  -2.069  0.00  0.00    -0.274 OA
ATOM      4  H   UNL     1      -1.664   4.110   0.245  0.00  0.00    +0.155 HD
ENDROOT
BRANCH   1  10
ATOM      5  C   UNL     1      -4.821   7.161  -2.205  0.00  0.00    +0.044 C 
ATOM      6  C   UNL     1      -3.712   6.179  -2.487  0.00  0.00    -0.046 A 
ATOM      7  C   UNL     1      -3.252   6.010  -3.780  0.00  0.00    +0.004 A 
ATOM      8  C   UNL     1      -2.236   5.109  -4.043  0.00  0.00    +0.002 A 
ATOM      9  C   UNL     1      -1.677   4.377  -3.014  0.00  0.00    +0.023 A 
ATOM     10  C   UNL     1      -2.137   4.545  -1.715  0.00  0.00    +0.037 A 
ATOM     11  C   UNL     1      -3.162   5.445  -1.455  0.00  0.00    -0.026 A 
ATOM     12  C   UNL     1      -3.668   5.626  -0.047  0.00  0.00    +0.046 C 
ENDBRANCH   1  10
BRANCH   2  13
ATOM     13  C   UNL     1      -0.191   1.933   0.171  0.00  0.00    +0.134 C 
ATOM     14  C   UNL     1       1.151   2.611   0.452  0.00  0.00    +0.029 C 
BRANCH  13  15
ATOM     15  S   UNL     1       0.094   0.212  -0.327  0.00  0.00    -0.113 S 
BRANCH  15  16
ATOM     16  C   UNL     1       0.798  -0.535   1.105  0.00  0.00    +0.009 A 
ATOM     17  C   UNL     1       2.178  -0.643   1.227  0.00  0.00    +0.017 A 
ATOM     18  C   UNL     1       2.727  -1.224   2.353  0.00  0.00    +0.034 A 
ATOM     19  C   UNL     1       1.904  -1.709   3.354  0.00  0.00    +0.126 A 
ATOM     20  C   UNL     1       0.529  -1.609   3.232  0.00  0.00    +0.034 A 
ATOM     21  C   UNL     1      -0.026  -1.024   2.112  0.00  0.00    +0.017 A 
BRANCH  19  22
ATOM     22  N   UNL     1       2.495  -2.336   4.557  0.00  0.00    +0.056 N 
ATOM     23  O   UNL     1       1.772  -2.764   5.439  0.00  0.00    -0.126 OA
ATOM     24  O   UNL     1       3.705  -2.425   4.665  0.00  0.00    -0.126 OA
ENDBRANCH  19  22
ENDBRANCH  15  16
ENDBRANCH  13  15
ENDBRANCH   2  13
TORSDOF 5
