REMARK  Name = ZINC43765330
REMARK  6 active torsions:
REMARK  status: ('A' for Active; 'I' for Inactive)
REMARK    1  A    between atoms: C_1  and  C_2
REMARK    2  A    between atoms: C_5  and  C_8
REMARK    3  A    between atoms: C_19  and  S_24
REMARK    4  A    between atoms: S_24  and  N_27
REMARK    5  A    between atoms: N_27  and  C_28
REMARK    6  A    between atoms: C_33  and  C_34
REMARK                            x       y       z     vdW  Elec       q    Type
REMARK                         _______ _______ _______ _____ _____    ______ ____
ROOT
ATOM      1  C   UNL     1       0.131  -4.037   0.465  0.00  0.00    +0.105 C 
ATOM      2  C   UNL     1      -1.290  -4.531   0.638  0.00  0.00    +0.029 C 
ATOM      3  C   UNL     1      -1.970  -4.544  -0.760  0.00  0.00    +0.033 C 
ATOM      4  C   UNL     1      -1.735  -5.947  -1.274  0.00  0.00    -0.030 C 
ATOM      5  C   UNL     1      -1.410  -6.755  -0.297  0.00  0.00    -0.023 C 
ATOM      6  C   UNL     1      -1.388  -6.004   1.031  0.00  0.00    +0.049 C 
ATOM      7  C   UNL     1      -0.307  -6.474   1.945  0.00  0.00    -0.018 A 
ATOM      8  C   UNL     1      -0.472  -7.673   2.622  0.00  0.00    +0.034 A 
ATOM      9  C   UNL     1       0.503  -8.131   3.486  0.00  0.00    +0.109 A 
ATOM     10  C   UNL     1       1.656  -7.395   3.685  0.00  0.00    +0.030 A 
ATOM     11  C   UNL     1       1.833  -6.203   3.012  0.00  0.00    +0.025 A 
ATOM     12  C   UNL     1       0.856  -5.744   2.136  0.00  0.00    +0.031 A 
ATOM     13  N   UNL     1       1.066  -4.574   1.429  0.00  0.00    -0.336 N 
ATOM     14  H   UNL     1       1.880  -4.078   1.607  0.00  0.00    +0.147 HD
ENDROOT
BRANCH   1  19
ATOM     15  C   UNL     1       0.138   1.724   0.910  0.00  0.00    +0.044 C 
ATOM     16  C   UNL     1       0.136   0.222   0.794  0.00  0.00    -0.050 A 
ATOM     17  C   UNL     1       0.121  -0.375  -0.453  0.00  0.00    +0.004 A 
ATOM     18  C   UNL     1       0.120  -1.754  -0.559  0.00  0.00    +0.006 A 
ATOM     19  C   UNL     1       0.134  -2.535   0.581  0.00  0.00    -0.027 A 
ATOM     20  C   UNL     1       0.150  -1.938   1.827  0.00  0.00    +0.006 A 
ATOM     21  C   UNL     1       0.155  -0.560   1.934  0.00  0.00    +0.004 A 
ENDBRANCH   1  19
BRANCH   9  22
ATOM     22  S   UNL     1       0.277  -9.657   4.336  0.00  0.00    +0.072 S 
ATOM     23  O   UNL     1       1.089  -9.598   5.501  0.00  0.00    -0.150 OA
ATOM     24  O   UNL     1      -1.125  -9.886   4.395  0.00  0.00    -0.150 OA
BRANCH  22  25
ATOM     25  N   UNL     1       0.910 -10.850   3.378  0.00  0.00    -0.216 N 
ATOM     26  H   UNL     1       0.342 -11.567   3.056  0.00  0.00    +0.174 HD
BRANCH  25  27
ATOM     27  C   UNL     1       2.264 -10.824   3.034  0.00  0.00    +0.052 A 
ATOM     28  C   UNL     1       3.205 -10.363   3.945  0.00  0.00    +0.025 A 
ATOM     29  C   UNL     1       4.543 -10.339   3.602  0.00  0.00    +0.003 A 
ATOM     30  C   UNL     1       4.946 -10.772   2.352  0.00  0.00    +0.020 A 
ATOM     31  C   UNL     1       4.011 -11.232   1.442  0.00  0.00    +0.046 A 
ATOM     32  C   UNL     1       2.671 -11.264   1.781  0.00  0.00    -0.010 A 
ATOM     33  C   UNL     1       1.654 -11.770   0.791  0.00  0.00    +0.047 C 
ATOM     34 CL   UNL     1       4.522 -11.774  -0.127  0.00  0.00    -0.083 Cl
ENDBRANCH  25  27
ENDBRANCH  22  25
ENDBRANCH   9  22
TORSDOF 4
