REMARK  Name = ZINC63772580
REMARK  8 active torsions:
REMARK  status: ('A' for Active; 'I' for Inactive)
REMARK    1  A    between atoms: C_1  and  C_2
REMARK    2  A    between atoms: C_7  and  S_12
REMARK    3  A    between atoms: S_12  and  C_13
REMARK    4  A    between atoms: C_13  and  C_14
REMARK    5  A    between atoms: N_16  and  C_17
REMARK    6  A    between atoms: C_19  and  C_32
REMARK    7  A    between atoms: C_32  and  O_34
REMARK    8  A    between atoms: O_34  and  C_35
REMARK                            x       y       z     vdW  Elec       q    Type
REMARK                         _______ _______ _______ _____ _____    ______ ____
ROOT
ATOM      1  C   UNL     1       4.241  -4.802   1.804  0.00  0.00    +0.224 C 
ATOM      2  O   UNL     1       4.268  -5.870   2.379  0.00  0.00    -0.275 OA
ATOM      3  N   UNL     1       5.393  -4.186   1.474  0.00  0.00    -0.302 N 
ATOM      4  H   UNL     1       5.372  -3.332   1.014  0.00  0.00    +0.150 HD
ENDROOT
BRANCH   3   5
ATOM      5  C   UNL     1       6.676  -4.803   1.810  0.00  0.00    +0.145 C 
ATOM      6  C   UNL     1       7.683  -4.641   0.654  0.00  0.00    +0.132 C 
ATOM      7  C   UNL     1       9.130  -4.700   1.161  0.00  0.00    +0.018 C 
ATOM      8  C   UNL     1       9.474  -6.145   1.554  0.00  0.00    +0.005 C 
ATOM      9  C   UNL     1      10.963  -6.465   1.322  0.00  0.00    +0.000 C 
ATOM     10  C   UNL     1      11.837  -5.680   2.241  0.00  0.00    +0.000 C 
ATOM     11  C   UNL     1      11.994  -4.245   1.822  0.00  0.00    +0.000 C 
ATOM     12  C   UNL     1      11.610  -3.331   2.995  0.00  0.00    +0.001 C 
ATOM     13  C   UNL     1      10.254  -3.945   3.451  0.00  0.00    +0.014 C 
ATOM     14  C   UNL     1       9.213  -3.777   2.392  0.00  0.00    +0.052 C 
ATOM     15  S   UNL     1       7.534  -3.853   3.131  0.00  0.00    -0.134 S 
BRANCH   6  16
ATOM     16  C   UNL     1       7.412  -5.630  -0.433  0.00  0.00    +0.313 C 
ATOM     17  O   UNL     1       8.250  -6.449  -0.728  0.00  0.00    -0.250 OA
BRANCH  16  18
ATOM     18  O   UNL     1       6.237  -5.608  -1.082  0.00  0.00    -0.468 OA
ATOM     19  C   UNL     1       6.045  -6.582  -2.110  0.00  0.00    +0.280 C 
ENDBRANCH  16  18
ENDBRANCH   6  16
ENDBRANCH   3   5
BRANCH   1  20
ATOM     20  C   UNL     1       2.920  -4.166   1.458  0.00  0.00    +0.168 C 
BRANCH  20  21
ATOM     21  S   UNL     1       1.567  -5.231   2.029  0.00  0.00    -0.106 S 
BRANCH  21  28
ATOM     22  C   UNL     1      -0.018   1.503   0.010  0.00  0.00    +0.044 C 
ATOM     23  C   UNL     1       0.002  -0.004   0.002  0.00  0.00    -0.048 A 
ATOM     24  C   UNL     1       0.005  -0.672  -1.235  0.00  0.00    +0.005 A 
ATOM     25  C   UNL     1       0.022  -2.017  -1.335  0.00  0.00    +0.028 A 
ATOM     26  C   UNL     1       0.040  -2.834  -0.114  0.00  0.00    +0.061 A 
ATOM     27  N   UNL     1       0.057  -4.120   0.090  0.00  0.00    -0.355 N 
ATOM     28  C   UNL     1       0.067  -4.335   1.542  0.00  0.00    +0.236 C 
ATOM     29  N   UNL     1       0.053  -3.002   2.159  0.00  0.00    -0.355 N 
ATOM     30  C   UNL     1       0.037  -2.127   1.195  0.00  0.00    +0.061 A 
ATOM     31  C   UNL     1       0.022  -0.657   1.181  0.00  0.00    +0.030 A 
ATOM     32  H   UNL     1       0.062  -4.809  -0.593  0.00  0.00    +0.162 HD
ATOM     33  H   UNL     1       0.055  -2.810   3.109  0.00  0.00    +0.162 HD
ENDBRANCH  21  28
ENDBRANCH  20  21
ENDBRANCH   1  20
TORSDOF 6
