REMARK  Name = ZINC36599009
REMARK  15 active torsions:
REMARK  status: ('A' for Active; 'I' for Inactive)
REMARK    1  A    between atoms: C_1  and  C_2
REMARK    2  A    between atoms: C_5  and  C_7
REMARK    3  A    between atoms: C_7  and  N_8
REMARK    4  A    between atoms: N_8  and  C_9
REMARK    5  A    between atoms: C_9  and  C_11
REMARK    6  A    between atoms: C_9  and  C_18
REMARK    7  A    between atoms: C_16  and  O_17
REMARK    8  A    between atoms: N_20  and  C_21
REMARK    9  A    between atoms: C_21  and  C_22
REMARK   10  A    between atoms: C_21  and  C_23
REMARK   11  A    between atoms: C_21  and  C_24
REMARK   12  A    between atoms: C_25  and  C_27
REMARK   13  A    between atoms: C_27  and  C_28
REMARK   14  A    between atoms: C_27  and  C_34
REMARK   15  A    between atoms: C_27  and  O_40
REMARK                            x       y       z     vdW  Elec       q    Type
REMARK                         _______ _______ _______ _____ _____    ______ ____
ROOT
ATOM      1  N   UNL     1       1.028  -3.751  -1.149  0.00  0.00    -0.276 N 
ATOM      2  C   UNL     1       0.671  -4.731  -2.003  0.00  0.00    +0.258 C 
ATOM      3  O   UNL     1       1.193  -4.803  -3.095  0.00  0.00    -0.272 OA
ENDROOT
BRANCH   1   4
ATOM      4  C   UNL     1       0.519  -3.754   0.224  0.00  0.00    +0.183 C 
BRANCH   4   9
ATOM      5  C   UNL     1       3.345  -7.066   2.772  0.00  0.00    +0.086 C 
ATOM      6  C   UNL     1       2.795  -5.761   2.255  0.00  0.00    +0.102 A 
ATOM      7  C   UNL     1       3.231  -4.535   2.594  0.00  0.00    +0.045 A 
ATOM      8  C   UNL     1       2.439  -3.607   1.880  0.00  0.00    +0.046 A 
ATOM      9  C   UNL     1       1.566  -4.321   1.147  0.00  0.00    +0.122 A 
ATOM     10  O   UNL     1       1.790  -5.626   1.374  0.00  0.00    -0.463 OA
ENDBRANCH   4   9
ENDBRANCH   1   4
BRANCH   1  11
ATOM     11  C   UNL     1       1.926  -2.683  -1.595  0.00  0.00    +0.196 C 
BRANCH  11  12
ATOM     12  C   UNL     1       3.164  -2.676  -0.736  0.00  0.00    +0.023 A 
ATOM     13  C   UNL     1       3.344  -1.686   0.210  0.00  0.00    +0.009 A 
ATOM     14  C   UNL     1       4.480  -1.679   0.998  0.00  0.00    +0.001 A 
ATOM     15  C   UNL     1       5.439  -2.663   0.841  0.00  0.00    +0.004 A 
ATOM     16  C   UNL     1       5.264  -3.655  -0.103  0.00  0.00    +0.046 A 
ATOM     17  C   UNL     1       4.122  -3.667  -0.892  0.00  0.00    +0.122 A 
BRANCH  17  18
ATOM     18  O   UNL     1       3.945  -4.646  -1.818  0.00  0.00    -0.506 OA
ATOM     19  H   UNL     1       4.374  -4.467  -2.666  0.00  0.00    +0.292 HD
ENDBRANCH  17  18
ENDBRANCH  11  12
BRANCH  11  20
ATOM     20  C   UNL     1       1.224  -1.354  -1.475  0.00  0.00    +0.239 C 
ATOM     21  O   UNL     1       0.151  -1.284  -0.915  0.00  0.00    -0.273 OA
ATOM     22  N   UNL     1       1.790  -0.244  -1.989  0.00  0.00    -0.309 N 
ATOM     23  H   UNL     1       2.612  -0.311  -2.499  0.00  0.00    +0.149 HD
BRANCH  22  24
ATOM     24  C   UNL     1       1.162   1.063  -1.779  0.00  0.00    +0.026 C 
ATOM     25  C   UNL     1       1.078   1.352  -0.279  0.00  0.00    +0.031 C 
ATOM     26  C   UNL     1       1.999   2.146  -2.462  0.00  0.00    +0.031 C 
ATOM     27  C   UNL     1      -0.246   1.054  -2.377  0.00  0.00    +0.031 C 
ENDBRANCH  22  24
ENDBRANCH  11  20
ENDBRANCH   1  11
BRANCH   2  28
ATOM     28  C   UNL     1      -0.376  -5.737  -1.600  0.00  0.00    +0.192 C 
BRANCH  28  29
ATOM     29  C   UNL     1      -0.941  -6.395  -2.832  0.00  0.00    -0.003 A 
ATOM     30  C   UNL     1      -0.095  -7.004  -3.740  0.00  0.00    +0.007 A 
ATOM     31  C   UNL     1      -0.613  -7.608  -4.870  0.00  0.00    +0.000 A 
ATOM     32  C   UNL     1      -1.977  -7.604  -5.092  0.00  0.00    +0.000 A 
ATOM     33  C   UNL     1      -2.824  -6.996  -4.184  0.00  0.00    +0.000 A 
ATOM     34  C   UNL     1      -2.306  -6.396  -3.051  0.00  0.00    +0.007 A 
ENDBRANCH  28  29
BRANCH  28  35
ATOM     35  C   UNL     1       0.247  -6.783  -0.712  0.00  0.00    -0.003 A 
ATOM     36  C   UNL     1       1.511  -7.267  -0.997  0.00  0.00    +0.007 A 
ATOM     37  C   UNL     1       2.083  -8.227  -0.182  0.00  0.00    +0.000 A 
ATOM     38  C   UNL     1       1.392  -8.702   0.916  0.00  0.00    +0.000 A 
ATOM     39  C   UNL     1       0.129  -8.217   1.202  0.00  0.00    +0.000 A 
ATOM     40  C   UNL     1      -0.442  -7.255   0.390  0.00  0.00    +0.007 A 
ENDBRANCH  28  35
BRANCH  28  41
ATOM     41  O   UNL     1      -1.425  -5.074  -0.890  0.00  0.00    -0.371 OA
ATOM     42  H   UNL     1      -1.919  -4.437  -1.424  0.00  0.00    +0.212 HD
ENDBRANCH  28  41
ENDBRANCH   2  28
TORSDOF 11
