REMARK  Name = ZINC03307852
REMARK  6 active torsions:
REMARK  status: ('A' for Active; 'I' for Inactive)
REMARK    1  A    between atoms: C_1  and  C_2
REMARK    2  A    between atoms: C_12  and  S_14
REMARK    3  A    between atoms: S_14  and  C_15
REMARK    4  A    between atoms: C_15  and  C_17
REMARK    5  A    between atoms: C_15  and  C_18
REMARK    6  A    between atoms: N_20  and  C_21
REMARK                            x       y       z     vdW  Elec       q    Type
REMARK                         _______ _______ _______ _____ _____    ______ ____
ROOT
ATOM      1  S   UNL     1       4.513  -0.860  -0.045  0.00  0.00    -0.093 S 
ENDROOT
BRANCH   1  13
ATOM      2  C   UNL     1       4.653   4.252  -0.056  0.00  0.00    +0.088 C 
ATOM      3  C   UNL     1       3.799   3.010  -0.046  0.00  0.00    +0.128 A 
ATOM      4  N   UNL     1       2.485   3.132  -0.034  0.00  0.00    -0.225 NA
ATOM      5  C   UNL     1       1.718   2.058  -0.025  0.00  0.00    +0.113 A 
ATOM      6  C   UNL     1       2.268   0.763  -0.028  0.00  0.00    +0.043 A 
ATOM      7  C   UNL     1       1.301  -0.347  -0.018  0.00  0.00    -0.025 A 
ATOM      8  C   UNL     1      -0.001  -0.018  -0.004  0.00  0.00    -0.004 A 
ATOM      9  S   UNL     1      -0.028   1.761  -0.007  0.00  0.00    -0.073 S 
ATOM     10  C   UNL     1      -0.893  -1.230   0.011  0.00  0.00    +0.043 C 
ATOM     11  C   UNL     1       0.033  -2.388   0.442  0.00  0.00    +0.010 C 
ATOM     12  C   UNL     1       1.411  -1.874  -0.019  0.00  0.00    +0.037 C 
ATOM     13  C   UNL     1       3.689   0.698  -0.041  0.00  0.00    +0.110 A 
ATOM     14  N   UNL     1       4.383   1.826  -0.049  0.00  0.00    -0.225 NA
ENDBRANCH   1  13
BRANCH   1  15
ATOM     15  C   UNL     1       6.235  -0.304  -0.061  0.00  0.00    +0.136 C 
ATOM     16  C   UNL     1       6.545   0.434   1.242  0.00  0.00    +0.029 C 
BRANCH  15  17
ATOM     17  C   UNL     1       7.147  -1.497  -0.192  0.00  0.00    +0.230 C 
ATOM     18  O   UNL     1       6.741  -2.604   0.093  0.00  0.00    -0.274 OA
ATOM     19  N   UNL     1       8.413  -1.334  -0.624  0.00  0.00    -0.285 N 
ATOM     20  H   UNL     1       8.717  -0.460  -0.916  0.00  0.00    +0.155 HD
BRANCH  19  21
ATOM     21  C   UNL     1       9.288  -2.425  -0.653  0.00  0.00    +0.036 A 
ATOM     22  C   UNL     1      10.637  -2.242  -0.381  0.00  0.00    +0.043 A 
ATOM     23  C   UNL     1      11.499  -3.322  -0.405  0.00  0.00    +0.044 A 
ATOM     24  C   UNL     1      11.021  -4.584  -0.711  0.00  0.00    +0.040 A 
ATOM     25  C   UNL     1       9.677  -4.769  -0.988  0.00  0.00    +0.044 A 
ATOM     26  C   UNL     1       8.810  -3.692  -0.960  0.00  0.00    +0.043 A 
ATOM     27 CL   UNL     1       9.081  -6.353  -1.371  0.00  0.00    -0.083 Cl
ATOM     28 CL   UNL     1      13.185  -3.095  -0.059  0.00  0.00    -0.083 Cl
ENDBRANCH  19  21
ENDBRANCH  15  17
ENDBRANCH   1  15
TORSDOF 4
