REMARK  Name = ZINC24757336
REMARK  4 active torsions:
REMARK  status: ('A' for Active; 'I' for Inactive)
REMARK    1  A    between atoms: C_1  and  C_2
REMARK    2  A    between atoms: C_15  and  C_17
REMARK    3  A    between atoms: C_17  and  N_18
REMARK    4  A    between atoms: C_26  and  C_27
REMARK                            x       y       z     vdW  Elec       q    Type
REMARK                         _______ _______ _______ _____ _____    ______ ____
ROOT
ATOM      1  C   UNL     1       3.517  -1.094   0.999  0.00  0.00    +0.029 C 
ATOM      2  C   UNL     1       2.056  -0.700   1.224  0.00  0.00    +0.087 C 
ATOM      3  C   UNL     1       1.305  -0.750  -0.109  0.00  0.00    +0.118 C 
ATOM      4  C   UNL     1       0.002  -0.004   0.002  0.00  0.00    +0.219 C 
ATOM      5  O   UNL     1      -1.039  -0.621   0.086  0.00  0.00    -0.275 OA
ATOM      6  N   UNL     1      -0.016   1.348   0.009  0.00  0.00    -0.284 N 
ATOM      7  C   UNL     1       1.179   2.076   0.002  0.00  0.00    +0.055 A 
ATOM      8  C   UNL     1       1.370   3.122  -0.886  0.00  0.00    +0.025 A 
ATOM      9  C   UNL     1       2.548   3.847  -0.851  0.00  0.00    +0.002 A 
ATOM     10  C   UNL     1       3.532   3.531   0.068  0.00  0.00    +0.002 A 
ATOM     11  C   UNL     1       3.353   2.480   0.949  0.00  0.00    +0.025 A 
ATOM     12  C   UNL     1       2.182   1.741   0.912  0.00  0.00    +0.058 A 
ATOM     13  N   UNL     1       1.996   0.654   1.776  0.00  0.00    -0.265 N 
ATOM     14  C   UNL     1       1.767   0.851   3.089  0.00  0.00    +0.240 C 
ATOM     15  O   UNL     1       1.608  -0.099   3.826  0.00  0.00    -0.273 OA
ATOM     16  H   UNL     1      -0.976   1.885   0.022  0.00  0.00    +0.155 HD
ENDROOT
BRANCH  14  17
ATOM     17  C   UNL     1       1.709   2.252   3.642  0.00  0.00    +0.220 C 
BRANCH  17  18
ATOM     18  N   UNL     1       1.450   2.197   5.083  0.00  0.00    -0.311 N 
ATOM     19  C   UNL     1       2.399   2.135   6.083  0.00  0.00    +0.069 A 
ATOM     20  C   UNL     1       3.787   2.105   6.099  0.00  0.00    +0.028 A 
ATOM     21  C   UNL     1       4.455   2.041   7.303  0.00  0.00    +0.002 A 
ATOM     22  C   UNL     1       3.750   2.006   8.497  0.00  0.00    +0.002 A 
ATOM     23  C   UNL     1       2.384   2.035   8.502  0.00  0.00    +0.030 A 
ATOM     24  C   UNL     1       1.686   2.101   7.293  0.00  0.00    +0.090 A 
ATOM     25  N   UNL     1       0.366   2.142   6.976  0.00  0.00    -0.224 NA
ATOM     26  C   UNL     1       0.229   2.205   5.683  0.00  0.00    +0.216 A 
BRANCH  26  27
ATOM     27  C   UNL     1      -1.090   2.272   4.957  0.00  0.00    +0.451 C 
ATOM     28  F   UNL     1      -2.104   2.602   5.862  0.00  0.00    -0.163 F 
ATOM     29  F   UNL     1      -1.022   3.246   3.956  0.00  0.00    -0.163 F 
ATOM     30  F   UNL     1      -1.368   1.028   4.380  0.00  0.00    -0.163 F 
ENDBRANCH  26  27
ENDBRANCH  17  18
ENDBRANCH  14  17
TORSDOF 3
