REMARK  Name = ZINC54744523
REMARK  6 active torsions:
REMARK  status: ('A' for Active; 'I' for Inactive)
REMARK    1  A    between atoms: C_1  and  C_2
REMARK    2  A    between atoms: C_2  and  C_3
REMARK    3  A    between atoms: C_2  and  N_4
REMARK    4  A    between atoms: N_4  and  C_5
REMARK    5  A    between atoms: C_5  and  C_6
REMARK    6  A    between atoms: N_10  and  C_11
REMARK                            x       y       z     vdW  Elec       q    Type
REMARK                         _______ _______ _______ _____ _____    ______ ____
ROOT
ATOM      1  C   UNL     1      -3.464  -0.913  -0.634  0.00  0.00    +0.140 A 
ATOM      2  N   UNL     1      -3.940  -2.040  -1.094  0.00  0.00    -0.115 NA
ATOM      3  N   UNL     1      -5.223  -2.002  -1.147  0.00  0.00    -0.023 NA
ATOM      4  N   UNL     1      -5.652  -0.861  -0.728  0.00  0.00    -0.039 NA
ATOM      5  N   UNL     1      -4.518  -0.109  -0.372  0.00  0.00    -0.197 N 
ENDROOT
BRANCH   5   6
ATOM      6  C   UNL     1      -4.487   1.196   0.141  0.00  0.00    +0.097 A 
ATOM      7  C   UNL     1      -3.975   2.234  -0.627  0.00  0.00    +0.045 A 
ATOM      8  C   UNL     1      -3.946   3.519  -0.118  0.00  0.00    +0.032 A 
ATOM      9  C   UNL     1      -4.426   3.771   1.155  0.00  0.00    +0.020 A 
ATOM     10  C   UNL     1      -4.937   2.739   1.922  0.00  0.00    +0.032 A 
ATOM     11  C   UNL     1      -4.974   1.453   1.416  0.00  0.00    +0.045 A 
ATOM     12 BR   UNL     1      -5.678   0.045   2.463  0.00  0.00    -0.048 Br
ATOM     13 BR   UNL     1      -4.384   5.530   1.847  0.00  0.00    -0.050 Br
ATOM     14 BR   UNL     1      -3.318   1.889  -2.366  0.00  0.00    -0.048 Br
ENDBRANCH   5   6
BRANCH   1  15
ATOM     15  C   UNL     1      -2.010  -0.575  -0.428  0.00  0.00    -0.003 C 
BRANCH  15  16
ATOM     16  N   UNL     1      -1.640  -0.837   0.969  0.00  0.00    +0.385 N 
ATOM     17  H   UNL     1      -1.789  -1.813   1.179  0.00  0.00    -0.085 HD
ATOM     18  H   UNL     1      -2.208  -0.271   1.580  0.00  0.00    -0.085 HD
BRANCH  16  20
ATOM     19  C   UNL     1      -0.031   1.008   1.043  0.00  0.00    -0.014 C 
ATOM     20  C   UNL     1      -0.223  -0.505   1.171  0.00  0.00    -0.078 C 
ATOM     21  C   UNL     1       0.214  -0.959   2.565  0.00  0.00    -0.014 C 
ENDBRANCH  16  20
ENDBRANCH  15  16
ENDBRANCH   1  15
TORSDOF 4
