REMARK  Name = ZINC58990452
REMARK  10 active torsions:
REMARK  status: ('A' for Active; 'I' for Inactive)
REMARK    1  A    between atoms: C_4  and  O_22
REMARK    2  A    between atoms: C_5  and  C_7
REMARK    3  A    between atoms: N_8  and  N_9
REMARK    4  A    between atoms: C_10  and  C_12
REMARK    5  A    between atoms: C_12  and  C_13
REMARK    6  A    between atoms: C_13  and  C_14
REMARK    7  A    between atoms: C_14  and  S_15
REMARK    8  A    between atoms: S_15  and  C_16
REMARK    9  A    between atoms: O_22  and  C_23
REMARK   10  A    between atoms: C_23  and  C_24
REMARK                            x       y       z     vdW  Elec       q    Type
REMARK                         _______ _______ _______ _____ _____    ______ ____
ROOT
ATOM      1  C   UNL     1       1.250  -2.157  -0.023  0.00  0.00    +0.142 C 
ATOM      2  N   UNL     1       2.386  -2.785  -0.038  0.00  0.00    -0.188 NA
ENDROOT
BRANCH   1   7
ATOM      3  C   UNL     1      -0.017   1.375   0.010  0.00  0.00    +0.001 A 
ATOM      4  C   UNL     1       1.169   2.089   0.002  0.00  0.00    +0.004 A 
ATOM      5  C   UNL     1       2.383   1.428  -0.013  0.00  0.00    +0.046 A 
ATOM      6  C   UNL     1       2.420   0.044  -0.022  0.00  0.00    +0.130 A 
ATOM      7  C   UNL     1       1.222  -0.684  -0.014  0.00  0.00    +0.036 A 
ATOM      8  C   UNL     1       0.002  -0.004   0.002  0.00  0.00    +0.013 A 
BRANCH   6   9
ATOM      9  O   UNL     1       3.612  -0.607  -0.038  0.00  0.00    -0.487 OA
BRANCH   9  10
ATOM     10  C   UNL     1       4.792   0.201  -0.046  0.00  0.00    +0.264 C 
BRANCH  10  11
ATOM     11  C   UNL     1       6.009  -0.688  -0.063  0.00  0.00    -0.009 A 
ATOM     12  C   UNL     1       6.576  -1.107   1.126  0.00  0.00    +0.007 A 
ATOM     13  C   UNL     1       7.692  -1.922   1.110  0.00  0.00    +0.001 A 
ATOM     14  C   UNL     1       8.242  -2.318  -0.095  0.00  0.00    +0.015 A 
ATOM     15  C   UNL     1       7.675  -1.900  -1.285  0.00  0.00    +0.018 A 
ATOM     16  C   UNL     1       6.554  -1.088  -1.268  0.00  0.00    +0.022 A 
ATOM     17 BR   UNL     1       8.426  -2.441  -2.933  0.00  0.00    -0.050 Br
ENDBRANCH  10  11
ENDBRANCH   9  10
ENDBRANCH   6   9
ENDBRANCH   1   7
BRANCH   2  18
ATOM     18  N   UNL     1       2.412  -4.186  -0.047  0.00  0.00    -0.207 N 
ATOM     19  C   UNL     1       3.591  -4.838  -0.063  0.00  0.00    +0.232 C 
ATOM     20  O   UNL     1       4.630  -4.212  -0.070  0.00  0.00    -0.274 OA
ATOM     21  H   UNL     1       1.581  -4.686  -0.041  0.00  0.00    +0.177 HD
BRANCH  19  22
ATOM     22  C   UNL     1       3.619  -6.344  -0.072  0.00  0.00    +0.098 C 
BRANCH  22  23
ATOM     23  C   UNL     1       5.071  -6.827  -0.090  0.00  0.00    +0.020 C 
BRANCH  23  24
ATOM     24  C   UNL     1       5.100  -8.357  -0.100  0.00  0.00    +0.077 C 
BRANCH  24  25
ATOM     25  S   UNL     1       6.821  -8.930  -0.121  0.00  0.00    -0.097 S 
BRANCH  25  26
ATOM     26  C   UNL     1       6.685 -10.686  -0.130  0.00  0.00    +0.160 A 
ATOM     27  N   UNL     1       5.604 -11.441  -0.129  0.00  0.00    -0.133 NA
ATOM     28  N   UNL     1       5.726 -12.812  -0.138  0.00  0.00    -0.125 NA
ATOM     29  C   UNL     1       6.923 -13.364  -0.147  0.00  0.00    +0.180 A 
ATOM     30  S   UNL     1       7.976 -11.921  -0.150  0.00  0.00    -0.025 S 
ATOM     31  N   UNL     1       7.273 -14.709  -0.156  0.00  0.00    -0.336 N 
ATOM     32  H   UNL     1       6.582 -15.390  -0.157  0.00  0.00    +0.144 HD
ATOM     33  H   UNL     1       8.208 -14.967  -0.162  0.00  0.00    +0.144 HD
ENDBRANCH  25  26
ENDBRANCH  24  25
ENDBRANCH  23  24
ENDBRANCH  22  23
ENDBRANCH  19  22
ENDBRANCH   2  18
TORSDOF 10
