REMARK  Name = ZINC09016092
REMARK  4 active torsions:
REMARK  status: ('A' for Active; 'I' for Inactive)
REMARK    1  A    between atoms: C_1  and  S_2
REMARK    2  A    between atoms: S_2  and  C_5
REMARK    3  A    between atoms: N_13  and  C_14
REMARK    4  A    between atoms: C_14  and  C_16
REMARK                            x       y       z     vdW  Elec       q    Type
REMARK                         _______ _______ _______ _____ _____    ______ ____
ROOT
ATOM      1  C   UNL     1       0.845  -0.437  -1.483  0.00  0.00    +0.089 A 
ATOM      2  C   UNL     1       0.140  -0.615  -2.662  0.00  0.00    +0.029 A 
ATOM      3  C   UNL     1       0.780  -0.953  -3.831  0.00  0.00    +0.028 A 
ATOM      4  C   UNL     1       2.171  -1.127  -3.859  0.00  0.00    +0.055 A 
ATOM      5  C   UNL     1       2.861  -0.942  -2.652  0.00  0.00    +0.040 A 
ATOM      6  C   UNL     1       2.220  -0.598  -1.485  0.00  0.00    +0.044 A 
ATOM      7  S   UNL     1       4.549  -1.246  -3.101  0.00  0.00    -0.052 S 
ATOM      8  C   UNL     1       4.327  -1.583  -4.732  0.00  0.00    +0.164 A 
ATOM      9  N   UNL     1       5.253  -1.896  -5.633  0.00  0.00    -0.152 NA
ATOM     10  N   UNL     1       2.988  -1.463  -4.922  0.00  0.00    -0.335 N 
ATOM     11  H   UNL     1       2.605  -1.613  -5.801  0.00  0.00    +0.168 HD
ENDROOT
BRANCH   1  13
ATOM     12  C   UNL     1      -0.022   1.810   0.012  0.00  0.00    +0.200 C 
ATOM     13  S   UNL     1       0.002  -0.004   0.002  0.00  0.00    -0.006 S 
ATOM     14  O   UNL     1       0.835  -0.488   1.046  0.00  0.00    -0.170 OA
ATOM     15  O   UNL     1      -1.315  -0.510  -0.168  0.00  0.00    -0.170 OA
ENDBRANCH   1  13
BRANCH   9  16
ATOM     16  C   UNL     1       6.538  -1.970  -5.272  0.00  0.00    +0.269 C 
ATOM     17  O   UNL     1       6.861  -1.751  -4.118  0.00  0.00    -0.268 OA
BRANCH  16  18
ATOM     18  C   UNL     1       7.570  -2.319  -6.276  0.00  0.00    +0.039 A 
ATOM     19  C   UNL     1       7.204  -2.564  -7.600  0.00  0.00    +0.014 A 
ATOM     20  C   UNL     1       8.169  -2.888  -8.530  0.00  0.00    +0.021 A 
ATOM     21  C   UNL     1       9.499  -2.970  -8.153  0.00  0.00    +0.041 A 
ATOM     22  C   UNL     1       9.868  -2.727  -6.840  0.00  0.00    +0.021 A 
ATOM     23  C   UNL     1       8.912  -2.397  -5.902  0.00  0.00    +0.014 A 
ATOM     24 CL   UNL     1      10.708  -3.379  -9.329  0.00  0.00    -0.084 Cl
ENDBRANCH  16  18
ENDBRANCH   9  16
TORSDOF 3
