REMARK  Name = ZINC39583548
REMARK  14 active torsions:
REMARK  status: ('A' for Active; 'I' for Inactive)
REMARK    1  A    between atoms: C_1  and  C_2
REMARK    2  A    between atoms: C_5  and  C_8
REMARK    3  A    between atoms: C_10  and  C_14
REMARK    4  A    between atoms: N_16  and  N_17
REMARK    5  A    between atoms: C_18  and  C_19
REMARK    6  A    between atoms: C_21  and  C_30
REMARK    7  A    between atoms: C_22  and  O_29
REMARK    8  A    between atoms: C_23  and  C_25
REMARK    9  A    between atoms: C_25  and  C_26
REMARK   10  A    between atoms: C_25  and  C_27
REMARK   11  A    between atoms: C_25  and  C_28
REMARK   12  A    between atoms: C_30  and  C_31
REMARK   13  A    between atoms: C_30  and  C_32
REMARK   14  A    between atoms: C_30  and  C_33
REMARK                            x       y       z     vdW  Elec       q    Type
REMARK                         _______ _______ _______ _____ _____    ______ ____
ROOT
ATOM      1  N   UNL     1      -2.337  -8.440   2.609  0.00  0.00    -0.188 NA
ATOM      2  C   UNL     1      -2.394  -8.953   3.800  0.00  0.00    +0.138 C 
ENDROOT
BRANCH   2   3
ATOM      3  C   UNL     1      -3.595  -9.694   4.226  0.00  0.00    -0.005 A 
ATOM      4  C   UNL     1      -4.671  -9.849   3.349  0.00  0.00    +0.017 A 
ATOM      5  C   UNL     1      -5.792 -10.543   3.752  0.00  0.00    +0.000 A 
ATOM      6  C   UNL     1      -5.853 -11.087   5.028  0.00  0.00    +0.124 A 
ATOM      7  C   UNL     1      -4.785 -10.935   5.904  0.00  0.00    +0.000 A 
ATOM      8  C   UNL     1      -3.659 -10.248   5.508  0.00  0.00    +0.017 A 
BRANCH   7   9
ATOM      9  C   UNL     1      -4.857 -11.527   7.288  0.00  0.00    -0.009 C 
ATOM     10  C   UNL     1      -3.563 -11.218   8.043  0.00  0.00    +0.015 C 
ATOM     11  C   UNL     1      -6.044 -10.921   8.041  0.00  0.00    +0.015 C 
ATOM     12  C   UNL     1      -5.039 -13.042   7.186  0.00  0.00    +0.015 C 
ENDBRANCH   7   9
BRANCH   5  13
ATOM     13  C   UNL     1      -6.954 -10.711   2.807  0.00  0.00    -0.009 C 
ATOM     14  C   UNL     1      -6.634 -10.022   1.478  0.00  0.00    +0.015 C 
ATOM     15  C   UNL     1      -7.201 -12.201   2.562  0.00  0.00    +0.015 C 
ATOM     16  C   UNL     1      -8.205 -10.080   3.420  0.00  0.00    +0.015 C 
ENDBRANCH   5  13
BRANCH   6  17
ATOM     17  O   UNL     1      -6.959 -11.770   5.421  0.00  0.00    -0.506 OA
ATOM     18  H   UNL     1      -6.924 -12.718   5.232  0.00  0.00    +0.292 HD
ENDBRANCH   6  17
ENDBRANCH   2   3
BRANCH   1  21
ATOM     19  C   UNL     1      -1.137  -7.203   0.967  0.00  0.00    +0.263 C 
ATOM     20  O   UNL     1      -2.073  -7.332   0.205  0.00  0.00    -0.271 OA
ATOM     21  N   UNL     1      -1.196  -7.736   2.203  0.00  0.00    -0.205 N 
ATOM     22  H   UNL     1      -0.448  -7.632   2.812  0.00  0.00    +0.177 HD
BRANCH  19  25
ATOM     23  C   UNL     1       0.061  -4.256  -0.021  0.00  0.00    +0.092 C 
ATOM     24  C   UNL     1       0.071  -5.030   1.081  0.00  0.00    +0.041 C 
ATOM     25  C   UNL     1       0.090  -6.445   0.530  0.00  0.00    +0.240 C 
ATOM     26  N   UNL     1       0.087  -6.239  -0.927  0.00  0.00    -0.170 NA
ATOM     27  N   UNL     1       0.065  -5.025  -1.142  0.00  0.00    -0.153 NA
BRANCH  23  32
ATOM     28  C   UNL     1      -0.018   1.503   0.010  0.00  0.00    +0.044 C 
ATOM     29  C   UNL     1       0.002  -0.004   0.002  0.00  0.00    -0.050 A 
ATOM     30  C   UNL     1       0.006  -0.686  -1.201  0.00  0.00    +0.004 A 
ATOM     31  C   UNL     1       0.025  -2.066  -1.215  0.00  0.00    +0.010 A 
ATOM     32  C   UNL     1       0.041  -2.772  -0.013  0.00  0.00    +0.002 A 
ATOM     33  C   UNL     1       0.037  -2.080   1.196  0.00  0.00    +0.010 A 
ATOM     34  C   UNL     1       0.023  -0.700   1.198  0.00  0.00    +0.004 A 
ENDBRANCH  23  32
ENDBRANCH  19  25
ENDBRANCH   1  21
TORSDOF 7
