REMARK  Name = ZINC36728766
REMARK  6 active torsions:
REMARK  status: ('A' for Active; 'I' for Inactive)
REMARK    1  A    between atoms: C_1  and  N_2
REMARK    2  A    between atoms: N_5  and  C_14
REMARK    3  A    between atoms: C_14  and  C_15
REMARK    4  A    between atoms: N_17  and  C_18
REMARK    5  A    between atoms: C_18  and  C_19
REMARK    6  A    between atoms: N_21  and  C_22
REMARK                            x       y       z     vdW  Elec       q    Type
REMARK                         _______ _______ _______ _____ _____    ______ ____
ROOT
ATOM      1  C   UNL     1       1.281  -3.498  -2.241  0.00  0.00    +0.231 C 
ATOM      2  O   UNL     1       2.242  -2.914  -1.786  0.00  0.00    -0.274 OA
ATOM      3  N   UNL     1       1.457  -4.490  -3.137  0.00  0.00    -0.305 N 
ATOM      4  H   UNL     1       0.689  -4.957  -3.501  0.00  0.00    +0.149 HD
ENDROOT
BRANCH   1   5
ATOM      5  C   UNL     1      -0.109  -3.115  -1.805  0.00  0.00    +0.213 C 
BRANCH   5  10
ATOM      6  C   UNL     1       0.042   1.546  -0.079  0.00  0.00    +0.134 C 
ATOM      7  N   UNL     1       0.034   0.081  -0.084  0.00  0.00    -0.274 N 
ATOM      8  C   UNL     1      -0.049  -0.722  -1.162  0.00  0.00    +0.312 C 
ATOM      9  O   UNL     1      -0.130  -0.314  -2.304  0.00  0.00    -0.252 OA
ATOM     10  N   UNL     1      -0.032  -2.020  -0.835  0.00  0.00    -0.215 N 
ATOM     11  C   UNL     1       0.064  -2.195   0.499  0.00  0.00    +0.247 C 
ATOM     12  O   UNL     1       0.103  -3.247   1.101  0.00  0.00    -0.273 OA
ATOM     13  C   UNL     1       0.121  -0.803   1.086  0.00  0.00    +0.115 C 
ATOM     14  C   UNL     1       1.438  -0.585   1.822  0.00  0.00    +0.035 C 
ATOM     15  C   UNL     1       1.484   0.841   2.377  0.00  0.00    +0.003 C 
ATOM     16  C   UNL     1       0.306   1.055   3.329  0.00  0.00    +0.000 C 
ATOM     17  C   UNL     1      -1.008   0.854   2.572  0.00  0.00    +0.003 C 
ATOM     18  C   UNL     1      -1.063  -0.572   2.018  0.00  0.00    +0.035 C 
ENDBRANCH   5  10
ENDBRANCH   1   5
BRANCH   3  19
ATOM     19  C   UNL     1       2.809  -4.862  -3.561  0.00  0.00    +0.200 C 
BRANCH  19  20
ATOM     20  C   UNL     1       2.730  -5.989  -4.559  0.00  0.00    +0.234 C 
ATOM     21  O   UNL     1       1.651  -6.436  -4.885  0.00  0.00    -0.274 OA
ATOM     22  N   UNL     1       3.859  -6.499  -5.090  0.00  0.00    -0.282 N 
ATOM     23  H   UNL     1       4.724  -6.192  -4.777  0.00  0.00    +0.155 HD
BRANCH  22  24
ATOM     24  C   UNL     1       3.782  -7.472  -6.096  0.00  0.00    +0.072 A 
ATOM     25  C   UNL     1       2.742  -7.443  -7.014  0.00  0.00    +0.029 A 
ATOM     26  C   UNL     1       2.667  -8.403  -8.005  0.00  0.00    +0.043 A 
ATOM     27  C   UNL     1       3.628  -9.395  -8.084  0.00  0.00    +0.161 A 
ATOM     28  C   UNL     1       4.670  -9.429  -7.170  0.00  0.00    +0.195 A 
ATOM     29  C   UNL     1       4.752  -8.465  -6.178  0.00  0.00    +0.182 A 
ATOM     30  F   UNL     1       5.769  -8.493  -5.290  0.00  0.00    -0.200 F 
ATOM     31  F   UNL     1       5.607 -10.399  -7.248  0.00  0.00    -0.199 F 
ATOM     32  F   UNL     1       3.552 -10.332  -9.054  0.00  0.00    -0.202 F 
ENDBRANCH  22  24
ENDBRANCH  19  20
ENDBRANCH   3  19
TORSDOF 5
