REMARK  Name = ZINC04315551
REMARK  6 active torsions:
REMARK  status: ('A' for Active; 'I' for Inactive)
REMARK    1  A    between atoms: C_4  and  N_7
REMARK    2  A    between atoms: C_8  and  C_10
REMARK    3  A    between atoms: C_10  and  S_11
REMARK    4  A    between atoms: S_11  and  C_12
REMARK    5  A    between atoms: C_15  and  C_18
REMARK    6  A    between atoms: N_16  and  N_17
REMARK                            x       y       z     vdW  Elec       q    Type
REMARK                         _______ _______ _______ _____ _____    ______ ____
ROOT
ATOM      1  C   UNL     1       1.901  -4.247  -0.450  0.00  0.00    +0.209 A 
ATOM      2  N   UNL     1       0.622  -4.171  -0.161  0.00  0.00    -0.121 NA
ATOM      3  N   UNL     1       0.246  -2.942  -0.138  0.00  0.00    -0.127 NA
ATOM      4  C   UNL     1       1.261  -2.158  -0.420  0.00  0.00    +0.183 A 
ATOM      5  N   UNL     1       2.353  -2.970  -0.625  0.00  0.00    -0.224 N 
ENDROOT
BRANCH   4   6
ATOM      6  C   UNL     1       1.236  -0.682  -0.497  0.00  0.00    +0.039 A 
ATOM      7  C   UNL     1       1.832  -0.026  -1.575  0.00  0.00    +0.013 A 
ATOM      8  C   UNL     1       1.806   1.351  -1.641  0.00  0.00    +0.001 A 
ATOM      9  C   UNL     1       1.190   2.084  -0.641  0.00  0.00    +0.001 A 
ATOM     10  C   UNL     1       0.597   1.441   0.430  0.00  0.00    +0.021 A 
ATOM     11  C   UNL     1       0.616   0.062   0.509  0.00  0.00    +0.052 A 
ATOM     12 CL   UNL     1      -0.129  -0.743   1.854  0.00  0.00    -0.083 Cl
ENDBRANCH   4   6
BRANCH   5  13
ATOM     13  N   UNL     1       3.624  -2.579  -0.939  0.00  0.00    -0.295 N 
ATOM     14  H   UNL     1       4.194  -2.506  -0.110  0.00  0.00    +0.163 HD
ATOM     15  H   UNL     1       4.040  -3.207  -1.610  0.00  0.00    +0.163 HD
ENDBRANCH   5  13
BRANCH   1  16
ATOM     16  S   UNL     1       2.857  -5.721  -0.586  0.00  0.00    -0.075 S 
BRANCH  16  17
ATOM     17  C   UNL     1       1.583  -6.955  -0.225  0.00  0.00    +0.173 C 
BRANCH  17  19
ATOM     18  N   UNL     1       1.422  -9.417  -0.050  0.00  0.00    -0.285 N 
ATOM     19  C   UNL     1       2.188  -8.334  -0.286  0.00  0.00    +0.227 C 
ATOM     20  O   UNL     1       3.365  -8.469  -0.548  0.00  0.00    -0.275 OA
ATOM     21  H   UNL     1       0.467  -9.316   0.086  0.00  0.00    +0.155 HD
BRANCH  18  25
ATOM     22  C   UNL     1       3.155 -13.203   0.096  0.00  0.00    +0.000 A 
ATOM     23  C   UNL     1       3.868 -12.101   0.531  0.00  0.00    +0.002 A 
ATOM     24  C   UNL     1       3.296 -10.844   0.484  0.00  0.00    +0.023 A 
ATOM     25  C   UNL     1       2.004 -10.689  -0.001  0.00  0.00    +0.033 A 
ATOM     26  C   UNL     1       1.289 -11.799  -0.432  0.00  0.00    +0.023 A 
ATOM     27  C   UNL     1       1.869 -13.052  -0.387  0.00  0.00    +0.002 A 
ENDBRANCH  18  25
ENDBRANCH  17  19
ENDBRANCH  16  17
ENDBRANCH   1  16
TORSDOF 6
