REMARK  Name = ZINC24374295
REMARK  8 active torsions:
REMARK  status: ('A' for Active; 'I' for Inactive)
REMARK    1  A    between atoms: C_1  and  C_2
REMARK    2  A    between atoms: C_2  and  C_4
REMARK    3  A    between atoms: C_2  and  N_12
REMARK    4  A    between atoms: N_12  and  C_13
REMARK    5  A    between atoms: C_13  and  C_15
REMARK    6  A    between atoms: C_13  and  C_16
REMARK    7  A    between atoms: N_21  and  C_22
REMARK    8  A    between atoms: C_22  and  C_23
REMARK                            x       y       z     vdW  Elec       q    Type
REMARK                         _______ _______ _______ _____ _____    ______ ____
ROOT
ATOM      1  N   UNL     1      -1.083   3.527   0.026  0.00  0.00    +0.391 N 
ATOM      2  H   UNL     1      -0.180   3.732  -0.568  0.00  0.00    -0.084 HD
ATOM      3  H   UNL     1      -0.920   3.852   1.065  0.00  0.00    -0.084 HD
ENDROOT
BRANCH   1   5
ATOM      4  C   UNL     1      -2.084   4.309  -2.067  0.00  0.00    -0.009 C 
ATOM      5  C   UNL     1      -2.221   4.260  -0.544  0.00  0.00    -0.042 C 
BRANCH   5   6
ATOM      6  C   UNL     1      -2.241   5.663   0.005  0.00  0.00    -0.043 A 
ATOM      7  C   UNL     1      -1.072   6.244   0.459  0.00  0.00    +0.005 A 
ATOM      8  C   UNL     1      -1.090   7.531   0.963  0.00  0.00    +0.020 A 
ATOM      9  C   UNL     1      -2.278   8.238   1.013  0.00  0.00    +0.042 A 
ATOM     10  C   UNL     1      -3.448   7.657   0.558  0.00  0.00    +0.040 A 
ATOM     11  C   UNL     1      -3.429   6.371   0.049  0.00  0.00    +0.044 A 
ATOM     12 CL   UNL     1      -4.895   5.644  -0.529  0.00  0.00    -0.083 Cl
ATOM     13 CL   UNL     1      -2.300   9.855   1.645  0.00  0.00    -0.083 Cl
ENDBRANCH   5   6
ENDBRANCH   1   5
BRANCH   1  14
ATOM     14  C   UNL     1      -1.331   2.079   0.020  0.00  0.00    +0.014 C 
ATOM     15  C   UNL     1      -2.123   1.692   1.271  0.00  0.00    -0.004 C 
BRANCH  14  16
ATOM     16  C   UNL     1      -0.016   1.344   0.009  0.00  0.00    +0.206 C 
ATOM     17  O   UNL     1       1.025   1.964   0.003  0.00  0.00    -0.277 OA
ATOM     18  N   UNL     1       0.002  -0.004   0.002  0.00  0.00    -0.242 N 
ATOM     19  C   UNL     1       1.178  -0.662  -0.013  0.00  0.00    +0.306 C 
ATOM     20  O   UNL     1       2.222  -0.040  -0.019  0.00  0.00    -0.252 OA
ATOM     21  N   UNL     1       1.196  -2.010  -0.020  0.00  0.00    -0.296 N 
ATOM     22  H   UNL     1      -0.943  -0.567   0.008  0.00  0.00    +0.159 HD
ATOM     23  H   UNL     1       0.251  -2.572  -0.014  0.00  0.00    +0.151 HD
BRANCH  21  24
ATOM     24  C   UNL     1       2.475  -2.725  -0.036  0.00  0.00    +0.132 C 
BRANCH  24  25
ATOM     25  C   UNL     1       2.220  -4.210  -0.042  0.00  0.00    -0.016 C 
ATOM     26  C   UNL     1       2.741  -4.961  -0.980  0.00  0.00    +0.005 C 
ENDBRANCH  24  25
ENDBRANCH  21  24
ENDBRANCH  14  16
ENDBRANCH   1  14
TORSDOF 6
