REMARK  Name = ZINC44960647
REMARK  12 active torsions:
REMARK  status: ('A' for Active; 'I' for Inactive)
REMARK    1  A    between atoms: C_1  and  C_2
REMARK    2  A    between atoms: C_2  and  C_3
REMARK    3  A    between atoms: C_8  and  N_9
REMARK    4  A    between atoms: C_10  and  C_29
REMARK    5  A    between atoms: C_12  and  C_14
REMARK    6  A    between atoms: N_16  and  C_17
REMARK    7  A    between atoms: C_17  and  C_19
REMARK    8  A    between atoms: C_17  and  C_20
REMARK    9  A    between atoms: N_22  and  C_23
REMARK   10  A    between atoms: C_23  and  C_24
REMARK   11  A    between atoms: C_33  and  N_35
REMARK   12  A    between atoms: C_36  and  C_38
REMARK                            x       y       z     vdW  Elec       q    Type
REMARK                         _______ _______ _______ _____ _____    ______ ____
ROOT
ATOM      1  N   UNL     1      -1.686  -0.053  -2.511  0.00  0.00    -0.231 N 
ATOM      2  C   UNL     1      -2.502   0.184  -3.581  0.00  0.00    +0.075 A 
ATOM      3  C   UNL     1      -1.803   0.984  -4.441  0.00  0.00    +0.063 A 
ATOM      4  C   UNL     1      -0.552   1.198  -3.823  0.00  0.00    +0.148 A 
ATOM      5  N   UNL     1      -0.564   0.551  -2.674  0.00  0.00    -0.161 NA
ENDROOT
BRANCH   1  11
ATOM      6  C   UNL     1      -1.989  -0.282  -0.125  0.00  0.00    -0.022 A 
ATOM      7  C   UNL     1      -2.329  -1.053   0.970  0.00  0.00    +0.006 A 
ATOM      8  C   UNL     1      -2.700  -2.374   0.798  0.00  0.00    +0.000 A 
ATOM      9  C   UNL     1      -2.732  -2.928  -0.469  0.00  0.00    +0.002 A 
ATOM     10  C   UNL     1      -2.393  -2.162  -1.567  0.00  0.00    +0.028 A 
ATOM     11  C   UNL     1      -2.025  -0.834  -1.399  0.00  0.00    +0.069 A 
BRANCH   6  13
ATOM     12  C   UNL     1      -2.788   2.064  -0.209  0.00  0.00    +0.009 C 
ATOM     13  C   UNL     1      -1.585   1.157   0.063  0.00  0.00    +0.034 C 
ENDBRANCH   6  13
ENDBRANCH   1  11
BRANCH   2  14
ATOM     14  C   UNL     1      -3.877  -0.328  -3.772  0.00  0.00    +0.002 A 
ATOM     15  C   UNL     1      -4.637  -0.722  -2.670  0.00  0.00    +0.010 A 
ATOM     16  C   UNL     1      -5.920  -1.199  -2.851  0.00  0.00    +0.002 A 
ATOM     17  C   UNL     1      -6.456  -1.287  -4.122  0.00  0.00    +0.023 A 
ATOM     18  C   UNL     1      -5.707  -0.897  -5.225  0.00  0.00    +0.034 A 
ATOM     19  C   UNL     1      -4.420  -0.412  -5.053  0.00  0.00    +0.033 A 
BRANCH  18  20
ATOM     20  N   UNL     1      -6.255  -0.990  -6.510  0.00  0.00    -0.286 N 
ATOM     21  C   UNL     1      -7.574  -0.791  -6.696  0.00  0.00    +0.214 C 
ATOM     22  O   UNL     1      -8.272  -0.440  -5.768  0.00  0.00    -0.276 OA
ATOM     23  C   UNL     1      -8.184  -1.006  -8.058  0.00  0.00    +0.109 C 
ATOM     24  H   UNL     1      -5.684  -1.196  -7.266  0.00  0.00    +0.155 HD
ENDBRANCH  18  20
ENDBRANCH   2  14
BRANCH   4  25
ATOM     25  C   UNL     1       0.563   2.004  -4.361  0.00  0.00    +0.265 C 
ATOM     26  O   UNL     1       0.448   2.559  -5.436  0.00  0.00    -0.268 OA
ATOM     27  N   UNL     1       1.708   2.123  -3.660  0.00  0.00    -0.299 N 
ATOM     28  H   UNL     1       1.800   1.681  -2.802  0.00  0.00    +0.150 HD
BRANCH  27  29
ATOM     29  C   UNL     1       2.814   2.922  -4.194  0.00  0.00    +0.156 C 
ATOM     30  C   UNL     1       2.606   4.392  -3.824  0.00  0.00    +0.038 C 
BRANCH  29  31
ATOM     31  C   UNL     1       4.114   2.436  -3.607  0.00  0.00    +0.233 C 
ATOM     32  O   UNL     1       4.116   1.513  -2.821  0.00  0.00    -0.274 OA
ATOM     33  N   UNL     1       5.274   3.026  -3.957  0.00  0.00    -0.309 N 
ATOM     34  H   UNL     1       5.272   3.765  -4.586  0.00  0.00    +0.149 HD
BRANCH  33  35
ATOM     35  C   UNL     1       6.538   2.553  -3.387  0.00  0.00    +0.146 C 
BRANCH  35  36
ATOM     36  C   UNL     1       7.675   3.375  -3.936  0.00  0.00    +0.007 A 
ATOM     37  C   UNL     1       8.218   4.517  -3.446  0.00  0.00    +0.013 A 
ATOM     38  C   UNL     1       9.269   5.104  -4.125  0.00  0.00    +0.008 A 
ATOM     39  C   UNL     1       9.726   4.521  -5.260  0.00  0.00    +0.045 A 
ATOM     40  S   UNL     1       8.663   3.093  -5.396  0.00  0.00    -0.100 S 
ENDBRANCH  35  36
ENDBRANCH  33  35
ENDBRANCH  29  31
ENDBRANCH  27  29
ENDBRANCH   4  25
TORSDOF 9
