REMARK  Name = ZINC01423198
REMARK  6 active torsions:
REMARK  status: ('A' for Active; 'I' for Inactive)
REMARK    1  A    between atoms: C_1  and  N_2
REMARK    2  A    between atoms: N_2  and  C_3
REMARK    3  A    between atoms: N_2  and  C_4
REMARK    4  A    between atoms: C_11  and  N_25
REMARK    5  A    between atoms: C_12  and  C_23
REMARK    6  A    between atoms: C_13  and  C_15
REMARK                            x       y       z     vdW  Elec       q    Type
REMARK                         _______ _______ _______ _____ _____    ______ ____
ROOT
ATOM      1  C   UNL     1      -0.017   1.385   0.010  0.00  0.00    +0.033 A 
ATOM      2  C   UNL     1       0.002  -0.004   0.002  0.00  0.00    +0.023 A 
ATOM      3  C   UNL     1       1.207  -0.677  -0.013  0.00  0.00    +0.010 A 
ATOM      4  C   UNL     1       2.399   0.026  -0.020  0.00  0.00    +0.008 A 
ATOM      5  C   UNL     1       2.387   1.412  -0.012  0.00  0.00    +0.136 A 
ATOM      6  C   UNL     1       1.177   2.092   0.002  0.00  0.00    +0.069 A 
ATOM      7  O   UNL     1       3.545   2.118  -0.021  0.00  0.00    -0.441 OA
ATOM      8  C   UNL     1       4.686   1.530  -0.418  0.00  0.00    +0.199 C 
ATOM      9  C   UNL     1       4.825   0.183  -0.448  0.00  0.00    +0.098 C 
ATOM     10  C   UNL     1       3.703  -0.728  -0.035  0.00  0.00    +0.098 C 
ENDROOT
BRANCH  10  11
ATOM     11  C   UNL     1       3.982  -1.271   1.342  0.00  0.00    -0.033 A 
ATOM     12  C   UNL     1       4.112  -0.405   2.413  0.00  0.00    +0.006 A 
ATOM     13  C   UNL     1       4.363  -0.902   3.678  0.00  0.00    +0.022 A 
ATOM     14  C   UNL     1       4.495  -2.266   3.872  0.00  0.00    +0.059 A 
ATOM     15  C   UNL     1       4.370  -3.132   2.799  0.00  0.00    +0.060 A 
ATOM     16  C   UNL     1       4.113  -2.633   1.534  0.00  0.00    +0.026 A 
ATOM     17 CL   UNL     1       4.534  -4.843   3.041  0.00  0.00    -0.082 Cl
ATOM     18 CL   UNL     1       4.818  -2.890   5.459  0.00  0.00    -0.082 Cl
ENDBRANCH  10  11
BRANCH   1  20
ATOM     19  C   UNL     1      -2.494   1.321   0.021  0.00  0.00    +0.129 C 
ATOM     20  N   UNL     1      -1.235   2.069   0.019  0.00  0.00    -0.336 N 
ATOM     21  C   UNL     1      -1.253   3.534   0.027  0.00  0.00    +0.129 C 
ENDBRANCH   1  20
BRANCH   8  22
ATOM     22  N   UNL     1       5.741   2.317  -0.805  0.00  0.00    -0.328 N 
ATOM     23  H   UNL     1       6.571   1.907  -1.095  0.00  0.00    +0.145 HD
ATOM     24  H   UNL     1       5.657   3.283  -0.788  0.00  0.00    +0.145 HD
ENDBRANCH   8  22
BRANCH   9  25
ATOM     25  C   UNL     1       6.066  -0.385  -0.882  0.00  0.00    +0.101 C 
ATOM     26  N   UNL     1       7.050  -0.835  -1.226  0.00  0.00    -0.191 NA
ENDBRANCH   9  25
TORSDOF 4
