REMARK  Name = ZINC04625111
REMARK  11 active torsions:
REMARK  status: ('A' for Active; 'I' for Inactive)
REMARK    1  A    between atoms: C_1  and  C_2
REMARK    2  A    between atoms: C_2  and  C_3
REMARK    3  A    between atoms: C_2  and  O_4
REMARK    4  A    between atoms: O_4  and  C_5
REMARK    5  A    between atoms: C_10  and  C_11
REMARK    6  A    between atoms: C_14  and  C_25
REMARK    7  A    between atoms: C_20  and  N_24
REMARK    8  A    between atoms: C_21  and  C_22
REMARK    9  A    between atoms: C_25  and  C_26
REMARK   10  A    between atoms: C_26  and  O_28
REMARK   11  A    between atoms: O_28  and  C_29
REMARK                            x       y       z     vdW  Elec       q    Type
REMARK                         _______ _______ _______ _____ _____    ______ ____
ROOT
ATOM      1  C   UNL     1      -4.018  -1.376  -0.162  0.00  0.00    +0.105 C 
ATOM      2  C   UNL     1      -4.719  -2.275   0.824  0.00  0.00    +0.050 A 
ATOM      3  C   UNL     1      -4.312  -2.708   2.027  0.00  0.00    +0.055 A 
ATOM      4  N   UNL     1      -5.289  -3.497   2.531  0.00  0.00    -0.277 N 
ATOM      5  H   UNL     1      -5.270  -3.949   3.389  0.00  0.00    +0.189 HD
ATOM      6  N   UNL     1      -6.336  -3.546   1.597  0.00  0.00    -0.135 NA
ATOM      7  C   UNL     1      -5.999  -2.815   0.573  0.00  0.00    +0.245 A 
ATOM      8  O   UNL     1      -6.681  -2.553  -0.574  0.00  0.00    -0.421 OA
ATOM      9  C   UNL     1      -6.225  -1.550  -1.351  0.00  0.00    +0.201 C 
ATOM     10  C   UNL     1      -5.016  -0.964  -1.215  0.00  0.00    +0.098 C 
ENDROOT
BRANCH   1  16
ATOM     11  C   UNL     1      -1.580  -1.639  -0.686  0.00  0.00    +0.125 A 
ATOM     12  C   UNL     1      -0.530  -2.329  -1.276  0.00  0.00    +0.046 A 
ATOM     13  C   UNL     1      -0.779  -3.488  -1.985  0.00  0.00    +0.004 A 
ATOM     14  C   UNL     1      -2.072  -3.961  -2.107  0.00  0.00    +0.001 A 
ATOM     15  C   UNL     1      -3.120  -3.276  -1.521  0.00  0.00    +0.008 A 
ATOM     16  C   UNL     1      -2.876  -2.119  -0.806  0.00  0.00    +0.007 A 
BRANCH  11  17
ATOM     17  O   UNL     1      -1.339  -0.499   0.012  0.00  0.00    -0.489 OA
BRANCH  17  19
ATOM     18  C   UNL     1      -0.011   1.505   0.263  0.00  0.00    +0.051 C 
ATOM     19  C   UNL     1       0.001  -0.002  -0.000  0.00  0.00    +0.167 C 
ATOM     20  C   UNL     1       0.815  -0.703   1.089  0.00  0.00    +0.051 C 
ENDBRANCH  17  19
ENDBRANCH  11  17
ENDBRANCH   1  16
BRANCH   9  21
ATOM     21  N   UNL     1      -7.046  -1.093  -2.351  0.00  0.00    -0.328 N 
ATOM     22  H   UNL     1      -7.922  -1.490  -2.479  0.00  0.00    +0.145 HD
ATOM     23  H   UNL     1      -6.752  -0.373  -2.930  0.00  0.00    +0.145 HD
ENDBRANCH   9  21
BRANCH  10  24
ATOM     24  C   UNL     1      -4.665   0.097  -2.111  0.00  0.00    +0.101 C 
ATOM     25  N   UNL     1      -4.387   0.938  -2.821  0.00  0.00    -0.191 NA
ENDBRANCH  10  24
BRANCH   3  26
ATOM     26  C   UNL     1      -3.003  -2.376   2.695  0.00  0.00    +0.175 C 
BRANCH  26  27
ATOM     27  C   UNL     1      -3.131  -1.067   3.430  0.00  0.00    +0.313 C 
ATOM     28  O   UNL     1      -4.179  -0.465   3.412  0.00  0.00    -0.250 OA
BRANCH  27  29
ATOM     29  O   UNL     1      -2.083  -0.569   4.104  0.00  0.00    -0.468 OA
ATOM     30  C   UNL     1      -2.276   0.676   4.777  0.00  0.00    +0.280 C 
ENDBRANCH  27  29
ENDBRANCH  26  27
ENDBRANCH   3  26
TORSDOF 8
