REMARK  Name = ZINC13222804
REMARK  10 active torsions:
REMARK  status: ('A' for Active; 'I' for Inactive)
REMARK    1  A    between atoms: C_4  and  C_7
REMARK    2  A    between atoms: C_7  and  C_8
REMARK    3  A    between atoms: C_7  and  C_29
REMARK    4  A    between atoms: C_8  and  C_9
REMARK    5  A    between atoms: C_9  and  N_10
REMARK    6  A    between atoms: C_11  and  C_13
REMARK    7  A    between atoms: C_13  and  S_14
REMARK    8  A    between atoms: S_14  and  C_15
REMARK    9  A    between atoms: N_25  and  C_26
REMARK   10  A    between atoms: C_26  and  C_27
REMARK                            x       y       z     vdW  Elec       q    Type
REMARK                         _______ _______ _______ _____ _____    ______ ____
ROOT
ATOM      1  N   UNL     1      -6.718  -2.690  -0.533  0.00  0.00    -0.315 N 
ATOM      2  C   UNL     1      -6.165  -3.905  -0.716  0.00  0.00    +0.223 C 
ATOM      3  O   UNL     1      -6.863  -4.897  -0.702  0.00  0.00    -0.275 OA
ATOM      4  H   UNL     1      -6.160  -1.897  -0.544  0.00  0.00    +0.149 HD
ENDROOT
BRANCH   1   5
ATOM      5  C   UNL     1      -8.162  -2.567  -0.315  0.00  0.00    +0.105 C 
BRANCH   5   6
ATOM      6  C   UNL     1      -8.527  -1.092  -0.136  0.00  0.00    +0.031 C 
BRANCH   6   7
ATOM      7  C   UNL     1     -10.034  -0.964   0.091  0.00  0.00    +0.050 C 
BRANCH   7  11
ATOM      8  C   UNL     1     -11.084  -2.843   3.781  0.00  0.00    +0.000 A 
ATOM      9  C   UNL     1     -10.073  -1.901   3.748  0.00  0.00    +0.000 A 
ATOM     10  C   UNL     1      -9.733  -1.292   2.554  0.00  0.00    +0.004 A 
ATOM     11  C   UNL     1     -10.404  -1.627   1.393  0.00  0.00    -0.040 A 
ATOM     12  C   UNL     1     -11.419  -2.565   1.426  0.00  0.00    +0.004 A 
ATOM     13  C   UNL     1     -11.755  -3.177   2.619  0.00  0.00    +0.000 A 
ENDBRANCH   7  11
BRANCH   7  14
ATOM     14  C   UNL     1     -10.412   0.494   0.145  0.00  0.00    -0.040 A 
ATOM     15  C   UNL     1      -9.742   1.351   0.999  0.00  0.00    +0.004 A 
ATOM     16  C   UNL     1     -10.085   2.689   1.044  0.00  0.00    +0.000 A 
ATOM     17  C   UNL     1     -11.104   3.169   0.244  0.00  0.00    +0.000 A 
ATOM     18  C   UNL     1     -11.778   2.312  -0.606  0.00  0.00    +0.000 A 
ATOM     19  C   UNL     1     -11.431   0.974  -0.656  0.00  0.00    +0.004 A 
ENDBRANCH   7  14
ENDBRANCH   6   7
ENDBRANCH   5   6
ENDBRANCH   1   5
BRANCH   2  20
ATOM     20  C   UNL     1      -4.681  -4.032  -0.940  0.00  0.00    +0.173 C 
BRANCH  20  21
ATOM     21  S   UNL     1      -4.249  -5.777  -1.152  0.00  0.00    -0.078 S 
BRANCH  21  22
ATOM     22  C   UNL     1      -2.509  -5.635  -1.389  0.00  0.00    +0.173 A 
ATOM     23  N   UNL     1      -1.970  -4.441  -1.363  0.00  0.00    -0.223 NA
ATOM     24  C   UNL     1      -0.646  -4.259  -1.538  0.00  0.00    +0.079 A 
ATOM     25  C   UNL     1      -0.071  -2.985  -1.510  0.00  0.00    +0.028 A 
ATOM     26  C   UNL     1       1.276  -2.846  -1.691  0.00  0.00    +0.002 A 
ATOM     27  C   UNL     1       2.086  -3.954  -1.903  0.00  0.00    +0.001 A 
ATOM     28  C   UNL     1       1.554  -5.214  -1.935  0.00  0.00    +0.015 A 
ATOM     29  C   UNL     1       0.182  -5.384  -1.753  0.00  0.00    +0.065 A 
ATOM     30  C   UNL     1      -0.445  -6.713  -1.778  0.00  0.00    +0.263 A 
ATOM     31  O   UNL     1       0.215  -7.719  -1.959  0.00  0.00    -0.267 OA
ATOM     32  N   UNL     1      -1.784  -6.775  -1.591  0.00  0.00    -0.276 N 
BRANCH  32  33
ATOM     33  C   UNL     1      -2.461  -8.074  -1.605  0.00  0.00    +0.252 C 
BRANCH  33  34
ATOM     34  C   UNL     1      -2.491  -8.640  -0.209  0.00  0.00    +0.375 C 
ATOM     35  O   UNL     1      -1.999  -8.022   0.705  0.00  0.00    -0.244 OA
ATOM     36  O   UNL     1      -3.066  -9.831   0.020  0.00  0.00    -0.244 OA
ENDBRANCH  33  34
ENDBRANCH  32  33
ENDBRANCH  21  22
ENDBRANCH  20  21
ENDBRANCH   2  20
TORSDOF 10
