REMARK  Name = ZINC12402288
REMARK  7 active torsions:
REMARK  status: ('A' for Active; 'I' for Inactive)
REMARK    1  A    between atoms: C_1  and  C_2
REMARK    2  A    between atoms: C_2  and  C_33
REMARK    3  A    between atoms: C_6  and  C_22
REMARK    4  A    between atoms: C_8  and  C_20
REMARK    5  A    between atoms: C_9  and  N_19
REMARK    6  A    between atoms: N_10  and  C_11
REMARK    7  A    between atoms: C_25  and  N_27
REMARK                            x       y       z     vdW  Elec       q    Type
REMARK                         _______ _______ _______ _____ _____    ______ ____
ROOT
ATOM      1  C   UNL     1      -1.997   5.762   3.548  0.00  0.00    +0.011 C 
ATOM      2  C   UNL     1      -3.203   6.689   3.710  0.00  0.00    -0.023 C 
ATOM      3  C   UNL     1      -3.309   7.612   2.494  0.00  0.00    +0.058 C 
ATOM      4  C   UNL     1      -3.516   6.787   1.247  0.00  0.00    +0.025 C 
ATOM      5  C   UNL     1      -4.168   5.606   1.295  0.00  0.00    +0.026 C 
ATOM      6  C   UNL     1      -4.378   4.785   0.048  0.00  0.00    +0.104 C 
ATOM      7  C   UNL     1      -4.182   5.614  -1.186  0.00  0.00    +0.077 C 
ATOM      8  C   UNL     1      -3.523   6.801  -1.137  0.00  0.00    +0.107 C 
ATOM      9  N   UNL     1      -3.029   7.267   0.060  0.00  0.00    -0.255 N 
ATOM     10  C   UNL     1      -4.671   5.104   2.509  0.00  0.00    +0.162 C 
ATOM     11  O   UNL     1      -5.267   4.045   2.516  0.00  0.00    -0.292 OA
ATOM     12  C   UNL     1      -4.485   5.855   3.799  0.00  0.00    +0.086 C 
ATOM     13  C   UNL     1      -3.040   7.527   4.979  0.00  0.00    +0.011 C 
ENDROOT
BRANCH   9  14
ATOM     14  C   UNL     1      -2.021   8.240   0.065  0.00  0.00    +0.110 A 
ATOM     15  C   UNL     1      -0.684   7.858   0.066  0.00  0.00    +0.148 A 
ATOM     16  C   UNL     1       0.309   8.821   0.065  0.00  0.00    +0.040 A 
ATOM     17  C   UNL     1      -0.027  10.163   0.074  0.00  0.00    +0.006 A 
ATOM     18  C   UNL     1      -1.355  10.547   0.080  0.00  0.00    +0.040 A 
ATOM     19  C   UNL     1      -2.354   9.589   0.075  0.00  0.00    +0.148 A 
ATOM     20  F   UNL     1      -3.651   9.966   0.079  0.00  0.00    -0.203 F 
ATOM     21  F   UNL     1      -0.355   6.548   0.062  0.00  0.00    -0.203 F 
ENDBRANCH   9  14
BRANCH   6  22
ATOM     22  C   UNL     1      -3.395   3.643   0.038  0.00  0.00    +0.005 A 
ATOM     23  C   UNL     1      -3.636   2.309   0.032  0.00  0.00    +0.014 A 
ATOM     24  C   UNL     1      -2.565   1.434   0.017  0.00  0.00    +0.041 A 
ATOM     25  C   UNL     1      -1.306   1.937   0.019  0.00  0.00    +0.164 A 
ATOM     26  S   UNL     1      -1.611   3.696   0.029  0.00  0.00    -0.068 S 
BRANCH  25  27
ATOM     27  N   UNL     1      -0.014   1.214   0.009  0.00  0.00    +0.063 N 
ATOM     28  O   UNL     1       0.002  -0.004   0.002  0.00  0.00    -0.126 OA
ATOM     29  O   UNL     1       1.032   1.837   0.002  0.00  0.00    -0.126 OA
ENDBRANCH  25  27
ENDBRANCH   6  22
BRANCH   8  30
ATOM     30  N   UNL     1      -3.349   7.537  -2.284  0.00  0.00    -0.345 N 
ATOM     31  H   UNL     1      -3.697   7.210  -3.128  0.00  0.00    +0.144 HD
ATOM     32  H   UNL     1      -2.878   8.385  -2.250  0.00  0.00    +0.144 HD
ENDBRANCH   8  30
BRANCH   7  33
ATOM     33  C   UNL     1      -4.698   5.147  -2.438  0.00  0.00    +0.099 C 
ATOM     34  N   UNL     1      -5.107   4.776  -3.430  0.00  0.00    -0.191 NA
ENDBRANCH   7  33
TORSDOF 5
