REMARK  Name = ZINC15672913
REMARK  7 active torsions:
REMARK  status: ('A' for Active; 'I' for Inactive)
REMARK    1  A    between atoms: C_1  and  C_2
REMARK    2  A    between atoms: C_2  and  C_23
REMARK    3  A    between atoms: N_14  and  C_15
REMARK    4  A    between atoms: C_15  and  C_16
REMARK    5  A    between atoms: C_16  and  C_17
REMARK    6  A    between atoms: C_17  and  N_74
REMARK    7  A    between atoms: N_25  and  C_26
REMARK                            x       y       z     vdW  Elec       q    Type
REMARK                         _______ _______ _______ _____ _____    ______ ____
ROOT
ATOM      1  C   UNL     1      -4.067   4.882  -0.294  0.00  0.00    +0.043 C 
ATOM      2  C   UNL     1      -2.971   3.860  -0.604  0.00  0.00    +0.128 C 
ATOM      3  C   UNL     1      -1.675   4.304   0.076  0.00  0.00    +0.157 C 
ATOM      4  N   UNL     1      -0.713   3.200   0.036  0.00  0.00    -0.333 N 
ATOM      5  C   UNL     1       0.669   3.253   0.017  0.00  0.00    +0.057 A 
ATOM      6  C   UNL     1       1.690   4.214   0.009  0.00  0.00    +0.034 A 
ATOM      7  C   UNL     1       2.984   3.831  -0.008  0.00  0.00    +0.048 A 
ATOM      8  S   UNL     1       2.863   2.050  -0.017  0.00  0.00    -0.095 S 
ATOM      9  C   UNL     1       1.094   1.916   0.002  0.00  0.00    +0.038 A 
ATOM     10  C   UNL     1      -0.013   1.076   0.008  0.00  0.00    +0.048 A 
ATOM     11  C   UNL     1      -1.120   1.870   0.017  0.00  0.00    +0.106 A 
ATOM     12  C   UNL     1      -2.547   1.524   0.039  0.00  0.00    +0.264 C 
ATOM     13  O   UNL     1      -2.929   0.383   0.223  0.00  0.00    -0.268 OA
ATOM     14  N   UNL     1      -3.414   2.544  -0.161  0.00  0.00    -0.281 N 
ENDROOT
BRANCH   2  15
ATOM     15  C   UNL     1      -2.751   3.824  -2.094  0.00  0.00    +0.238 C 
ATOM     16  O   UNL     1      -3.054   4.780  -2.776  0.00  0.00    -0.273 OA
ATOM     17  N   UNL     1      -2.217   2.728  -2.670  0.00  0.00    -0.311 N 
ATOM     18  H   UNL     1      -1.974   1.963  -2.125  0.00  0.00    +0.149 HD
BRANCH  17  19
ATOM     19  C   UNL     1      -2.003   2.693  -4.119  0.00  0.00    +0.073 C 
ATOM     20  C   UNL     1      -3.292   2.250  -4.814  0.00  0.00    +0.022 C 
ATOM     21  C   UNL     1      -3.209   2.587  -6.304  0.00  0.00    +0.002 C 
ATOM     22  C   UNL     1      -2.640   3.997  -6.478  0.00  0.00    +0.000 C 
ATOM     23  C   UNL     1      -1.263   3.913  -7.139  0.00  0.00    +0.000 C 
ATOM     24  C   UNL     1      -0.231   3.450  -6.109  0.00  0.00    +0.000 C 
ATOM     25  C   UNL     1      -0.386   1.947  -5.871  0.00  0.00    +0.002 C 
ATOM     26  C   UNL     1      -0.882   1.704  -4.444  0.00  0.00    +0.022 C 
ENDBRANCH  17  19
ENDBRANCH   2  15
BRANCH  14  27
ATOM     27  C   UNL     1      -4.843   2.318   0.075  0.00  0.00    +0.107 C 
BRANCH  27  28
ATOM     28  C   UNL     1      -5.502   1.831  -1.216  0.00  0.00    +0.000 C 
BRANCH  28  29
ATOM     29  C   UNL     1      -6.994   1.595  -0.970  0.00  0.00    -0.077 C 
BRANCH  29  35
ATOM     30  C   UNL     1      -7.599   2.173  -3.242  0.00  0.00    -0.079 C 
ATOM     31  C   UNL     1      -8.133   1.606  -4.559  0.00  0.00    -0.019 C 
ATOM     32  C   UNL     1      -9.565   1.107  -4.351  0.00  0.00    -0.004 C 
ATOM     33  C   UNL     1      -9.574   0.054  -3.239  0.00  0.00    -0.019 C 
ATOM     34  C   UNL     1      -8.998   0.666  -1.960  0.00  0.00    -0.079 C 
ATOM     35  N   UNL     1      -7.610   1.105  -2.220  0.00  0.00    +0.380 N 
ATOM     36  H   UNL     1      -7.068   0.305  -2.568  0.00  0.00    -0.082 HD
ENDBRANCH  29  35
ENDBRANCH  28  29
ENDBRANCH  27  28
ENDBRANCH  14  27
TORSDOF 6
