REMARK  Name = ZINC45754433
REMARK  5 active torsions:
REMARK  status: ('A' for Active; 'I' for Inactive)
REMARK    1  A    between atoms: C_2  and  C_25
REMARK    2  A    between atoms: C_7  and  C_9
REMARK    3  A    between atoms: C_9  and  C_10
REMARK    4  A    between atoms: C_10  and  N_11
REMARK    5  A    between atoms: C_25  and  N_26
REMARK                            x       y       z     vdW  Elec       q    Type
REMARK                         _______ _______ _______ _____ _____    ______ ____
ROOT
ATOM      1  C   UNL     1      -0.022   1.781   0.012  0.00  0.00    +0.070 A 
ATOM      2  C   UNL     1       1.306   2.052   0.001  0.00  0.00    +0.034 A 
ATOM      3  N   UNL     1       2.129   1.020  -0.013  0.00  0.00    -0.231 NA
ATOM      4  C   UNL     1       1.672  -0.214  -0.015  0.00  0.00    +0.164 A 
ATOM      5  S   UNL     1       0.002  -0.004   0.002  0.00  0.00    -0.060 S 
ATOM      6  N   UNL     1       2.393  -1.402  -0.029  0.00  0.00    -0.265 N 
ATOM      7  C   UNL     1       1.745  -2.584  -0.029  0.00  0.00    +0.220 C 
ATOM      8  O   UNL     1       0.532  -2.611  -0.017  0.00  0.00    -0.275 OA
ATOM      9  H   UNL     1       3.363  -1.381  -0.038  0.00  0.00    +0.157 HD
ENDROOT
BRANCH   7  10
ATOM     10  C   UNL     1       2.526  -3.872  -0.044  0.00  0.00    +0.118 C 
BRANCH  10  11
ATOM     11  C   UNL     1       1.558  -5.057  -0.041  0.00  0.00    +0.135 C 
BRANCH  11  12
ATOM     12  N   UNL     1       2.318  -6.309  -0.055  0.00  0.00    -0.298 N 
ATOM     13  C   UNL     1       2.656  -6.868  -1.245  0.00  0.00    +0.203 A 
ATOM     14  N   UNL     1       3.333  -7.984  -1.300  0.00  0.00    -0.230 NA
ATOM     15  C   UNL     1       3.713  -8.608  -0.189  0.00  0.00    +0.116 A 
ATOM     16  C   UNL     1       3.411  -8.107   1.087  0.00  0.00    +0.076 A 
ATOM     17  C   UNL     1       2.671  -6.879   1.112  0.00  0.00    +0.262 A 
ATOM     18  O   UNL     1       2.365  -6.362   2.172  0.00  0.00    -0.267 OA
ATOM     19  C   UNL     1       3.892  -8.900   2.217  0.00  0.00    -0.023 A 
ATOM     20  C   UNL     1       4.575 -10.027   1.927  0.00  0.00    -0.004 A 
ATOM     21  S   UNL     1       4.616 -10.097   0.156  0.00  0.00    -0.073 S 
ATOM     22  C   UNL     1       5.168 -11.004   2.896  0.00  0.00    +0.043 C 
ATOM     23  C   UNL     1       5.208 -10.347   4.283  0.00  0.00    +0.005 C 
ATOM     24  C   UNL     1       3.844  -9.712   4.565  0.00  0.00    +0.005 C 
ATOM     25  C   UNL     1       3.644  -8.491   3.666  0.00  0.00    +0.037 C 
ENDBRANCH  11  12
ENDBRANCH  10  11
ENDBRANCH   7  10
BRANCH   2  26
ATOM     26  C   UNL     1       1.821   3.468   0.003  0.00  0.00    -0.022 C 
BRANCH  26  27
ATOM     27  N   UNL     1       2.115   3.881   1.382  0.00  0.00    +0.383 N 
ATOM     28  C   UNL     1       0.869   3.910   2.158  0.00  0.00    -0.078 C 
ATOM     29  C   UNL     1       1.180   4.260   3.615  0.00  0.00    -0.019 C 
ATOM     30  C   UNL     1       1.851   5.635   3.672  0.00  0.00    -0.004 C 
ATOM     31  C   UNL     1       3.109   5.614   2.799  0.00  0.00    -0.019 C 
ATOM     32  C   UNL     1       2.727   5.214   1.372  0.00  0.00    -0.078 C 
ATOM     33  H   UNL     1       2.754   3.221   1.800  0.00  0.00    -0.081 HD
ENDBRANCH  26  27
ENDBRANCH   2  26
TORSDOF 5
