REMARK  Name = ZINC12537058
REMARK  10 active torsions:
REMARK  status: ('A' for Active; 'I' for Inactive)
REMARK    1  A    between atoms: C_1  and  N_62
REMARK    2  A    between atoms: C_2  and  C_3
REMARK    3  A    between atoms: C_2  and  N_62
REMARK    4  A    between atoms: C_6  and  N_9
REMARK    5  A    between atoms: C_15  and  N_16
REMARK    6  A    between atoms: C_15  and  N_62
REMARK    7  A    between atoms: N_19  and  C_27
REMARK    8  A    between atoms: C_20  and  C_22
REMARK    9  A    between atoms: C_27  and  C_28
REMARK   10  A    between atoms: C_28  and  C_29
REMARK                            x       y       z     vdW  Elec       q    Type
REMARK                         _______ _______ _______ _____ _____    ______ ____
ROOT
ATOM      1  N   UNL     1       0.002  -0.004   0.002  0.00  0.00    -0.257 N 
ATOM      2  C   UNL     1       1.293  -0.393  -0.012  0.00  0.00    +0.177 A 
ATOM      3  S   UNL     1       1.861  -2.008  -0.027  0.00  0.00    -0.011 S 
ATOM      4  N   UNL     1       2.056   0.718  -0.014  0.00  0.00    -0.302 N 
ATOM      5  C   UNL     1       1.220   1.818   0.000  0.00  0.00    +0.169 A 
ATOM      6  N   UNL     1      -0.017   1.397   0.010  0.00  0.00    -0.152 NA
ENDROOT
BRANCH   5   7
ATOM      7  C   UNL     1       1.650   3.227   0.004  0.00  0.00    +0.056 A 
ATOM      8  C   UNL     1       0.921   4.352   0.293  0.00  0.00    +0.019 A 
ATOM      9  C   UNL     1       1.545   5.577   0.229  0.00  0.00    +0.008 A 
ATOM     10  C   UNL     1       2.857   5.636  -0.117  0.00  0.00    +0.046 A 
ATOM     11  S   UNL     1       3.257   3.913  -0.360  0.00  0.00    -0.094 S 
ENDBRANCH   5   7
BRANCH   1  12
ATOM     12  C   UNL     1      -1.168  -0.886   0.009  0.00  0.00    +0.072 C 
BRANCH  12  14
ATOM     13  C   UNL     1      -2.054   0.041  -2.045  0.00  0.00    -0.093 C 
ATOM     14  N   UNL     1      -1.549  -1.183  -1.388  0.00  0.00    +0.394 N 
ATOM     15  H   UNL     1      -0.722  -1.517  -1.896  0.00  0.00    -0.079 HD
BRANCH  14  16
ATOM     16  C   UNL     1      -2.586  -2.236  -1.415  0.00  0.00    -0.041 C 
BRANCH  16  17
ATOM     17  C   UNL     1      -2.797  -2.674  -2.842  0.00  0.00    -0.064 A 
ATOM     18  C   UNL     1      -3.756  -2.052  -3.620  0.00  0.00    +0.003 A 
ATOM     19  C   UNL     1      -3.948  -2.447  -4.929  0.00  0.00    +0.023 A 
ATOM     20  C   UNL     1      -3.183  -3.478  -5.461  0.00  0.00    +0.030 A 
ATOM     21  C   UNL     1      -2.224  -4.104  -4.675  0.00  0.00    +0.023 A 
ATOM     22  C   UNL     1      -2.034  -3.700  -3.368  0.00  0.00    +0.003 A 
BRANCH  20  23
ATOM     23  N   UNL     1      -3.377  -3.884  -6.783  0.00  0.00    -0.330 N 
ATOM     24  C   UNL     1      -2.124  -3.814  -7.545  0.00  0.00    +0.105 C 
ATOM     25  C   UNL     1      -2.341  -4.401  -8.942  0.00  0.00    +0.019 C 
ATOM     26  C   UNL     1      -3.439  -3.610  -9.657  0.00  0.00    +0.003 C 
ATOM     27  C   UNL     1      -4.720  -3.657  -8.820  0.00  0.00    +0.019 C 
ATOM     28  C   UNL     1      -4.434  -3.092  -7.427  0.00  0.00    +0.105 C 
ENDBRANCH  20  23
ENDBRANCH  16  17
ENDBRANCH  14  16
ENDBRANCH  12  14
ENDBRANCH   1  12
BRANCH   4  29
ATOM     29  C   UNL     1       3.521   0.753  -0.028  0.00  0.00    +0.135 C 
BRANCH  29  30
ATOM     30  C   UNL     1       4.016   0.773  -1.475  0.00  0.00    +0.117 C 
BRANCH  30  31
ATOM     31  C   UNL     1       5.523   0.810  -1.490  0.00  0.00    +0.212 C 
ATOM     32  O   UNL     1       6.139   0.819  -0.446  0.00  0.00    -0.276 OA
ATOM     33  N   UNL     1       6.185   0.832  -2.664  0.00  0.00    -0.329 N 
ATOM     34  H   UNL     1       5.692   0.825  -3.499  0.00  0.00    +0.145 HD
ATOM     35  H   UNL     1       7.155   0.856  -2.673  0.00  0.00    +0.145 HD
ENDBRANCH  30  31
ENDBRANCH  29  30
ENDBRANCH   4  29
TORSDOF 9
