REMARK  Name = ZINC21235166
REMARK  11 active torsions:
REMARK  status: ('A' for Active; 'I' for Inactive)
REMARK    1  A    between atoms: C_1  and  C_2
REMARK    2  A    between atoms: C_2  and  C_3
REMARK    3  A    between atoms: C_3  and  O_4
REMARK    4  A    between atoms: O_4  and  C_5
REMARK    5  A    between atoms: C_8  and  C_11
REMARK    6  A    between atoms: C_16  and  C_26
REMARK    7  A    between atoms: C_29  and  O_32
REMARK    8  A    between atoms: O_32  and  C_33
REMARK    9  A    between atoms: C_33  and  C_34
REMARK   10  A    between atoms: C_34  and  C_35
REMARK   11  A    between atoms: C_34  and  C_36
REMARK                            x       y       z     vdW  Elec       q    Type
REMARK                         _______ _______ _______ _____ _____    ______ ____
ROOT
ATOM      1  C   UNL     1      -4.573   9.402   0.060  0.00  0.00    +0.032 C 
ATOM      2  C   UNL     1      -3.395   9.202  -0.892  0.00  0.00    +0.059 C 
ATOM      3  C   UNL     1      -2.157   8.803  -0.105  0.00  0.00    +0.017 C 
ATOM      4  C   UNL     1      -2.269   8.059   1.006  0.00  0.00    +0.036 C 
ATOM      5  C   UNL     1      -1.126   7.561   1.859  0.00  0.00    +0.136 C 
ATOM      6  N   UNL     1       0.155   8.163   1.554  0.00  0.00    -0.331 N 
ATOM      7  C   UNL     1       0.769   7.963   0.319  0.00  0.00    +0.049 A 
ATOM      8  C   UNL     1       1.968   7.277   0.209  0.00  0.00    +0.025 A 
ATOM      9  C   UNL     1       2.517   7.064  -1.044  0.00  0.00    +0.002 A 
ATOM     10  C   UNL     1       1.875   7.527  -2.177  0.00  0.00    +0.002 A 
ATOM     11  C   UNL     1       0.685   8.228  -2.070  0.00  0.00    +0.025 A 
ATOM     12  C   UNL     1       0.146   8.460  -0.816  0.00  0.00    +0.052 A 
ATOM     13  N   UNL     1      -0.986   9.246  -0.630  0.00  0.00    -0.316 N 
ATOM     14  C   UNL     1      -3.545   7.671   1.479  0.00  0.00    +0.163 C 
ATOM     15  O   UNL     1      -3.615   6.986   2.481  0.00  0.00    -0.292 OA
ATOM     16  C   UNL     1      -4.814   8.075   0.790  0.00  0.00    +0.088 C 
ATOM     17  H   UNL     1       0.660   8.790   2.303  0.00  0.00    +0.147 HD
ATOM     18  H   UNL     1      -0.885  10.296  -0.942  0.00  0.00    +0.152 HD
ENDROOT
BRANCH   1  22
ATOM     19  C   UNL     1      -8.059  10.491  -2.158  0.00  0.00    +0.121 A 
ATOM     20  C   UNL     1      -7.558  11.347  -1.188  0.00  0.00    +0.046 A 
ATOM     21  C   UNL     1      -6.431  10.992  -0.472  0.00  0.00    +0.007 A 
ATOM     22  C   UNL     1      -5.803   9.786  -0.722  0.00  0.00    -0.043 A 
ATOM     23  C   UNL     1      -6.297   8.934  -1.692  0.00  0.00    +0.007 A 
ATOM     24  C   UNL     1      -7.427   9.282  -2.407  0.00  0.00    +0.046 A 
BRANCH  19  25
ATOM     25  O   UNL     1      -9.168  10.838  -2.863  0.00  0.00    -0.492 OA
BRANCH  25  26
ATOM     26  C   UNL     1      -9.628   9.908  -3.846  0.00  0.00    +0.229 C 
BRANCH  26  28
ATOM     27  C   UNL     1     -11.370   9.472  -5.584  0.00  0.00    +0.007 C 
ATOM     28  C   UNL     1     -10.877  10.467  -4.531  0.00  0.00    +0.038 C 
ENDBRANCH  26  28
ENDBRANCH  25  26
ENDBRANCH  19  25
ENDBRANCH   1  22
BRANCH   5  29
ATOM     29  C   UNL     1      -1.009   6.070   1.679  0.00  0.00    -0.023 A 
ATOM     30  C   UNL     1      -1.263   5.224   2.743  0.00  0.00    +0.009 A 
ATOM     31  C   UNL     1      -1.156   3.856   2.580  0.00  0.00    +0.046 A 
ATOM     32  C   UNL     1      -0.793   3.332   1.349  0.00  0.00    +0.121 A 
ATOM     33  C   UNL     1      -0.533   4.183   0.284  0.00  0.00    +0.046 A 
ATOM     34  C   UNL     1      -0.647   5.549   0.450  0.00  0.00    +0.009 A 
BRANCH  32  35
ATOM     35  O   UNL     1      -0.688   1.987   1.186  0.00  0.00    -0.492 OA
BRANCH  35  36
ATOM     36  C   UNL     1      -0.310   1.517  -0.110  0.00  0.00    +0.232 C 
BRANCH  36  37
ATOM     37  C   UNL     1      -0.243  -0.011  -0.099  0.00  0.00    +0.020 C 
ATOM     38  C   UNL     1      -1.642  -0.581   0.146  0.00  0.00    +0.010 C 
ATOM     39  C   UNL     1       0.281  -0.508  -1.448  0.00  0.00    +0.010 C 
ENDBRANCH  36  37
ENDBRANCH  35  36
ENDBRANCH  32  35
ENDBRANCH   5  29
TORSDOF 8
