REMARK  Name = ZINC12614684
REMARK  5 active torsions:
REMARK  status: ('A' for Active; 'I' for Inactive)
REMARK    1  A    between atoms: C_4  and  N_7
REMARK    2  A    between atoms: C_8  and  C_10
REMARK    3  A    between atoms: C_10  and  N_62
REMARK    4  A    between atoms: C_13  and  N_16
REMARK    5  A    between atoms: C_17  and  C_19
REMARK                            x       y       z     vdW  Elec       q    Type
REMARK                         _______ _______ _______ _____ _____    ______ ____
ROOT
ATOM      1  C   UNL     1      -2.537  -2.713  -0.579  0.00  0.00    -0.076 C 
ATOM      2  C   UNL     1      -1.240  -1.910  -0.701  0.00  0.00    +0.003 C 
ATOM      3  C   UNL     1      -1.351  -0.638   0.146  0.00  0.00    +0.069 C 
ATOM      4  C   UNL     1      -1.641  -1.026   1.599  0.00  0.00    +0.003 C 
ATOM      5  C   UNL     1      -2.927  -1.855   1.653  0.00  0.00    -0.076 C 
ATOM      6  N   UNL     1      -2.746  -3.075   0.839  0.00  0.00    +0.386 N 
ATOM      7  H   UNL     1      -1.920  -3.583   1.178  0.00  0.00    -0.081 HD
ENDROOT
BRANCH   3   8
ATOM      8  N   UNL     1      -0.091   0.105   0.080  0.00  0.00    -0.312 N 
ATOM      9  C   UNL     1      -0.082   1.436   0.294  0.00  0.00    +0.219 C 
ATOM     10  O   UNL     1      -1.118   2.018   0.536  0.00  0.00    -0.275 OA
ATOM     11  H   UNL     1       0.737  -0.360  -0.117  0.00  0.00    +0.149 HD
BRANCH   9  12
ATOM     12  C   UNL     1       1.214   2.201   0.227  0.00  0.00    +0.048 C 
ATOM     13  C   UNL     1       1.826   2.047  -1.168  0.00  0.00    +0.019 C 
ATOM     14  C   UNL     1       3.142   2.824  -1.236  0.00  0.00    -0.009 C 
ATOM     15  C   UNL     1       2.875   4.305  -0.958  0.00  0.00    +0.007 C 
ATOM     16  C   UNL     1       2.264   4.459   0.437  0.00  0.00    -0.009 C 
ATOM     17  C   UNL     1       0.948   3.682   0.505  0.00  0.00    +0.019 C 
ATOM     18  C   UNL     1       3.236   3.910   1.483  0.00  0.00    +0.007 C 
ATOM     19  C   UNL     1       3.502   2.429   1.204  0.00  0.00    -0.009 C 
ATOM     20  C   UNL     1       4.114   2.275  -0.190  0.00  0.00    +0.007 C 
ATOM     21  C   UNL     1       2.186   1.652   1.273  0.00  0.00    +0.019 C 
ENDBRANCH   9  12
ENDBRANCH   3   8
BRANCH   6  22
ATOM     22  C   UNL     1      -3.931  -3.948   0.967  0.00  0.00    +0.019 C 
BRANCH  22  24
ATOM     23  N   UNL     1      -4.591  -6.212   0.222  0.00  0.00    -0.287 N 
ATOM     24  C   UNL     1      -3.625  -5.279   0.331  0.00  0.00    +0.201 C 
ATOM     25  O   UNL     1      -2.508  -5.511  -0.083  0.00  0.00    -0.278 OA
ATOM     26  H   UNL     1      -5.499  -6.004   0.491  0.00  0.00    +0.155 HD
BRANCH  23  30
ATOM     27  C   UNL     1      -3.677  -9.992  -1.274  0.00  0.00    +0.000 A 
ATOM     28  C   UNL     1      -4.623  -9.855  -0.275  0.00  0.00    +0.002 A 
ATOM     29  C   UNL     1      -4.928  -8.604   0.223  0.00  0.00    +0.023 A 
ATOM     30  C   UNL     1      -4.284  -7.481  -0.281  0.00  0.00    +0.033 A 
ATOM     31  C   UNL     1      -3.338  -7.621  -1.288  0.00  0.00    +0.023 A 
ATOM     32  C   UNL     1      -3.034  -8.876  -1.778  0.00  0.00    +0.002 A 
ENDBRANCH  23  30
ENDBRANCH  22  24
ENDBRANCH   6  22
TORSDOF 5
