REMARK  Name = ZINC13061807
REMARK  14 active torsions:
REMARK  status: ('A' for Active; 'I' for Inactive)
REMARK    1  A    between atoms: C_1  and  C_2
REMARK    2  A    between atoms: C_2  and  C_3
REMARK    3  A    between atoms: C_3  and  C_4
REMARK    4  A    between atoms: C_4  and  N_5
REMARK    5  A    between atoms: C_6  and  N_34
REMARK    6  A    between atoms: C_7  and  N_14
REMARK    7  A    between atoms: N_14  and  C_15
REMARK    8  A    between atoms: C_15  and  C_16
REMARK    9  A    between atoms: C_16  and  C_17
REMARK   10  A    between atoms: C_17  and  C_18
REMARK   11  A    between atoms: C_17  and  C_19
REMARK   12  A    between atoms: C_20  and  C_22
REMARK   13  A    between atoms: C_22  and  N_23
REMARK   14  A    between atoms: C_31  and  C_33
REMARK                            x       y       z     vdW  Elec       q    Type
REMARK                         _______ _______ _______ _____ _____    ______ ____
ROOT
ATOM      1  N   UNL     1      -1.729   5.748  -2.991  0.00  0.00    -0.263 N 
ATOM      2  C   UNL     1      -2.139   4.749  -2.181  0.00  0.00    +0.237 C 
ATOM      3  O   UNL     1      -2.265   3.625  -2.619  0.00  0.00    -0.274 OA
ENDROOT
BRANCH   1   6
ATOM      4  N   UNL     1      -0.354   4.466  -6.148  0.00  0.00    -0.280 N 
ATOM      5  C   UNL     1      -0.516   4.684  -4.800  0.00  0.00    +0.127 A 
ATOM      6  C   UNL     1      -1.537   5.505  -4.368  0.00  0.00    +0.140 A 
ATOM      7  C   UNL     1      -2.387   6.093  -5.324  0.00  0.00    +0.277 A 
ATOM      8  O   UNL     1      -3.300   6.820  -4.969  0.00  0.00    -0.266 OA
ATOM      9  N   UNL     1      -2.182   5.851  -6.633  0.00  0.00    -0.273 N 
ATOM     10  H   UNL     1      -2.780   6.274  -7.314  0.00  0.00    +0.173 HD
ATOM     11  C   UNL     1      -1.181   5.048  -7.035  0.00  0.00    +0.331 A 
ATOM     12  O   UNL     1      -1.021   4.843  -8.223  0.00  0.00    -0.246 OA
BRANCH   5  13
ATOM     13  N   UNL     1       0.329   4.090  -3.893  0.00  0.00    -0.343 N 
ATOM     14  H   UNL     1       0.178   4.205  -2.942  0.00  0.00    +0.144 HD
ATOM     15  H   UNL     1       1.077   3.556  -4.205  0.00  0.00    +0.144 HD
ENDBRANCH   5  13
BRANCH   4  16
ATOM     16  C   UNL     1       0.725   3.596  -6.621  0.00  0.00    +0.128 C 
BRANCH  16  17
ATOM     17  C   UNL     1       0.218   2.155  -6.708  0.00  0.00    +0.021 C 
BRANCH  17  19
ATOM     18  C   UNL     1       0.837  -0.195  -7.289  0.00  0.00    +0.004 C 
ATOM     19  C   UNL     1       1.345   1.246  -7.201  0.00  0.00    -0.002 C 
ENDBRANCH  17  19
ENDBRANCH  16  17
ENDBRANCH   4  16
ENDBRANCH   1   6
BRANCH   1  20
ATOM     20  C   UNL     1      -1.484   7.083  -2.441  0.00  0.00    +0.114 C 
BRANCH  20  21
ATOM     21  C   UNL     1      -0.001   7.228  -2.093  0.00  0.00    +0.022 C 
BRANCH  21  22
ATOM     22  C   UNL     1       0.255   8.622  -1.519  0.00  0.00    -0.016 C 
ATOM     23  C   UNL     1      -0.489   8.771  -0.190  0.00  0.00    +0.007 C 
ATOM     24  C   UNL     1       1.755   8.811  -1.287  0.00  0.00    +0.007 C 
ENDBRANCH  21  22
ENDBRANCH  20  21
ENDBRANCH   1  20
BRANCH   2  25
ATOM     25  C   UNL     1      -2.440   5.031  -0.731  0.00  0.00    +0.201 C 
BRANCH  25  26
ATOM     26  N   UNL     1      -2.875   3.792  -0.072  0.00  0.00    -0.321 N 
ATOM     27  C   UNL     1      -4.124   3.298  -0.654  0.00  0.00    +0.106 C 
ATOM     28  C   UNL     1      -4.514   1.994   0.053  0.00  0.00    +0.024 C 
ATOM     29  C   UNL     1      -3.489   0.925  -0.332  0.00  0.00    +0.038 C 
ATOM     30  C   UNL     1      -2.095   1.482  -0.190  0.00  0.00    -0.026 A 
ATOM     31  C   UNL     1      -1.856   2.841  -0.075  0.00  0.00    +0.033 A 
ATOM     32  C   UNL     1      -0.542   3.297   0.043  0.00  0.00    +0.023 A 
ATOM     33  C   UNL     1       0.509   2.405   0.055  0.00  0.00    +0.005 A 
ATOM     34  C   UNL     1       0.264   1.048  -0.049  0.00  0.00    -0.050 A 
ATOM     35  C   UNL     1      -1.034   0.591  -0.167  0.00  0.00    +0.008 A 
ATOM     36  C   UNL     1       1.410   0.071  -0.031  0.00  0.00    +0.044 C 
ENDBRANCH  25  26
ENDBRANCH   2  25
TORSDOF 10
