REMARK  Name = ZINC21942188
REMARK  11 active torsions:
REMARK  status: ('A' for Active; 'I' for Inactive)
REMARK    1  A    between atoms: C_1  and  C_2
REMARK    2  A    between atoms: C_2  and  N_3
REMARK    3  A    between atoms: N_3  and  C_4
REMARK    4  A    between atoms: C_5  and  N_20
REMARK    5  A    between atoms: N_6  and  C_13
REMARK    6  A    between atoms: C_13  and  C_14
REMARK    7  A    between atoms: C_21  and  C_23
REMARK    8  A    between atoms: C_23  and  O_24
REMARK    9  A    between atoms: O_24  and  C_25
REMARK   10  A    between atoms: C_25  and  C_27
REMARK   11  A    between atoms: C_28  and  C_29
REMARK                            x       y       z     vdW  Elec       q    Type
REMARK                         _______ _______ _______ _____ _____    ______ ____
ROOT
ATOM      1  C   UNL     1       2.365   1.196  -0.005  0.00  0.00    +0.140 A 
ATOM      2  C   UNL     1       2.662   0.294   0.996  0.00  0.00    +0.128 A 
ATOM      3  N   UNL     1       3.900  -0.305   1.014  0.00  0.00    -0.276 N 
ATOM      4  C   UNL     1       4.815  -0.006   0.073  0.00  0.00    +0.331 A 
ATOM      5  O   UNL     1       5.905  -0.543   0.110  0.00  0.00    -0.246 OA
ATOM      6  N   UNL     1       4.545   0.875  -0.906  0.00  0.00    -0.273 N 
ATOM      7  H   UNL     1       5.307   1.105  -1.665  0.00  0.00    +0.173 HD
ATOM      8  C   UNL     1       3.345   1.485  -0.972  0.00  0.00    +0.277 A 
ATOM      9  O   UNL     1       3.111   2.282  -1.865  0.00  0.00    -0.266 OA
ENDROOT
BRANCH   1  10
ATOM     10  N   UNL     1       1.102   1.823  -0.054  0.00  0.00    -0.262 N 
ATOM     11  C   UNL     1      -0.012   1.083  -0.240  0.00  0.00    +0.258 C 
ATOM     12  O   UNL     1       0.080  -0.108  -0.449  0.00  0.00    -0.272 OA
BRANCH  10  14
ATOM     13  C   UNL     1       0.869   3.626   1.582  0.00  0.00    +0.025 C 
ATOM     14  C   UNL     1       0.999   3.276   0.098  0.00  0.00    +0.110 C 
ENDBRANCH  10  14
BRANCH  11  15
ATOM     15  C   UNL     1      -1.368   1.738  -0.196  0.00  0.00    +0.328 C 
BRANCH  15  16
ATOM     16  O   UNL     1      -2.380   0.756  -0.426  0.00  0.00    -0.452 OA
BRANCH  16  17
ATOM     17  C   UNL     1      -3.660   1.181  -0.418  0.00  0.00    +0.332 C 
ATOM     18  O   UNL     1      -3.909   2.356  -0.221  0.00  0.00    -0.246 OA
BRANCH  17  19
ATOM     19  C   UNL     1      -4.747   0.232  -0.647  0.00  0.00    +0.092 C 
ATOM     20  C   UNL     1      -6.028   0.657  -0.639  0.00  0.00    +0.015 C 
BRANCH  20  21
ATOM     21  C   UNL     1      -7.122  -0.299  -0.869  0.00  0.00    -0.025 A 
ATOM     22  C   UNL     1      -6.839  -1.649  -1.102  0.00  0.00    +0.009 A 
ATOM     23  C   UNL     1      -7.870  -2.539  -1.312  0.00  0.00    +0.020 A 
ATOM     24  C   UNL     1      -9.183  -2.099  -1.303  0.00  0.00    +0.041 A 
ATOM     25  C   UNL     1      -9.471  -0.762  -1.078  0.00  0.00    +0.020 A 
ATOM     26  C   UNL     1      -8.451   0.139  -0.862  0.00  0.00    +0.009 A 
ATOM     27 CL   UNL     1     -10.474  -3.227  -1.574  0.00  0.00    -0.084 Cl
ENDBRANCH  20  21
ENDBRANCH  17  19
ENDBRANCH  16  17
ENDBRANCH  15  16
ENDBRANCH  11  15
ENDBRANCH   1  10
BRANCH   2  28
ATOM     28  N   UNL     1       1.730  -0.007   1.960  0.00  0.00    -0.343 N 
ATOM     29  H   UNL     1       1.974  -0.728   2.755  0.00  0.00    +0.144 HD
ATOM     30  H   UNL     1       0.741   0.473   1.938  0.00  0.00    +0.144 HD
ENDBRANCH   2  28
BRANCH   3  31
ATOM     31  C   UNL     1       4.228  -1.269   2.067  0.00  0.00    +0.163 C 
BRANCH  31  32
ATOM     32  C   UNL     1       4.832  -0.544   3.242  0.00  0.00    -0.028 A 
ATOM     33  C   UNL     1       6.200  -0.361   3.312  0.00  0.00    +0.005 A 
ATOM     34  C   UNL     1       6.753   0.308   4.388  0.00  0.00    +0.000 A 
ATOM     35  C   UNL     1       5.939   0.786   5.398  0.00  0.00    +0.000 A 
ATOM     36  C   UNL     1       4.572   0.598   5.330  0.00  0.00    +0.000 A 
ATOM     37  C   UNL     1       4.018  -0.067   4.252  0.00  0.00    +0.005 A 
ENDBRANCH  31  32
ENDBRANCH   3  31
TORSDOF 10
