REMARK  Name = ZINC12250094
REMARK  12 active torsions:
REMARK  status: ('A' for Active; 'I' for Inactive)
REMARK    1  A    between atoms: C_1  and  C_2
REMARK    2  A    between atoms: C_7  and  N_8
REMARK    3  A    between atoms: C_9  and  C_11
REMARK    4  A    between atoms: C_12  and  C_39
REMARK    5  A    between atoms: C_14  and  S_26
REMARK    6  A    between atoms: C_15  and  C_24
REMARK    7  A    between atoms: C_16  and  C_18
REMARK    8  A    between atoms: S_26  and  C_27
REMARK    9  A    between atoms: C_27  and  C_28
REMARK   10  A    between atoms: N_30  and  C_31
REMARK   11  A    between atoms: C_35  and  C_38
REMARK   12  A    between atoms: C_36  and  C_37
REMARK                            x       y       z     vdW  Elec       q    Type
REMARK                         _______ _______ _______ _____ _____    ______ ____
ROOT
ATOM      1  C   UNL     1       4.702   4.124  -0.175  0.00  0.00    +0.044 C 
ATOM      2  C   UNL     1       5.918   3.562  -0.253  0.00  0.00    +0.014 C 
ATOM      3  N   UNL     1       7.051   4.330  -0.258  0.00  0.00    -0.312 N 
ATOM      4  C   UNL     1       7.003   5.633   0.184  0.00  0.00    +0.080 C 
ATOM      5  C   UNL     1       5.814   6.284   0.286  0.00  0.00    +0.069 C 
ATOM      6  C   UNL     1       4.523   5.612  -0.086  0.00  0.00    +0.098 C 
ATOM      7  C   UNL     1       6.039   2.062  -0.343  0.00  0.00    +0.061 C 
ATOM      8  H   UNL     1       8.001   3.907  -0.617  0.00  0.00    +0.152 HD
ENDROOT
BRANCH   6   9
ATOM      9  C   UNL     1       4.059   6.136  -1.421  0.00  0.00    -0.035 A 
ATOM     10  C   UNL     1       4.846   5.961  -2.544  0.00  0.00    +0.004 A 
ATOM     11  C   UNL     1       4.418   6.437  -3.769  0.00  0.00    +0.000 A 
ATOM     12  C   UNL     1       3.208   7.097  -3.870  0.00  0.00    +0.000 A 
ATOM     13  C   UNL     1       2.423   7.277  -2.746  0.00  0.00    +0.000 A 
ATOM     14  C   UNL     1       2.849   6.796  -1.522  0.00  0.00    +0.004 A 
ENDBRANCH   6   9
BRANCH   1  16
ATOM     15  N   UNL     1       3.192   2.639  -1.292  0.00  0.00    -0.281 N 
ATOM     16  C   UNL     1       3.557   3.291  -0.169  0.00  0.00    +0.247 C 
ATOM     17  O   UNL     1       2.902   3.163   0.849  0.00  0.00    -0.270 OA
ATOM     18  H   UNL     1       3.824   2.696  -2.190  0.00  0.00    +0.155 HD
BRANCH  15  25
ATOM     19  C   UNL     1       1.697   2.559  -3.711  0.00  0.00    +0.045 C 
ATOM     20  C   UNL     1       1.250   1.825  -2.473  0.00  0.00    -0.029 A 
ATOM     21  C   UNL     1       0.084   1.085  -2.491  0.00  0.00    +0.005 A 
ATOM     22  C   UNL     1      -0.323   0.406  -1.357  0.00  0.00    +0.000 A 
ATOM     23  C   UNL     1       0.429   0.474  -0.199  0.00  0.00    +0.002 A 
ATOM     24  C   UNL     1       1.596   1.212  -0.174  0.00  0.00    +0.023 A 
ATOM     25  C   UNL     1       2.011   1.891  -1.313  0.00  0.00    +0.037 A 
ENDBRANCH  15  25
ENDBRANCH   1  16
BRANCH   5  26
ATOM     26  C   UNL     1       5.791   7.636   0.758  0.00  0.00    +0.098 C 
ATOM     27  N   UNL     1       5.773   8.708   1.133  0.00  0.00    -0.191 NA
ENDBRANCH   5  26
BRANCH   4  28
ATOM     28  S   UNL     1       8.495   6.463   0.622  0.00  0.00    -0.100 S 
BRANCH  28  29
ATOM     29  C   UNL     1       9.694   5.148   0.293  0.00  0.00    +0.171 C 
BRANCH  29  30
ATOM     30  C   UNL     1      11.083   5.644   0.605  0.00  0.00    +0.227 C 
ATOM     31  O   UNL     1      11.245   6.776   1.010  0.00  0.00    -0.275 OA
ATOM     32  N   UNL     1      12.143   4.831   0.434  0.00  0.00    -0.285 N 
ATOM     33  H   UNL     1      12.003   3.826   0.009  0.00  0.00    +0.155 HD
BRANCH  32  34
ATOM     34  C   UNL     1      13.423   5.264   0.798  0.00  0.00    +0.037 A 
ATOM     35  C   UNL     1      13.718   6.621   0.822  0.00  0.00    +0.023 A 
ATOM     36  C   UNL     1      14.980   7.046   1.188  0.00  0.00    +0.002 A 
ATOM     37  C   UNL     1      15.954   6.121   1.518  0.00  0.00    +0.004 A 
ATOM     38  C   UNL     1      15.665   4.769   1.489  0.00  0.00    -0.046 A 
ATOM     39  C   UNL     1      14.403   4.338   1.130  0.00  0.00    -0.026 A 
ATOM     40  C   UNL     1      14.090   2.865   1.099  0.00  0.00    +0.046 C 
ATOM     41  C   UNL     1      16.730   3.765   1.850  0.00  0.00    +0.044 C 
ENDBRANCH  32  34
ENDBRANCH  29  30
ENDBRANCH  28  29
ENDBRANCH   4  28
TORSDOF 8
