REMARK  Name = ZINC41584852
REMARK  7 active torsions:
REMARK  status: ('A' for Active; 'I' for Inactive)
REMARK    1  A    between atoms: C_1  and  C_2
REMARK    2  A    between atoms: C_4  and  O_34
REMARK    3  A    between atoms: C_5  and  C_20
REMARK    4  A    between atoms: C_11  and  C_12
REMARK    5  A    between atoms: C_20  and  N_21
REMARK    6  A    between atoms: N_24  and  C_27
REMARK    7  A    between atoms: C_27  and  C_28
REMARK                            x       y       z     vdW  Elec       q    Type
REMARK                         _______ _______ _______ _____ _____    ______ ____
ROOT
ATOM      1  C   UNL     1       0.372   1.462  -0.008  0.00  0.00    +0.045 C 
ATOM      2  C   UNL     1       0.064  -0.013  -0.002  0.00  0.00    -0.033 A 
ATOM      3  C   UNL     1      -0.156  -0.671  -1.179  0.00  0.00    +0.050 A 
ATOM      4  C   UNL     1      -0.440  -2.033  -1.175  0.00  0.00    +0.122 A 
ATOM      5  C   UNL     1      -0.504  -2.737   0.017  0.00  0.00    +0.020 A 
ATOM      6  C   UNL     1      -0.284  -2.083   1.222  0.00  0.00    +0.145 A 
ATOM      7  C   UNL     1       0.009  -0.710   1.206  0.00  0.00    +0.071 A 
ATOM      8  C   UNL     1       0.197  -0.308   2.611  0.00  0.00    +0.232 C 
ATOM      9  O   UNL     1       0.461   0.801   3.041  0.00  0.00    -0.283 OA
ATOM     10  C   UNL     1      -0.004  -1.548   3.379  0.00  0.00    +0.176 C 
ATOM     11  C   UNL     1       0.069  -1.676   4.727  0.00  0.00    +0.058 C 
ATOM     12  O   UNL     1      -0.289  -2.533   2.496  0.00  0.00    -0.451 OA
ENDROOT
BRANCH  11  13
ATOM     13  C   UNL     1      -0.018  -3.007   5.344  0.00  0.00    -0.020 A 
ATOM     14  C   UNL     1      -0.004  -4.156   4.545  0.00  0.00    +0.008 A 
ATOM     15  C   UNL     1      -0.085  -5.401   5.131  0.00  0.00    +0.002 A 
ATOM     16  C   UNL     1      -0.181  -5.518   6.507  0.00  0.00    +0.015 A 
ATOM     17  C   UNL     1      -0.195  -4.387   7.306  0.00  0.00    +0.018 A 
ATOM     18  C   UNL     1      -0.108  -3.133   6.735  0.00  0.00    +0.023 A 
ATOM     19 BR   UNL     1      -0.326  -4.560   9.184  0.00  0.00    -0.050 Br
ENDBRANCH  11  13
BRANCH   4  20
ATOM     20  O   UNL     1      -0.657  -2.678  -2.350  0.00  0.00    -0.506 OA
ATOM     21  H   UNL     1       0.143  -3.045  -2.750  0.00  0.00    +0.292 HD
ENDBRANCH   4  20
BRANCH   5  22
ATOM     22  C   UNL     1      -0.814  -4.212   0.005  0.00  0.00    -0.035 C 
BRANCH  22  23
ATOM     23  N   UNL     1       0.438  -4.974  -0.093  0.00  0.00    +0.384 N 
ATOM     24  C   UNL     1       1.078  -4.700  -1.386  0.00  0.00    -0.063 C 
ATOM     25  C   UNL     1       2.392  -5.479  -1.481  0.00  0.00    +0.066 C 
ATOM     26  N   UNL     1       2.116  -6.916  -1.347  0.00  0.00    -0.302 NA
ATOM     27  C   UNL     1       1.453  -7.203  -0.067  0.00  0.00    +0.066 C 
ATOM     28  C   UNL     1       0.147  -6.410   0.016  0.00  0.00    -0.063 C 
ATOM     29  H   UNL     1       1.059  -4.699   0.654  0.00  0.00    -0.081 HD
BRANCH  26  30
ATOM     30  C   UNL     1       3.348  -7.704  -1.490  0.00  0.00    +0.119 C 
BRANCH  30  31
ATOM     31  C   UNL     1       3.000  -9.167  -1.592  0.00  0.00    -0.033 A 
ATOM     32  C   UNL     1       2.908  -9.937  -0.449  0.00  0.00    +0.005 A 
ATOM     33  C   UNL     1       2.588 -11.279  -0.543  0.00  0.00    +0.000 A 
ATOM     34  C   UNL     1       2.361 -11.850  -1.781  0.00  0.00    +0.000 A 
ATOM     35  C   UNL     1       2.452 -11.079  -2.925  0.00  0.00    +0.000 A 
ATOM     36  C   UNL     1       2.767  -9.736  -2.830  0.00  0.00    +0.005 A 
ENDBRANCH  30  31
ENDBRANCH  26  30
ENDBRANCH  22  23
ENDBRANCH   5  22
TORSDOF 6
