REMARK  Name = ZINC43585326
REMARK  6 active torsions:
REMARK  status: ('A' for Active; 'I' for Inactive)
REMARK    1  A    between atoms: C_3  and  N_12
REMARK    2  A    between atoms: C_6  and  C_7
REMARK    3  A    between atoms: C_7  and  S_8
REMARK    4  A    between atoms: S_8  and  N_11
REMARK    5  A    between atoms: N_12  and  S_13
REMARK    6  A    between atoms: S_13  and  C_16
REMARK                            x       y       z     vdW  Elec       q    Type
REMARK                         _______ _______ _______ _____ _____    ______ ____
ROOT
ATOM      1  N   UNL     1       3.579   2.120  -0.019  0.00  0.00    -0.216 N 
ATOM      2  H   UNL     1       2.697   2.284   0.350  0.00  0.00    +0.174 HD
ENDROOT
BRANCH   1   5
ATOM      3  C   UNL     1       3.179   2.166  -3.672  0.00  0.00    +0.007 A 
ATOM      4  C   UNL     1       2.932   1.921  -2.335  0.00  0.00    +0.025 A 
ATOM      5  C   UNL     1       3.827   2.366  -1.371  0.00  0.00    +0.048 A 
ATOM      6  C   UNL     1       4.970   3.056  -1.755  0.00  0.00    +0.025 A 
ATOM      7  C   UNL     1       5.212   3.298  -3.093  0.00  0.00    +0.007 A 
ATOM      8  C   UNL     1       4.318   2.854  -4.050  0.00  0.00    -0.025 A 
BRANCH   8   9
ATOM      9  C   UNL     1       4.585   3.119  -5.510  0.00  0.00    +0.219 C 
BRANCH   9  10
ATOM     10  S   UNL     1       3.838   4.702  -5.983  0.00  0.00    +0.031 S 
ATOM     11  O   UNL     1       2.421   4.608  -5.937  0.00  0.00    -0.158 OA
ATOM     12  O   UNL     1       4.514   5.774  -5.341  0.00  0.00    -0.158 OA
BRANCH  10  13
ATOM     13  N   UNL     1       4.197   4.879  -7.590  0.00  0.00    -0.208 NA
ATOM     14  H   UNL     1       3.594   5.368  -8.171  0.00  0.00    +0.144 HD
ATOM     15  H   UNL     1       5.010   4.492  -7.951  0.00  0.00    +0.144 HD
ENDBRANCH  10  13
ENDBRANCH   9  10
ENDBRANCH   8   9
ENDBRANCH   1   5
BRANCH   1  16
ATOM     16  S   UNL     1       4.791   1.549   0.955  0.00  0.00    +0.072 S 
ATOM     17  O   UNL     1       5.899   2.422   0.779  0.00  0.00    -0.150 OA
ATOM     18  O   UNL     1       4.208   1.304   2.227  0.00  0.00    -0.150 OA
BRANCH  16  19
ATOM     19  C   UNL     1       5.279  -0.019   0.314  0.00  0.00    +0.109 A 
ATOM     20  C   UNL     1       4.585  -1.160   0.672  0.00  0.00    +0.029 A 
ATOM     21  C   UNL     1       4.975  -2.384   0.169  0.00  0.00    +0.006 A 
ATOM     22  C   UNL     1       6.058  -2.479  -0.696  0.00  0.00    -0.044 A 
ATOM     23  C   UNL     1       6.744  -1.342  -1.057  0.00  0.00    -0.042 A 
ATOM     24  C   UNL     1       6.349  -0.110  -0.550  0.00  0.00    +0.032 A 
ATOM     25  C   UNL     1       7.917  -1.368  -2.002  0.00  0.00    +0.035 C 
ATOM     26  C   UNL     1       8.477  -2.784  -2.123  0.00  0.00    +0.005 C 
ATOM     27  C   UNL     1       7.320  -3.738  -2.440  0.00  0.00    +0.005 C 
ATOM     28  C   UNL     1       6.433  -3.848  -1.202  0.00  0.00    +0.035 C 
ENDBRANCH  16  19
ENDBRANCH   1  16
TORSDOF 6
