REMARK  Name = ZINC67062390
REMARK  9 active torsions:
REMARK  status: ('A' for Active; 'I' for Inactive)
REMARK    1  A    between atoms: C_1  and  C_2
REMARK    2  A    between atoms: C_7  and  C_10
REMARK    3  A    between atoms: C_14  and  C_17
REMARK    4  A    between atoms: C_17  and  N_18
REMARK    5  A    between atoms: N_21  and  C_22
REMARK    6  A    between atoms: N_21  and  C_23
REMARK    7  A    between atoms: C_23  and  C_24
REMARK    8  A    between atoms: C_24  and  C_26
REMARK    9  A    between atoms: C_24  and  C_27
REMARK                            x       y       z     vdW  Elec       q    Type
REMARK                         _______ _______ _______ _____ _____    ______ ____
ROOT
ATOM      1  C   UNL     1       4.841   2.534  -5.298  0.00  0.00    +0.142 C 
ENDROOT
BRANCH   1  13
ATOM      2  C   UNL     1       0.016   1.546   0.045  0.00  0.00    +0.039 C 
ATOM      3  C   UNL     1       0.015   0.016   0.022  0.00  0.00    +0.133 C 
ATOM      4  C   UNL     1       0.716  -0.478  -1.248  0.00  0.00    +0.137 C 
ATOM      5  N   UNL     1       2.143  -0.135  -1.154  0.00  0.00    -0.312 N 
ATOM      6  C   UNL     1       2.865  -0.509   0.072  0.00  0.00    +0.137 C 
ATOM      7  C   UNL     1       2.060  -0.013   1.279  0.00  0.00    +0.133 C 
ATOM      8  O   UNL     1       0.711  -0.479   1.169  0.00  0.00    -0.371 OA
ATOM      9  C   UNL     1       2.684  -0.553   2.567  0.00  0.00    +0.039 C 
ATOM     10  C   UNL     1       2.791   0.524  -2.193  0.00  0.00    +0.099 A 
ATOM     11  C   UNL     1       2.117   0.757  -3.387  0.00  0.00    +0.042 A 
ATOM     12  C   UNL     1       2.773   1.413  -4.413  0.00  0.00    +0.010 A 
ATOM     13  C   UNL     1       4.087   1.816  -4.208  0.00  0.00    -0.014 A 
ATOM     14  C   UNL     1       4.694   1.552  -2.997  0.00  0.00    +0.089 A 
ATOM     15  N   UNL     1       4.042   0.928  -2.034  0.00  0.00    -0.349 N 
ATOM     16  H   UNL     1       4.491   0.759  -1.192  0.00  0.00    +0.167 HD
ENDBRANCH   1  13
BRANCH   1  17
ATOM     17  N   UNL     1       4.638   3.978  -5.162  0.00  0.00    -0.295 N 
ATOM     18  C   UNL     1       5.221   4.826  -6.033  0.00  0.00    +0.302 C 
ATOM     19  O   UNL     1       5.916   4.391  -6.931  0.00  0.00    -0.253 OA
ATOM     20  N   UNL     1       5.034   6.154  -5.908  0.00  0.00    -0.288 N 
ATOM     21  C   UNL     1       4.197   6.678  -4.826  0.00  0.00    +0.133 C 
ATOM     22  H   UNL     1       4.083   4.325  -4.446  0.00  0.00    +0.151 HD
BRANCH  20  23
ATOM     23  C   UNL     1       5.668   7.075  -6.855  0.00  0.00    +0.117 C 
BRANCH  23  24
ATOM     24  C   UNL     1       4.731   7.313  -8.040  0.00  0.00    +0.033 C 
ATOM     25  C   UNL     1       3.471   8.034  -7.558  0.00  0.00    +0.014 C 
BRANCH  24  26
ATOM     26  C   UNL     1       5.431   8.161  -9.071  0.00  0.00    -0.043 A 
ATOM     27  C   UNL     1       5.881   9.425  -8.737  0.00  0.00    +0.004 A 
ATOM     28  C   UNL     1       6.523  10.203  -9.682  0.00  0.00    +0.000 A 
ATOM     29  C   UNL     1       6.714   9.717 -10.962  0.00  0.00    +0.000 A 
ATOM     30  C   UNL     1       6.265   8.453 -11.297  0.00  0.00    +0.000 A 
ATOM     31  C   UNL     1       5.627   7.674 -10.350  0.00  0.00    +0.004 A 
ENDBRANCH  24  26
ENDBRANCH  23  24
ENDBRANCH  20  23
ENDBRANCH   1  17
TORSDOF 5
