REMARK  Name = ZINC04025039
REMARK  6 active torsions:
REMARK  status: ('A' for Active; 'I' for Inactive)
REMARK    1  A    between atoms: C_1  and  C_2
REMARK    2  A    between atoms: C_13  and  C_15
REMARK    3  A    between atoms: C_15  and  C_18
REMARK    4  A    between atoms: C_20  and  O_32
REMARK    5  A    between atoms: C_24  and  C_31
REMARK    6  A    between atoms: C_27  and  O_30
REMARK                            x       y       z     vdW  Elec       q    Type
REMARK                         _______ _______ _______ _____ _____    ______ ____
ROOT
ATOM      1  C   UNL     1      -1.081   2.889  -1.565  0.00  0.00    +0.012 C 
ATOM      2  C   UNL     1      -0.708   1.407  -1.500  0.00  0.00    -0.023 C 
ATOM      3  C   UNL     1      -1.855   0.543  -1.973  0.00  0.00    +0.007 C 
ATOM      4  C   UNL     1      -2.574  -0.057  -0.751  0.00  0.00    +0.005 C 
ATOM      5  C   UNL     1      -2.699   1.001   0.339  0.00  0.00    -0.001 C 
ATOM      6  C   UNL     1      -1.350   1.324   0.945  0.00  0.00    -0.001 C 
ATOM      7  C   UNL     1      -0.275   0.985  -0.080  0.00  0.00    -0.001 C 
ATOM      8  C   UNL     1       1.039   1.763   0.099  0.00  0.00    +0.005 C 
ATOM      9  C   UNL     1       1.700   1.696  -1.304  0.00  0.00    +0.007 C 
ATOM     10  C   UNL     1       0.604   1.209  -2.283  0.00  0.00    +0.029 C 
ATOM     11  C   UNL     1      -1.033   0.550   2.216  0.00  0.00    +0.035 C 
ATOM     12  C   UNL     1      -2.202   0.473   3.183  0.00  0.00    +0.119 C 
ATOM     13  C   UNL     1      -3.405  -0.143   2.468  0.00  0.00    +0.026 C 
ATOM     14  C   UNL     1      -3.827   0.739   1.306  0.00  0.00    -0.024 C 
ATOM     15  C   UNL     1      -5.027   0.112   0.592  0.00  0.00    +0.010 C 
ATOM     16  C   UNL     1      -6.187  -0.091   1.564  0.00  0.00    +0.032 C 
ATOM     17  C   UNL     1      -5.753  -0.973   2.733  0.00  0.00    +0.115 C 
ATOM     18  C   UNL     1      -4.554  -0.354   3.451  0.00  0.00    +0.038 C 
ATOM     19  C   UNL     1      -4.269   2.106   1.842  0.00  0.00    +0.012 C 
ENDROOT
BRANCH  10  20
ATOM     20  C   UNL     1       0.596   2.068  -3.549  0.00  0.00    +0.093 C 
ATOM     21  C   UNL     1       1.792   2.990  -3.792  0.00  0.00    +0.195 C 
ATOM     22  O   UNL     1       0.514   3.486  -3.391  0.00  0.00    -0.368 OA
ATOM     23  C   UNL     1      -0.086   1.446  -4.770  0.00  0.00    +0.044 C 
ENDBRANCH  10  20
BRANCH  17  24
ATOM     24  O   UNL     1      -5.404  -2.273   2.250  0.00  0.00    -0.392 OA
ATOM     25  H   UNL     1      -6.127  -2.732   1.800  0.00  0.00    +0.210 HD
ENDBRANCH  17  24
BRANCH  12  26
ATOM     26  O   UNL     1      -1.837  -0.365   4.288  0.00  0.00    -0.391 OA
ATOM     27  H   UNL     1      -1.080  -0.041   4.794  0.00  0.00    +0.210 HD
ENDBRANCH  12  26
TORSDOF 3
