REMARK  Name = ZINC17523826
REMARK  9 active torsions:
REMARK  status: ('A' for Active; 'I' for Inactive)
REMARK    1  A    between atoms: C_1  and  C_2
REMARK    2  A    between atoms: C_5  and  N_9
REMARK    3  A    between atoms: C_10  and  C_12
REMARK    4  A    between atoms: C_12  and  C_14
REMARK    5  A    between atoms: C_12  and  N_57
REMARK    6  A    between atoms: N_18  and  S_21
REMARK    7  A    between atoms: S_21  and  C_24
REMARK    8  A    between atoms: C_25  and  C_30
REMARK    9  A    between atoms: C_28  and  C_29
REMARK                            x       y       z     vdW  Elec       q    Type
REMARK                         _______ _______ _______ _____ _____    ______ ____
ROOT
ATOM      1  C   UNL     1       3.380   2.975  -0.911  0.00  0.00    -0.076 C 
ATOM      2  C   UNL     1       3.696   4.383  -0.457  0.00  0.00    -0.001 C 
ATOM      3  C   UNL     1       5.205   4.643  -0.594  0.00  0.00    +0.107 C 
ATOM      4  N   UNL     1       5.992   3.463  -0.185  0.00  0.00    -0.178 NA
ATOM      5  C   UNL     1       5.656   2.668   0.979  0.00  0.00    +0.091 C 
ATOM      6  C   UNL     1       4.682   1.536   0.574  0.00  0.00    -0.060 C 
ATOM      7  N   UNL     1       3.383   2.101   0.299  0.00  0.00    +0.388 N 
ATOM      8  H   UNL     1       3.107   2.671   1.107  0.00  0.00    -0.081 HD
ENDROOT
BRANCH   4   9
ATOM      9  S   UNL     1       7.309   3.030  -1.091  0.00  0.00    +0.066 S 
ATOM     10  O   UNL     1       7.738   4.203  -1.769  0.00  0.00    -0.153 OA
ATOM     11  O   UNL     1       8.165   2.288  -0.234  0.00  0.00    -0.153 OA
BRANCH   9  12
ATOM     12  C   UNL     1       6.744   1.911  -2.330  0.00  0.00    +0.170 A 
ATOM     13  C   UNL     1       6.273   2.215  -3.628  0.00  0.00    +0.107 A 
ATOM     14  N   UNL     1       5.968   1.078  -4.184  0.00  0.00    -0.081 NA
ATOM     15  O   UNL     1       6.176   0.149  -3.439  0.00  0.00    -0.358 OA
ATOM     16  C   UNL     1       6.665   0.561  -2.261  0.00  0.00    +0.161 A 
ATOM     17  C   UNL     1       7.048  -0.306  -1.090  0.00  0.00    +0.091 C 
ATOM     18  C   UNL     1       6.149   3.584  -4.246  0.00  0.00    +0.071 C 
ENDBRANCH   9  12
ENDBRANCH   4   9
BRANCH   7  19
ATOM     19  C   UNL     1       2.405   1.023   0.125  0.00  0.00    +0.016 C 
ATOM     20  C   UNL     1       2.625   0.249  -1.176  0.00  0.00    -0.004 C 
BRANCH  19  22
ATOM     21  N   UNL     1      -0.063   0.858   0.106  0.00  0.00    -0.286 N 
ATOM     22  C   UNL     1       1.031   1.644   0.114  0.00  0.00    +0.203 C 
ATOM     23  O   UNL     1       0.911   2.851   0.112  0.00  0.00    -0.277 OA
ATOM     24  H   UNL     1       0.031  -0.104   0.027  0.00  0.00    +0.155 HD
BRANCH  21  29
ATOM     25  C   UNL     1      -5.225   3.179   0.513  0.00  0.00    +0.044 C 
ATOM     26  C   UNL     1      -3.854   2.562   0.405  0.00  0.00    -0.049 A 
ATOM     27  C   UNL     1      -2.753   3.236   0.900  0.00  0.00    +0.005 A 
ATOM     28  C   UNL     1      -1.495   2.674   0.803  0.00  0.00    +0.024 A 
ATOM     29  C   UNL     1      -1.337   1.430   0.207  0.00  0.00    +0.047 A 
ATOM     30  C   UNL     1      -2.444   0.757  -0.295  0.00  0.00    +0.039 A 
ATOM     31  C   UNL     1      -3.700   1.323  -0.190  0.00  0.00    +0.020 A 
ATOM     32 BR   UNL     1      -2.233  -0.934  -1.115  0.00  0.00    -0.048 Br
ENDBRANCH  21  29
ENDBRANCH  19  22
ENDBRANCH   7  19
TORSDOF 5
