REMARK  Name = ZINC57934662
REMARK  3 active torsions:
REMARK  status: ('A' for Active; 'I' for Inactive)
REMARK    1  A    between atoms: C_1  and  C_2
REMARK    2  A    between atoms: N_6  and  C_17
REMARK    3  A    between atoms: C_17  and  C_18
REMARK                            x       y       z     vdW  Elec       q    Type
REMARK                         _______ _______ _______ _____ _____    ______ ____
ROOT
ATOM      1  C   UNL     1      -0.399   1.515  -0.476  0.00  0.00    +0.038 C 
ATOM      2  C   UNL     1      -0.388  -0.014  -0.507  0.00  0.00    +0.154 C 
ATOM      3  C   UNL     1       0.529  -0.490  -1.605  0.00  0.00    +0.240 C 
ATOM      4  O   UNL     1       0.089  -0.657  -2.723  0.00  0.00    -0.273 OA
ATOM      5  N   UNL     1       1.831  -0.731  -1.359  0.00  0.00    -0.264 N 
ATOM      6  C   UNL     1       2.353  -0.593  -0.065  0.00  0.00    +0.061 A 
ATOM      7  C   UNL     1       3.722  -0.551   0.144  0.00  0.00    +0.075 A 
ATOM      8  C   UNL     1       4.222  -0.418   1.430  0.00  0.00    +0.168 A 
ATOM      9  C   UNL     1       3.351  -0.328   2.513  0.00  0.00    +0.168 A 
ATOM     10  C   UNL     1       1.980  -0.368   2.305  0.00  0.00    +0.074 A 
ATOM     11  C   UNL     1       1.482  -0.498   1.021  0.00  0.00    +0.053 A 
ATOM     12  N   UNL     1       0.097  -0.529   0.782  0.00  0.00    -0.332 N 
ATOM     13  O   UNL     1       4.088  -0.208   3.656  0.00  0.00    -0.453 OA
ATOM     14  C   UNL     1       5.417  -0.634   3.305  0.00  0.00    +0.466 C 
ATOM     15  O   UNL     1       5.505  -0.352   1.896  0.00  0.00    -0.453 OA
ATOM     16  H   UNL     1      -0.519  -0.880   1.444  0.00  0.00    +0.147 HD
ENDROOT
BRANCH   5  17
ATOM     17  C   UNL     1       2.711  -1.143  -2.455  0.00  0.00    +0.149 C 
BRANCH  17  18
ATOM     18  C   UNL     1       2.815  -2.646  -2.478  0.00  0.00    -0.030 A 
ATOM     19  C   UNL     1       3.866  -3.275  -1.837  0.00  0.00    +0.008 A 
ATOM     20  C   UNL     1       3.963  -4.654  -1.858  0.00  0.00    +0.038 A 
ATOM     21  C   UNL     1       3.006  -5.405  -2.520  0.00  0.00    +0.123 A 
ATOM     22  C   UNL     1       1.954  -4.773  -3.161  0.00  0.00    +0.038 A 
ATOM     23  C   UNL     1       1.857  -3.395  -3.135  0.00  0.00    +0.008 A 
ATOM     24  F   UNL     1       3.100  -6.752  -2.540  0.00  0.00    -0.205 F 
ENDBRANCH  17  18
ENDBRANCH   5  17
TORSDOF 2
