REMARK  Name = ZINC35576975
REMARK  8 active torsions:
REMARK  status: ('A' for Active; 'I' for Inactive)
REMARK    1  A    between atoms: C_1  and  O_2
REMARK    2  A    between atoms: O_2  and  C_3
REMARK    3  A    between atoms: C_6  and  N_9
REMARK    4  A    between atoms: C_10  and  N_33
REMARK    5  A    between atoms: C_12  and  C_26
REMARK    6  A    between atoms: N_18  and  C_19
REMARK    7  A    between atoms: C_19  and  C_20
REMARK    8  A    between atoms: C_20  and  C_21
REMARK                            x       y       z     vdW  Elec       q    Type
REMARK                         _______ _______ _______ _____ _____    ______ ____
ROOT
ATOM      1  N   UNL     1      -5.066  -2.451  -0.309  0.00  0.00    -0.216 N 
ATOM      2  C   UNL     1      -5.219  -3.741  -0.668  0.00  0.00    +0.131 A 
ATOM      3  C   UNL     1      -6.417  -4.187  -0.123  0.00  0.00    +0.086 A 
ATOM      4  C   UNL     1      -7.140  -5.401  -0.124  0.00  0.00    +0.089 A 
ATOM      5  N   UNL     1      -8.292  -5.447   0.532  0.00  0.00    -0.214 NA
ATOM      6  C   UNL     1      -8.779  -4.394   1.181  0.00  0.00    +0.218 A 
ATOM      7  N   UNL     1      -8.173  -3.226   1.233  0.00  0.00    -0.193 NA
ATOM      8  C   UNL     1      -6.993  -3.044   0.609  0.00  0.00    +0.189 A 
ATOM      9  N   UNL     1      -6.151  -2.042   0.474  0.00  0.00    -0.144 NA
ATOM     10  N   UNL     1      -9.989  -4.533   1.838  0.00  0.00    -0.313 N 
ATOM     11  H   UNL     1     -10.458  -5.382   1.817  0.00  0.00    +0.149 HD
ENDROOT
BRANCH   4  12
ATOM     12  C   UNL     1      -6.624  -6.590  -0.839  0.00  0.00    +0.001 A 
ATOM     13  C   UNL     1      -5.290  -6.972  -0.691  0.00  0.00    +0.013 A 
ATOM     14  C   UNL     1      -4.815  -8.081  -1.358  0.00  0.00    +0.039 A 
ATOM     15  C   UNL     1      -5.660  -8.816  -2.176  0.00  0.00    +0.123 A 
ATOM     16  C   UNL     1      -6.986  -8.441  -2.326  0.00  0.00    +0.039 A 
ATOM     17  C   UNL     1      -7.472  -7.337  -1.658  0.00  0.00    +0.013 A 
ATOM     18  F   UNL     1      -5.189  -9.901  -2.828  0.00  0.00    -0.205 F 
ENDBRANCH   4  12
BRANCH   1  22
ATOM     19  C   UNL     1      -1.829  -0.042  -1.359  0.00  0.00    +0.120 A 
ATOM     20  C   UNL     1      -3.098   0.509  -1.256  0.00  0.00    +0.048 A 
ATOM     21  C   UNL     1      -4.170  -0.288  -0.908  0.00  0.00    +0.031 A 
ATOM     22  C   UNL     1      -3.978  -1.642  -0.662  0.00  0.00    +0.068 A 
ATOM     23  C   UNL     1      -2.707  -2.192  -0.766  0.00  0.00    +0.031 A 
ATOM     24  C   UNL     1      -1.637  -1.395  -1.119  0.00  0.00    +0.048 A 
BRANCH  19  26
ATOM     25  C   UNL     1      -1.044   2.128  -1.935  0.00  0.00    +0.277 C 
ATOM     26  O   UNL     1      -0.773   0.744  -1.702  0.00  0.00    -0.495 OA
ENDBRANCH  19  26
ENDBRANCH   1  22
BRANCH   2  27
ATOM     27  N   UNL     1      -4.344  -4.485  -1.437  0.00  0.00    -0.342 N 
ATOM     28  H   UNL     1      -3.459  -4.141  -1.635  0.00  0.00    +0.144 HD
ATOM     29  H   UNL     1      -4.615  -5.351  -1.779  0.00  0.00    +0.144 HD
ENDBRANCH   2  27
BRANCH  10  30
ATOM     30  C   UNL     1     -10.561  -3.398   2.566  0.00  0.00    +0.109 C 
BRANCH  30  31
ATOM     31  C   UNL     1     -11.891  -3.815   3.197  0.00  0.00    +0.061 C 
BRANCH  31  32
ATOM     32  C   UNL     1     -12.480  -2.647   3.946  0.00  0.00    -0.009 A 
ATOM     33  C   UNL     1     -13.326  -1.686   3.500  0.00  0.00    +0.011 A 
ATOM     34  C   UNL     1     -13.741  -0.701   4.376  0.00  0.00    +0.008 A 
ATOM     35  C   UNL     1     -13.290  -0.724   5.654  0.00  0.00    +0.045 A 
ATOM     36  S   UNL     1     -12.251  -2.175   5.652  0.00  0.00    -0.102 S 
ENDBRANCH  31  32
ENDBRANCH  30  31
ENDBRANCH  10  30
TORSDOF 7
