REMARK  Name = ZINC49645808
REMARK  4 active torsions:
REMARK  status: ('A' for Active; 'I' for Inactive)
REMARK    1  A    between atoms: C_2  and  C_18
REMARK    2  A    between atoms: N_6  and  S_7
REMARK    3  A    between atoms: S_7  and  C_10
REMARK    4  A    between atoms: C_10  and  C_11
REMARK                            x       y       z     vdW  Elec       q    Type
REMARK                         _______ _______ _______ _____ _____    ______ ____
ROOT
ATOM      1  S   UNL     1       1.704  -2.798  -0.030  0.00  0.00    +0.072 S 
ATOM      2  O   UNL     1       1.014  -2.845   1.211  0.00  0.00    -0.151 OA
ATOM      3  O   UNL     1       0.989  -2.831  -1.258  0.00  0.00    -0.151 OA
ENDROOT
BRANCH   1   9
ATOM      4  C   UNL     1      -0.022   1.781   0.012  0.00  0.00    +0.070 A 
ATOM      5  C   UNL     1       1.277   2.079   0.001  0.00  0.00    +0.028 A 
ATOM      6  N   UNL     1       2.209   1.084  -0.014  0.00  0.00    -0.336 N 
ATOM      7  C   UNL     1       1.775  -0.224  -0.017  0.00  0.00    +0.191 A 
ATOM      8  S   UNL     1       0.002  -0.004   0.002  0.00  0.00    -0.057 S 
ATOM      9  N   UNL     1       2.474  -1.332  -0.030  0.00  0.00    -0.108 NA
ATOM     10  H   UNL     1       3.157   1.292  -0.022  0.00  0.00    +0.168 HD
BRANCH   5  11
ATOM     11  C   UNL     1       1.717   3.521   0.005  0.00  0.00    +0.036 C 
ATOM     12  C   UNL     1       3.205   3.806  -0.212  0.00  0.00    +0.010 C 
ATOM     13  C   UNL     1       2.584   3.992   1.174  0.00  0.00    +0.010 C 
ENDBRANCH   5  11
ENDBRANCH   1   9
BRANCH   1  14
ATOM     14  C   UNL     1       3.038  -4.026  -0.051  0.00  0.00    +0.194 C 
BRANCH  14  15
ATOM     15  C   UNL     1       2.437  -5.433  -0.052  0.00  0.00    -0.005 C 
ATOM     16  C   UNL     1       1.690  -5.671   1.263  0.00  0.00    +0.001 C 
ATOM     17  C   UNL     1       1.159  -7.107   1.284  0.00  0.00    -0.019 C 
ATOM     18  C   UNL     1       2.326  -8.079   1.095  0.00  0.00    -0.083 C 
ATOM     19  N   UNL     1       2.982  -7.818  -0.192  0.00  0.00    +0.379 N 
ATOM     20  C   UNL     1       3.556  -6.467  -0.193  0.00  0.00    -0.078 C 
ATOM     21  H   UNL     1       3.716  -8.494  -0.337  0.00  0.00    -0.086 HD
ATOM     22  H   UNL     1       2.304  -7.894  -0.935  0.00  0.00    -0.086 HD
ENDBRANCH  14  15
ENDBRANCH   1  14
TORSDOF 4
