REMARK  Name = ZINC19897424
REMARK  8 active torsions:
REMARK  status: ('A' for Active; 'I' for Inactive)
REMARK    1  A    between atoms: C_1  and  N_2
REMARK    2  A    between atoms: C_3  and  C_15
REMARK    3  A    between atoms: C_6  and  S_7
REMARK    4  A    between atoms: S_7  and  C_8
REMARK    5  A    between atoms: C_8  and  C_9
REMARK    6  A    between atoms: C_16  and  N_28
REMARK    7  A    between atoms: N_17  and  C_20
REMARK    8  A    between atoms: C_20  and  C_21
REMARK                            x       y       z     vdW  Elec       q    Type
REMARK                         _______ _______ _______ _____ _____    ______ ____
ROOT
ATOM      1  C   UNL     1       1.270  -0.445  -0.013  0.00  0.00    +0.171 A 
ATOM      2  C   UNL     1       2.110   0.654  -0.015  0.00  0.00    +0.146 A 
ATOM      3  N   UNL     1       1.305   1.752  -0.001  0.00  0.00    -0.226 N 
ATOM      4  N   UNL     1      -0.015   1.282   0.009  0.00  0.00    -0.063 NA
ATOM      5  N   UNL     1       0.002  -0.004   0.002  0.00  0.00    -0.124 NA
ENDROOT
BRANCH   1   8
ATOM      6  C   UNL     1      -0.595  -2.971  -0.009  0.00  0.00    +0.153 C 
ATOM      7  N   UNL     1       0.870  -2.961  -0.023  0.00  0.00    -0.304 N 
ATOM      8  C   UNL     1       1.695  -1.859  -0.024  0.00  0.00    +0.188 A 
ATOM      9  N   UNL     1       2.930  -2.304  -0.044  0.00  0.00    -0.127 NA
ATOM     10  N   UNL     1       2.935  -3.589  -0.045  0.00  0.00    -0.122 NA
ATOM     11  C   UNL     1       1.705  -4.045  -0.036  0.00  0.00    +0.192 A 
BRANCH  11  12
ATOM     12  S   UNL     1       1.219  -5.739  -0.041  0.00  0.00    -0.081 S 
BRANCH  12  13
ATOM     13  C   UNL     1       2.845  -6.533  -0.060  0.00  0.00    +0.112 C 
BRANCH  13  14
ATOM     14  C   UNL     1       2.673  -8.030  -0.066  0.00  0.00    -0.037 A 
ATOM     15  C   UNL     1       2.611  -8.724   1.128  0.00  0.00    +0.004 A 
ATOM     16  C   UNL     1       2.448 -10.096   1.122  0.00  0.00    +0.000 A 
ATOM     17  C   UNL     1       2.358 -10.777  -0.078  0.00  0.00    +0.000 A 
ATOM     18  C   UNL     1       2.426 -10.084  -1.272  0.00  0.00    +0.000 A 
ATOM     19  C   UNL     1       2.583  -8.710  -1.266  0.00  0.00    +0.004 A 
ENDBRANCH  13  14
ENDBRANCH  12  13
ENDBRANCH  11  12
ENDBRANCH   1   8
BRANCH   2  20
ATOM     20  N   UNL     1       3.498   0.640  -0.028  0.00  0.00    -0.341 N 
ATOM     21  H   UNL     1       4.058   1.587  -0.028  0.00  0.00    +0.144 HD
ATOM     22  H   UNL     1       4.038  -0.318  -0.037  0.00  0.00    +0.144 HD
ENDBRANCH   2  20
BRANCH   3  23
ATOM     23  C   UNL     1       1.736   3.152   0.002  0.00  0.00    +0.184 C 
BRANCH  23  24
ATOM     24  C   UNL     1       1.898   3.625   1.424  0.00  0.00    -0.008 A 
ATOM     25  C   UNL     1       3.155   3.683   1.995  0.00  0.00    +0.007 A 
ATOM     26  C   UNL     1       3.304   4.116   3.299  0.00  0.00    +0.000 A 
ATOM     27  C   UNL     1       2.195   4.492   4.034  0.00  0.00    +0.001 A 
ATOM     28  C   UNL     1       0.937   4.434   3.464  0.00  0.00    +0.020 A 
ATOM     29  C   UNL     1       0.788   4.006   2.157  0.00  0.00    +0.046 A 
ATOM     30 CL   UNL     1      -0.791   3.940   1.439  0.00  0.00    -0.083 Cl
ENDBRANCH  23  24
ENDBRANCH   3  23
TORSDOF 7
