REMARK  Name = ZINC44325295
REMARK  10 active torsions:
REMARK  status: ('A' for Active; 'I' for Inactive)
REMARK    1  A    between atoms: C_13  and  C_14
REMARK    2  A    between atoms: C_14  and  O_15
REMARK    3  A    between atoms: O_15  and  C_16
REMARK    4  A    between atoms: N_18  and  CA_19
REMARK    5  A    between atoms: CA_19  and  C_21
REMARK    6  A    between atoms: CA_19  and  C_36
REMARK    7  A    between atoms: C_21  and  C_22
REMARK    8  A    between atoms: C_25  and  O_35
REMARK    9  A    between atoms: C_26  and  C_28
REMARK   10  A    between atoms: C_28  and  N_29
REMARK                            x       y       z     vdW  Elec       q    Type
REMARK                         _______ _______ _______ _____ _____    ______ ____
ROOT
ATOM      1  CA  UNL     1       8.398  -2.317  -3.436  0.00  0.00    +0.193 C 
ENDROOT
BRANCH   1   4
ATOM      2  C   UNL     1       6.379  -1.577  -2.289  0.00  0.00    +0.401 C 
ATOM      3  O   UNL     1       6.162  -0.826  -3.219  0.00  0.00    -0.226 OA
ATOM      4  N   UNL     1       7.473  -2.366  -2.301  0.00  0.00    -0.267 N 
ATOM      5  H   UNL     1       7.646  -2.965  -1.559  0.00  0.00    +0.153 HD
BRANCH   2   6
ATOM      6  O   UNL     1       5.529  -1.622  -1.247  0.00  0.00    -0.449 OA
BRANCH   6   7
ATOM      7  C   UNL     1       4.391  -0.759  -1.300  0.00  0.00    +0.246 C 
BRANCH   7  20
ATOM      8  C   UNL     1      -0.017   1.375   0.010  0.00  0.00    +0.001 A 
ATOM      9  C   UNL     1       1.169   2.088   0.002  0.00  0.00    +0.000 A 
ATOM     10  C   UNL     1       2.380   1.420  -0.013  0.00  0.00    +0.005 A 
ATOM     11  C   UNL     1       2.408   0.042  -0.021  0.00  0.00    -0.029 A 
ATOM     12  C   UNL     1       1.221  -0.685  -0.013  0.00  0.00    -0.014 A 
ATOM     13  C   UNL     1       0.002  -0.004   0.002  0.00  0.00    +0.009 A 
ATOM     14  C   UNL     1       1.530  -2.136  -0.025  0.00  0.00    -0.014 A 
ATOM     15  C   UNL     1       0.694  -3.254  -0.023  0.00  0.00    +0.009 A 
ATOM     16  C   UNL     1       1.238  -4.521  -0.035  0.00  0.00    +0.001 A 
ATOM     17  C   UNL     1       2.611  -4.690  -0.050  0.00  0.00    +0.000 A 
ATOM     18  C   UNL     1       3.445  -3.587  -0.052  0.00  0.00    +0.005 A 
ATOM     19  C   UNL     1       2.910  -2.316  -0.040  0.00  0.00    -0.029 A 
ATOM     20  C   UNL     1       3.547  -0.948  -0.038  0.00  0.00    +0.088 C 
ENDBRANCH   7  20
ENDBRANCH   6   7
ENDBRANCH   2   6
ENDBRANCH   1   4
BRANCH   1  21
ATOM     21  C   UNL     1       9.386  -1.197  -3.231  0.00  0.00    +0.376 C 
ATOM     22  O   UNL     1       9.442  -0.623  -2.157  0.00  0.00    -0.244 OA
ATOM     23  OXT UNL     1      10.128  -0.866  -4.139  0.00  0.00    -0.244 OA
ENDBRANCH   1  21
BRANCH   1  24
ATOM     24  C   UNL     1       9.149  -3.646  -3.538  0.00  0.00    +0.069 C 
BRANCH  24  25
ATOM     25  C   UNL     1       8.175  -4.749  -3.865  0.00  0.00    -0.045 A 
ATOM     26  C   UNL     1       7.548  -5.441  -2.845  0.00  0.00    +0.007 A 
ATOM     27  C   UNL     1       6.655  -6.452  -3.142  0.00  0.00    +0.046 A 
ATOM     28  C   UNL     1       6.388  -6.774  -4.465  0.00  0.00    +0.118 A 
ATOM     29  C   UNL     1       7.018  -6.078  -5.487  0.00  0.00    -0.022 A 
ATOM     30  C   UNL     1       7.906  -5.064  -5.184  0.00  0.00    +0.009 A 
BRANCH  28  31
ATOM     31  O   UNL     1       5.511  -7.769  -4.760  0.00  0.00    -0.507 OA
ATOM     32  H   UNL     1       4.595  -7.471  -4.854  0.00  0.00    +0.292 HD
ENDBRANCH  28  31
BRANCH  29  33
ATOM     33  C   UNL     1       6.730  -6.425  -6.925  0.00  0.00    -0.039 C 
BRANCH  33  34
ATOM     34  N   UNL     1       7.410  -7.680  -7.272  0.00  0.00    +0.382 N 
ATOM     35  C   UNL     1       8.863  -7.485  -7.194  0.00  0.00    -0.078 C 
ATOM     36  C   UNL     1       9.574  -8.810  -7.475  0.00  0.00    -0.019 C 
ATOM     37  C   UNL     1       9.197  -9.298  -8.877  0.00  0.00    -0.004 C 
ATOM     38  C   UNL     1       7.674  -9.426  -8.970  0.00  0.00    -0.019 C 
ATOM     39  C   UNL     1       7.033  -8.078  -8.633  0.00  0.00    -0.078 C 
ATOM     40  H   UNL     1       7.134  -8.401  -6.622  0.00  0.00    -0.081 HD
ENDBRANCH  33  34
ENDBRANCH  29  33
ENDBRANCH  24  25
ENDBRANCH   1  24
TORSDOF 10
