REMARK  Name = ZINC13064988
REMARK  12 active torsions:
REMARK  status: ('A' for Active; 'I' for Inactive)
REMARK    1  A    between atoms: C_1  and  C_2
REMARK    2  A    between atoms: C_2  and  C_3
REMARK    3  A    between atoms: C_3  and  C_5
REMARK    4  A    between atoms: C_3  and  N_75
REMARK    5  A    between atoms: N_9  and  C_10
REMARK    6  A    between atoms: C_10  and  C_11
REMARK    7  A    between atoms: C_11  and  C_12
REMARK    8  A    between atoms: C_18  and  C_19
REMARK    9  A    between atoms: C_18  and  N_75
REMARK   10  A    between atoms: C_22  and  C_32
REMARK   11  A    between atoms: C_24  and  C_31
REMARK   12  A    between atoms: C_33  and  N_75
REMARK                            x       y       z     vdW  Elec       q    Type
REMARK                         _______ _______ _______ _____ _____    ______ ____
ROOT
ATOM      1  N   UNL     1      -3.124   0.865  -1.183  0.00  0.00    +0.391 N 
ATOM      2  H   UNL     1      -3.148   1.817  -1.569  0.00  0.00    -0.080 HD
ENDROOT
BRANCH   1   3
ATOM      3  C   UNL     1      -1.936   0.163  -1.711  0.00  0.00    -0.067 C 
ATOM      4  C   UNL     1      -1.936   0.272  -3.237  0.00  0.00    -0.015 C 
ATOM      5  C   UNL     1      -0.699  -0.432  -3.799  0.00  0.00    -0.002 C 
ATOM      6  C   UNL     1      -0.724  -1.907  -3.393  0.00  0.00    -0.000 C 
ATOM      7  C   UNL     1      -0.724  -2.017  -1.867  0.00  0.00    -0.002 C 
ATOM      8  C   UNL     1      -1.961  -1.312  -1.306  0.00  0.00    -0.015 C 
ENDBRANCH   1   3
BRANCH   1   9
ATOM      9  C   UNL     1      -4.354   0.152  -1.588  0.00  0.00    +0.003 C 
BRANCH   9  10
ATOM     10  C   UNL     1      -4.563  -1.068  -0.729  0.00  0.00    +0.138 A 
ATOM     11  N   UNL     1      -4.290  -1.183   0.548  0.00  0.00    -0.115 NA
ATOM     12  N   UNL     1      -4.609  -2.375   0.918  0.00  0.00    -0.023 NA
ATOM     13  N   UNL     1      -5.079  -3.024  -0.090  0.00  0.00    -0.044 NA
ATOM     14  N   UNL     1      -5.072  -2.251  -1.123  0.00  0.00    -0.231 N 
BRANCH  14  15
ATOM     15  C   UNL     1      -5.530  -2.595  -2.471  0.00  0.00    +0.152 C 
BRANCH  15  16
ATOM     16  C   UNL     1      -4.404  -3.307  -3.225  0.00  0.00    +0.058 C 
BRANCH  16  17
ATOM     17  C   UNL     1      -4.839  -3.573  -4.643  0.00  0.00    -0.046 A 
ATOM     18  C   UNL     1      -5.479  -4.757  -4.959  0.00  0.00    +0.004 A 
ATOM     19  C   UNL     1      -5.883  -4.998  -6.259  0.00  0.00    +0.000 A 
ATOM     20  C   UNL     1      -5.637  -4.061  -7.245  0.00  0.00    +0.000 A 
ATOM     21  C   UNL     1      -4.992  -2.880  -6.929  0.00  0.00    +0.000 A 
ATOM     22  C   UNL     1      -4.593  -2.635  -5.629  0.00  0.00    +0.004 A 
ENDBRANCH  16  17
ENDBRANCH  15  16
ENDBRANCH  14  15
ENDBRANCH   9  10
BRANCH   9  24
ATOM     23  C   UNL     1      -5.397   2.274  -2.395  0.00  0.00    +0.002 C 
ATOM     24  C   UNL     1      -5.546   1.099  -1.427  0.00  0.00    -0.011 C 
ENDBRANCH   9  24
ENDBRANCH   1   9
BRANCH   1  25
ATOM     25  C   UNL     1      -3.050   0.947   0.291  0.00  0.00    -0.036 C 
BRANCH  25  26
ATOM     26  C   UNL     1      -2.098   2.054   0.665  0.00  0.00    +0.001 A 
ATOM     27  C   UNL     1      -2.573   3.300   0.905  0.00  0.00    +0.017 A 
ATOM     28  C   UNL     1      -1.622   4.355   1.261  0.00  0.00    +0.002 A 
ATOM     29  C   UNL     1      -2.052   5.662   1.513  0.00  0.00    -0.041 A 
ATOM     30  C   UNL     1      -1.139   6.623   1.843  0.00  0.00    +0.007 A 
ATOM     31  C   UNL     1       0.212   6.315   1.929  0.00  0.00    -0.048 A 
ATOM     32  C   UNL     1       0.658   5.034   1.684  0.00  0.00    +0.029 A 
ATOM     33  C   UNL     1      -0.253   4.038   1.347  0.00  0.00    +0.050 A 
ATOM     34  N   UNL     1       0.165   2.749   1.097  0.00  0.00    -0.322 N 
ATOM     35  H   UNL     1       1.109   2.533   1.157  0.00  0.00    +0.169 HD
ATOM     36  C   UNL     1      -0.716   1.787   0.771  0.00  0.00    +0.251 A 
ATOM     37  O   UNL     1      -0.310   0.658   0.555  0.00  0.00    -0.268 OA
ATOM     38  C   UNL     1       1.201   7.392   2.294  0.00  0.00    +0.044 C 
ATOM     39  C   UNL     1      -3.516   6.008   1.422  0.00  0.00    +0.044 C 
ENDBRANCH  25  26
ENDBRANCH   1  25
TORSDOF 9
