REMARK  Name = ZINC03307276
REMARK  8 active torsions:
REMARK  status: ('A' for Active; 'I' for Inactive)
REMARK    1  A    between atoms: C_1  and  N_2
REMARK    2  A    between atoms: C_6  and  S_7
REMARK    3  A    between atoms: S_7  and  C_8
REMARK    4  A    between atoms: C_8  and  C_9
REMARK    5  A    between atoms: C_12  and  C_15
REMARK    6  A    between atoms: N_17  and  N_18
REMARK    7  A    between atoms: N_18  and  C_19
REMARK    8  A    between atoms: C_19  and  C_21
REMARK                            x       y       z     vdW  Elec       q    Type
REMARK                         _______ _______ _______ _____ _____    ______ ____
ROOT
ATOM      1  N   UNL     1      -1.052  -0.500  11.396  0.00  0.00    -0.264 N 
ATOM      2  H   UNL     1      -0.209  -0.395  11.864  0.00  0.00    +0.170 HD
ENDROOT
BRANCH   1   5
ATOM      3  C   UNL     1       0.101  -0.859   9.344  0.00  0.00    +0.260 C 
ATOM      4  O   UNL     1       1.157  -0.728   9.931  0.00  0.00    -0.269 OA
ATOM      5  N   UNL     1      -1.062  -0.757  10.018  0.00  0.00    -0.232 N 
ATOM      6  H   UNL     1      -1.905  -0.861   9.550  0.00  0.00    +0.173 HD
BRANCH   3  10
ATOM      7  C   UNL     1       0.073  -1.639   5.169  0.00  0.00    -0.037 A 
ATOM      8  C   UNL     1       1.277  -1.491   5.834  0.00  0.00    +0.005 A 
ATOM      9  C   UNL     1       1.293  -1.237   7.189  0.00  0.00    +0.013 A 
ATOM     10  C   UNL     1       0.091  -1.130   7.891  0.00  0.00    +0.038 A 
ATOM     11  C   UNL     1      -1.120  -1.282   7.214  0.00  0.00    +0.013 A 
ATOM     12  C   UNL     1      -1.122  -1.529   5.857  0.00  0.00    +0.005 A 
BRANCH   7  13
ATOM     13  C   UNL     1       0.063  -1.917   3.688  0.00  0.00    +0.112 C 
BRANCH  13  14
ATOM     14  S   UNL     1       0.033  -0.347   2.779  0.00  0.00    -0.081 S 
BRANCH  14  20
ATOM     15  C   UNL     1      -0.018   1.461   0.010  0.00  0.00    +0.152 C 
ATOM     16  N   UNL     1       0.002  -0.004   0.002  0.00  0.00    -0.312 N 
ATOM     17  C   UNL     1       0.009  -0.824  -1.093  0.00  0.00    +0.225 A 
ATOM     18  N   UNL     1       0.028  -2.052  -0.657  0.00  0.00    -0.137 NA
ATOM     19  N   UNL     1       0.034  -2.064   0.628  0.00  0.00    -0.123 NA
ATOM     20  C   UNL     1       0.024  -0.834   1.086  0.00  0.00    +0.191 A 
ENDBRANCH  14  20
ENDBRANCH  13  14
ENDBRANCH   7  13
ENDBRANCH   3  10
ENDBRANCH   1   5
BRANCH   1  21
ATOM     21  C   UNL     1      -2.256  -0.394  12.094  0.00  0.00    +0.045 C 
ATOM     22  C   UNL     1      -3.415  -0.537  11.450  0.00  0.00    +0.035 C 
BRANCH  21  23
ATOM     23  C   UNL     1      -2.246  -0.122  13.549  0.00  0.00    -0.001 A 
ATOM     24  C   UNL     1      -1.034   0.034  14.222  0.00  0.00    +0.011 A 
ATOM     25  C   UNL     1      -1.031   0.289  15.577  0.00  0.00    +0.017 A 
ATOM     26  C   UNL     1      -2.228   0.390  16.276  0.00  0.00    +0.034 A 
ATOM     27  C   UNL     1      -3.444   0.231  15.613  0.00  0.00    +0.046 A 
ATOM     28  C   UNL     1      -3.448  -0.016  14.247  0.00  0.00    +0.034 A 
ATOM     29  N   UNL     1      -4.662   0.312  16.283  0.00  0.00    -0.313 N 
ATOM     30  C   UNL     1      -4.871   1.000  17.476  0.00  0.00    +0.045 A 
ATOM     31  C   UNL     1      -6.154   1.441  17.781  0.00  0.00    +0.024 A 
ATOM     32  C   UNL     1      -6.397   2.121  18.959  0.00  0.00    +0.002 A 
ATOM     33  C   UNL     1      -5.365   2.369  19.845  0.00  0.00    +0.001 A 
ATOM     34  C   UNL     1      -4.085   1.936  19.551  0.00  0.00    +0.017 A 
ATOM     35  C   UNL     1      -3.833   1.255  18.369  0.00  0.00    +0.034 A 
ATOM     36  S   UNL     1      -2.194   0.722  18.006  0.00  0.00    -0.086 S 
ATOM     37  H   UNL     1      -5.422  -0.143  15.889  0.00  0.00    +0.152 HD
ENDBRANCH  21  23
ENDBRANCH   1  21
TORSDOF 7
