REMARK  Name = ZINC52586347
REMARK  8 active torsions:
REMARK  status: ('A' for Active; 'I' for Inactive)
REMARK    1  A    between atoms: C_1  and  C_2
REMARK    2  A    between atoms: C_7  and  C_9
REMARK    3  A    between atoms: C_7  and  N_25
REMARK    4  A    between atoms: C_9  and  N_10
REMARK    5  A    between atoms: C_16  and  C_19
REMARK    6  A    between atoms: N_21  and  C_22
REMARK    7  A    between atoms: N_25  and  C_26
REMARK    8  A    between atoms: N_25  and  C_27
REMARK                            x       y       z     vdW  Elec       q    Type
REMARK                         _______ _______ _______ _____ _____    ______ ____
ROOT
ATOM      1  N   UNL     1      -0.679  -3.970   1.065  0.00  0.00    -0.301 N 
ATOM      2  C   UNL     1      -1.836  -4.637   0.881  0.00  0.00    +0.302 C 
ATOM      3  O   UNL     1      -2.887  -4.028   0.834  0.00  0.00    -0.253 OA
ATOM      4  N   UNL     1      -1.827  -5.978   0.747  0.00  0.00    -0.286 N 
ATOM      5  C   UNL     1      -0.583  -6.740   0.923  0.00  0.00    +0.110 C 
ATOM      6  C   UNL     1      -0.360  -7.612  -0.317  0.00  0.00    +0.032 C 
ATOM      7  C   UNL     1      -1.599  -8.478  -0.555  0.00  0.00    +0.078 C 
ATOM      8  C   UNL     1      -2.811  -7.579  -0.809  0.00  0.00    +0.032 C 
ATOM      9  C   UNL     1      -3.063  -6.707   0.430  0.00  0.00    +0.110 C 
ATOM     10  H   UNL     1       0.150  -4.461   1.182  0.00  0.00    +0.150 HD
ENDROOT
BRANCH   7  11
ATOM     11  C   UNL     1      -1.370  -9.362  -1.754  0.00  0.00    +0.216 C 
ATOM     12  O   UNL     1      -0.320  -9.305  -2.358  0.00  0.00    -0.276 OA
ATOM     13  N   UNL     1      -2.333 -10.216  -2.155  0.00  0.00    -0.312 N 
ATOM     14  H   UNL     1      -3.173 -10.262  -1.672  0.00  0.00    +0.149 HD
BRANCH  13  15
ATOM     15  C   UNL     1      -2.110 -11.076  -3.320  0.00  0.00    +0.073 C 
ATOM     16  C   UNL     1      -3.255 -11.214  -4.326  0.00  0.00    +0.024 C 
ATOM     17  C   UNL     1      -2.907 -12.380  -3.399  0.00  0.00    +0.024 C 
ENDBRANCH  13  15
ENDBRANCH   7  11
BRANCH   1  18
ATOM     18  C   UNL     1      -0.673  -2.506   1.090  0.00  0.00    +0.094 C 
BRANCH  18  24
ATOM     19  C   UNL     1       0.117   1.629   0.088  0.00  0.00    +0.007 C 
ATOM     20  C   UNL     1       0.114   0.101   0.010  0.00  0.00    -0.015 C 
ATOM     21  C   UNL     1       0.895  -0.348  -1.226  0.00  0.00    +0.003 C 
ATOM     22  C   UNL     1       0.892  -1.876  -1.304  0.00  0.00    -0.001 C 
ATOM     23  C   UNL     1       1.550  -2.452  -0.049  0.00  0.00    -0.010 C 
ATOM     24  C   UNL     1       0.768  -2.003   1.188  0.00  0.00    -0.050 C 
ATOM     25  C   UNL     1       0.771  -0.475   1.266  0.00  0.00    -0.007 C 
BRANCH  24  26
ATOM     26  N   UNL     1       1.399  -2.556   2.393  0.00  0.00    +0.381 N 
ATOM     27  C   UNL     1       2.749  -1.994   2.541  0.00  0.00    -0.096 C 
ATOM     28  C   UNL     1       0.593  -2.209   3.571  0.00  0.00    -0.096 C 
ATOM     29  H   UNL     1       1.460  -3.560   2.311  0.00  0.00    -0.082 HD
ENDBRANCH  24  26
ENDBRANCH  18  24
ENDBRANCH   1  18
TORSDOF 5
