REMARK  Name = ZINC09552018
REMARK  10 active torsions:
REMARK  status: ('A' for Active; 'I' for Inactive)
REMARK    1  A    between atoms: C_1  and  C_2
REMARK    2  A    between atoms: C_3  and  C_34
REMARK    3  A    between atoms: C_9  and  C_12
REMARK    4  A    between atoms: C_12  and  O_14
REMARK    5  A    between atoms: O_14  and  C_15
REMARK    6  A    between atoms: C_15  and  C_17
REMARK    7  A    between atoms: C_15  and  C_18
REMARK    8  A    between atoms: N_20  and  C_21
REMARK    9  A    between atoms: C_24  and  N_31
REMARK   10  A    between atoms: C_26  and  C_27
REMARK                            x       y       z     vdW  Elec       q    Type
REMARK                         _______ _______ _______ _____ _____    ______ ____
ROOT
ATOM      1  C   UNL     1       0.086  -2.302   7.118  0.00  0.00    +0.259 C 
ATOM      2  C   UNL     1      -1.352  -2.230   7.635  0.00  0.00    +0.062 C 
ENDROOT
BRANCH   1   3
ATOM      3  C   UNL     1       0.829  -3.391   7.849  0.00  0.00    +0.258 C 
ATOM      4  O   UNL     1       1.302  -4.322   7.232  0.00  0.00    -0.271 OA
ATOM      5  N   UNL     1       0.967  -3.330   9.188  0.00  0.00    -0.282 N 
ATOM      6  H   UNL     1       0.659  -2.548   9.672  0.00  0.00    +0.155 HD
BRANCH   5   7
ATOM      7  C   UNL     1       1.553  -4.396   9.880  0.00  0.00    +0.045 A 
ATOM      8  C   UNL     1       1.526  -5.676   9.340  0.00  0.00    +0.026 A 
ATOM      9  C   UNL     1       2.106  -6.725  10.025  0.00  0.00    +0.034 A 
ATOM     10  C   UNL     1       2.713  -6.503  11.248  0.00  0.00    +0.127 A 
ATOM     11  C   UNL     1       2.741  -5.231  11.788  0.00  0.00    +0.047 A 
ATOM     12  C   UNL     1       2.169  -4.176  11.105  0.00  0.00    +0.078 A 
BRANCH  12  13
ATOM     13  C   UNL     1       2.207  -2.788  11.691  0.00  0.00    +0.419 C 
ATOM     14  F   UNL     1       2.875  -2.819  12.920  0.00  0.00    -0.166 F 
ATOM     15  F   UNL     1       2.880  -1.930  10.815  0.00  0.00    -0.166 F 
ATOM     16  F   UNL     1       0.900  -2.327  11.882  0.00  0.00    -0.166 F 
ENDBRANCH  12  13
BRANCH  10  17
ATOM     17  N   UNL     1       3.333  -7.630  11.979  0.00  0.00    +0.056 N 
ATOM     18  O   UNL     1       3.309  -8.743  11.508  0.00  0.00    -0.126 OA
ATOM     19  O   UNL     1       3.865  -7.438  13.048  0.00  0.00    -0.126 OA
ENDBRANCH  10  17
ENDBRANCH   5   7
ENDBRANCH   1   3
BRANCH   1  20
ATOM     20  O   UNL     1       0.075  -2.590   5.718  0.00  0.00    -0.449 OA
BRANCH  20  21
ATOM     21  C   UNL     1       0.043  -1.537   4.878  0.00  0.00    +0.340 C 
ATOM     22  O   UNL     1       0.025  -0.406   5.321  0.00  0.00    -0.245 OA
BRANCH  21  31
ATOM     23  C   UNL     1      -0.080   1.492   0.012  0.00  0.00    +0.046 C 
ATOM     24  C   UNL     1      -0.048  -0.014   0.004  0.00  0.00    -0.022 A 
ATOM     25  C   UNL     1      -0.038  -0.808  -1.079  0.00  0.00    +0.017 A 
ATOM     26  N   UNL     1      -0.007  -2.121  -0.695  0.00  0.00    -0.358 N 
ATOM     27  H   UNL     1       0.005  -2.878  -1.302  0.00  0.00    +0.166 HD
ATOM     28  C   UNL     1       0.004  -2.210   0.676  0.00  0.00    +0.047 A 
ATOM     29  C   UNL     1      -0.015  -0.893   1.177  0.00  0.00    +0.004 A 
ATOM     30  C   UNL     1      -0.003  -0.670   2.551  0.00  0.00    +0.025 A 
ATOM     31  C   UNL     1       0.030  -1.758   3.419  0.00  0.00    +0.060 A 
ATOM     32  C   UNL     1       0.052  -3.064   2.908  0.00  0.00    +0.017 A 
ATOM     33  C   UNL     1       0.032  -3.284   1.563  0.00  0.00    +0.027 A 
ATOM     34  C   UNL     1      -0.058  -0.324  -2.506  0.00  0.00    +0.063 C 
ENDBRANCH  21  31
ENDBRANCH  20  21
ENDBRANCH   1  20
TORSDOF 7
