REMARK  Name = ZINC04852975
REMARK  4 active torsions:
REMARK  status: ('A' for Active; 'I' for Inactive)
REMARK    1  A    between atoms: C_1  and  O_2
REMARK    2  A    between atoms: O_2  and  C_3
REMARK    3  A    between atoms: C_5  and  N_26
REMARK    4  A    between atoms: C_10  and  C_19
REMARK                            x       y       z     vdW  Elec       q    Type
REMARK                         _______ _______ _______ _____ _____    ______ ____
ROOT
ATOM      1  C   UNL     1      -4.573   2.955  -2.630  0.00  0.00    +0.143 A 
ATOM      2  C   UNL     1      -5.090   4.190  -2.285  0.00  0.00    +0.080 A 
ATOM      3  C   UNL     1      -4.398   5.001  -1.405  0.00  0.00    +0.130 A 
ATOM      4  C   UNL     1      -3.197   4.579  -0.875  0.00  0.00    +0.039 A 
ATOM      5  C   UNL     1      -2.667   3.339  -1.213  0.00  0.00    -0.014 A 
ATOM      6  C   UNL     1      -3.356   2.525  -2.093  0.00  0.00    +0.074 A 
ATOM      7  N   UNL     1      -2.876   1.270  -2.476  0.00  0.00    -0.334 N 
ATOM      8  C   UNL     1      -1.994   0.677  -1.450  0.00  0.00    +0.105 C 
ATOM      9  C   UNL     1      -0.821   1.629  -1.204  0.00  0.00    +0.029 C 
ATOM     10  C   UNL     1      -1.359   2.942  -0.597  0.00  0.00    +0.049 C 
ATOM     11  C   UNL     1      -1.520   2.630   0.873  0.00  0.00    -0.023 C 
ATOM     12  C   UNL     1      -0.778   1.602   1.210  0.00  0.00    -0.030 C 
ATOM     13  C   UNL     1      -0.013   1.086   0.008  0.00  0.00    +0.033 C 
ATOM     14  H   UNL     1      -2.416   1.316  -3.373  0.00  0.00    +0.147 HD
ENDROOT
BRANCH   8  15
ATOM     15  C   UNL     1      -1.472  -0.647  -1.944  0.00  0.00    -0.027 A 
ATOM     16  C   UNL     1      -1.121  -0.799  -3.273  0.00  0.00    +0.006 A 
ATOM     17  C   UNL     1      -0.638  -2.013  -3.726  0.00  0.00    +0.015 A 
ATOM     18  C   UNL     1      -0.514  -3.078  -2.852  0.00  0.00    +0.018 A 
ATOM     19  C   UNL     1      -0.870  -2.926  -1.523  0.00  0.00    +0.015 A 
ATOM     20  C   UNL     1      -1.348  -1.711  -1.070  0.00  0.00    +0.006 A 
ATOM     21 BR   UNL     1       0.141  -4.739  -3.472  0.00  0.00    -0.050 Br
ENDBRANCH   8  15
BRANCH   3  22
ATOM     22  N   UNL     1      -4.946   6.325  -1.033  0.00  0.00    +0.057 N 
ATOM     23  O   UNL     1      -4.337   7.040  -0.257  0.00  0.00    -0.126 OA
ATOM     24  O   UNL     1      -6.006   6.698  -1.501  0.00  0.00    -0.126 OA
ENDBRANCH   3  22
BRANCH   1  26
ATOM     25  C   UNL     1      -6.489   2.654  -4.008  0.00  0.00    +0.277 C 
ATOM     26  O   UNL     1      -5.251   2.154  -3.496  0.00  0.00    -0.493 OA
ENDBRANCH   1  26
TORSDOF 3
