REMARK  Name = ZINC41286833
REMARK  6 active torsions:
REMARK  status: ('A' for Active; 'I' for Inactive)
REMARK    1  A    between atoms: C_1  and  C_2
REMARK    2  A    between atoms: C_4  and  C_18
REMARK    3  A    between atoms: C_5  and  C_9
REMARK    4  A    between atoms: C_6  and  C_8
REMARK    5  A    between atoms: C_10  and  C_15
REMARK    6  A    between atoms: C_13  and  N_14
REMARK                            x       y       z     vdW  Elec       q    Type
REMARK                         _______ _______ _______ _____ _____    ______ ____
ROOT
ATOM      1  C   UNL     1       0.058  -4.255  -0.021  0.00  0.00    +0.067 A 
ATOM      2  C   UNL     1      -1.069  -5.104  -0.026  0.00  0.00    +0.096 A 
ATOM      3  N   UNL     1      -0.649  -6.337  -0.033  0.00  0.00    -0.080 NA
ATOM      4  O   UNL     1       0.766  -6.335  -0.033  0.00  0.00    -0.339 OA
ATOM      5  C   UNL     1       1.183  -5.058  -0.032  0.00  0.00    +0.223 A 
ENDROOT
BRANCH   1  10
ATOM      6  C   UNL     1      -0.018   1.503   0.010  0.00  0.00    +0.044 C 
ATOM      7  C   UNL     1       0.002  -0.004   0.002  0.00  0.00    -0.050 A 
ATOM      8  C   UNL     1       0.006  -0.686  -1.201  0.00  0.00    +0.007 A 
ATOM      9  C   UNL     1       0.024  -2.066  -1.215  0.00  0.00    -0.042 A 
ATOM     10  C   UNL     1       0.039  -2.772  -0.013  0.00  0.00    -0.005 A 
ATOM     11  C   UNL     1       0.036  -2.079   1.196  0.00  0.00    -0.042 A 
ATOM     12  C   UNL     1       0.023  -0.699   1.198  0.00  0.00    +0.007 A 
ATOM     13  C   UNL     1       0.052  -2.836   2.500  0.00  0.00    +0.044 C 
ATOM     14  C   UNL     1       0.027  -2.808  -2.527  0.00  0.00    +0.044 C 
ENDBRANCH   1  10
BRANCH   5  15
ATOM     15  N   UNL     1       2.493  -4.627  -0.037  0.00  0.00    -0.327 N 
ATOM     16  H   UNL     1       2.691  -3.678  -0.034  0.00  0.00    +0.145 HD
ATOM     17  H   UNL     1       3.216  -5.274  -0.045  0.00  0.00    +0.145 HD
ENDBRANCH   5  15
BRANCH   2  18
ATOM     18  C   UNL     1      -2.509  -4.662  -0.023  0.00  0.00    +0.042 C 
ATOM     19  C   UNL     1      -3.579  -5.737   0.175  0.00  0.00    +0.010 C 
ATOM     20  C   UNL     1      -3.384  -5.096  -1.201  0.00  0.00    +0.010 C 
ENDBRANCH   2  18
TORSDOF 3
