REMARK  Name = ZINC44020032
REMARK  12 active torsions:
REMARK  status: ('A' for Active; 'I' for Inactive)
REMARK    1  A    between atoms: C_1  and  C_2
REMARK    2  A    between atoms: C_2  and  C_4
REMARK    3  A    between atoms: C_2  and  C_10
REMARK    4  A    between atoms: C_4  and  C_5
REMARK    5  A    between atoms: C_5  and  C_6
REMARK    6  A    between atoms: C_6  and  C_7
REMARK    7  A    between atoms: C_7  and  C_8
REMARK    8  A    between atoms: C_7  and  C_9
REMARK    9  A    between atoms: C_16  and  C_37
REMARK   10  A    between atoms: C_17  and  O_36
REMARK   11  A    between atoms: C_24  and  O_35
REMARK   12  A    between atoms: C_33  and  C_34
REMARK                            x       y       z     vdW  Elec       q    Type
REMARK                         _______ _______ _______ _____ _____    ______ ____
ROOT
ATOM      1  C   UNL     1       0.645  -0.604   1.292  0.00  0.00    +0.001 C 
ATOM      2  C   UNL     1       0.536  -2.139   1.221  0.00  0.00    +0.005 C 
ATOM      3  C   UNL     1      -0.375  -2.571   2.392  0.00  0.00    +0.005 C 
ATOM      4  C   UNL     1      -1.196  -1.303   2.695  0.00  0.00    +0.003 C 
ATOM      5  C   UNL     1      -0.171  -0.165   2.536  0.00  0.00    +0.000 C 
ATOM      6  C   UNL     1       0.804  -0.152   3.717  0.00  0.00    +0.121 C 
ATOM      7  C   UNL     1       0.045  -0.076   5.038  0.00  0.00    +0.036 C 
ATOM      8  C   UNL     1      -0.822  -1.333   5.183  0.00  0.00    +0.007 C 
ATOM      9  C   UNL     1      -1.837  -1.343   4.062  0.00  0.00    +0.026 C 
ATOM     10  C   UNL     1      -2.697  -2.605   4.193  0.00  0.00    +0.122 C 
ATOM     11  C   UNL     1      -3.486  -2.546   5.502  0.00  0.00    +0.063 C 
ATOM     12  C   UNL     1      -2.510  -2.352   6.648  0.00  0.00    -0.058 C 
ATOM     13  C   UNL     1      -2.616  -3.164   7.699  0.00  0.00    +0.046 C 
ATOM     14  C   UNL     1      -1.708  -3.010   8.841  0.00  0.00    +0.156 C 
ATOM     15  O   UNL     1      -1.502  -3.917   9.620  0.00  0.00    -0.293 OA
ATOM     16  C   UNL     1      -1.039  -1.658   8.994  0.00  0.00    +0.080 C 
ATOM     17  C   UNL     1      -0.438  -1.288   7.639  0.00  0.00    +0.019 C 
ATOM     18  C   UNL     1      -1.530  -1.281   6.543  0.00  0.00    -0.007 C 
ATOM     19  C   UNL     1      -2.257   0.061   6.646  0.00  0.00    +0.016 C 
ATOM     20  C   UNL     1      -0.849   1.191   2.330  0.00  0.00    +0.014 C 
ENDROOT
BRANCH   1  22
ATOM     21  C   UNL     1       0.954  -0.295  -1.169  0.00  0.00    +0.008 C 
ATOM     22  C   UNL     1       0.055   0.024   0.027  0.00  0.00    -0.010 C 
BRANCH  22  23
ATOM     23  C   UNL     1      -1.343  -0.546  -0.220  0.00  0.00    +0.003 C 
BRANCH  23  24
ATOM     24  C   UNL     1      -1.951   0.113  -1.460  0.00  0.00    +0.001 C 
BRANCH  24  25
ATOM     25  C   UNL     1      -3.349  -0.457  -1.707  0.00  0.00    +0.003 C 
BRANCH  25  26
ATOM     26  C   UNL     1      -3.957   0.202  -2.946  0.00  0.00    -0.017 C 
ATOM     27  C   UNL     1      -5.301  -0.455  -3.266  0.00  0.00    +0.007 C 
ATOM     28  C   UNL     1      -4.169   1.694  -2.678  0.00  0.00    +0.007 C 
ENDBRANCH  25  26
ENDBRANCH  24  25
ENDBRANCH  23  24
ENDBRANCH  22  23
ENDBRANCH   1  22
BRANCH  10  29
ATOM     29  O   UNL     1      -3.604  -2.681   3.091  0.00  0.00    -0.391 OA
ATOM     30  H   UNL     1      -4.180  -3.457   3.110  0.00  0.00    +0.210 HD
ENDBRANCH  10  29
BRANCH   6  31
ATOM     31  O   UNL     1       1.589  -1.346   3.693  0.00  0.00    -0.391 OA
ATOM     32  H   UNL     1       2.231  -1.409   4.413  0.00  0.00    +0.210 HD
ENDBRANCH   6  31
TORSDOF 7
