REMARK  Name = ZINC02769626
REMARK  10 active torsions:
REMARK  status: ('A' for Active; 'I' for Inactive)
REMARK    1  A    between atoms: C_1  and  C_2
REMARK    2  A    between atoms: C_3  and  C_26
REMARK    3  A    between atoms: C_4  and  C_12
REMARK    4  A    between atoms: C_6  and  C_10
REMARK    5  A    between atoms: C_7  and  N_9
REMARK    6  A    between atoms: C_15  and  C_17
REMARK    7  A    between atoms: C_17  and  O_18
REMARK    8  A    between atoms: O_18  and  C_19
REMARK    9  A    between atoms: C_26  and  O_28
REMARK   10  A    between atoms: O_28  and  C_29
REMARK                            x       y       z     vdW  Elec       q    Type
REMARK                         _______ _______ _______ _____ _____    ______ ____
ROOT
ATOM      1  C   UNL     1       8.513   2.068   4.534  0.00  0.00    +0.087 C 
ATOM      2  C   UNL     1       7.764   1.048   3.715  0.00  0.00    +0.115 C 
ATOM      3  C   UNL     1       8.096   0.880   2.430  0.00  0.00    +0.090 C 
ATOM      4  C   UNL     1       7.384  -0.125   1.567  0.00  0.00    +0.140 C 
ATOM      5  C   UNL     1       6.626  -1.093   2.434  0.00  0.00    +0.101 C 
ATOM      6  C   UNL     1       6.376  -0.809   3.734  0.00  0.00    +0.198 C 
ATOM      7  O   UNL     1       6.787   0.339   4.300  0.00  0.00    -0.445 OA
ENDROOT
BRANCH   4   8
ATOM      8  C   UNL     1       6.422   0.591   0.654  0.00  0.00    +0.118 A 
ATOM      9  C   UNL     1       6.449   0.569  -0.690  0.00  0.00    +0.046 A 
ATOM     10  C   UNL     1       5.371   1.370  -1.134  0.00  0.00    +0.048 A 
ATOM     11  C   UNL     1       4.751   1.833  -0.035  0.00  0.00    +0.142 A 
ATOM     12  O   UNL     1       5.395   1.363   1.046  0.00  0.00    -0.460 OA
BRANCH  11  13
ATOM     13  C   UNL     1       3.542   2.733  -0.018  0.00  0.00    +0.303 C 
BRANCH  13  14
ATOM     14  O   UNL     1       2.356   1.936  -0.011  0.00  0.00    -0.483 OA
BRANCH  14  15
ATOM     15  C   UNL     1       1.168   2.598   0.005  0.00  0.00    +0.135 A 
ATOM     16  C   UNL     1       1.146   3.985   0.013  0.00  0.00    +0.047 A 
ATOM     17  C   UNL     1      -0.062   4.655   0.028  0.00  0.00    +0.004 A 
ATOM     18  C   UNL     1      -1.248   3.945   0.035  0.00  0.00    +0.001 A 
ATOM     19  C   UNL     1      -1.230   2.562   0.022  0.00  0.00    +0.019 A 
ATOM     20  C   UNL     1      -0.024   1.887   0.012  0.00  0.00    +0.059 A 
ATOM     21 BR   UNL     1       0.002  -0.004   0.002  0.00  0.00    -0.047 Br
ENDBRANCH  14  15
ENDBRANCH  13  14
ENDBRANCH  11  13
ENDBRANCH   4   8
BRANCH   6  22
ATOM     22  N   UNL     1       5.683  -1.717   4.495  0.00  0.00    -0.328 N 
ATOM     23  H   UNL     1       5.380  -2.550   4.101  0.00  0.00    +0.145 HD
ATOM     24  H   UNL     1       5.497  -1.527   5.428  0.00  0.00    +0.145 HD
ENDBRANCH   6  22
BRANCH   5  25
ATOM     25  C   UNL     1       6.163  -2.329   1.878  0.00  0.00    +0.101 C 
ATOM     26  N   UNL     1       5.796  -3.310   1.437  0.00  0.00    -0.191 NA
ENDBRANCH   5  25
BRANCH   3  27
ATOM     27  C   UNL     1       9.138   1.663   1.874  0.00  0.00    +0.339 C 
ATOM     28  O   UNL     1       9.720   2.478   2.564  0.00  0.00    -0.245 OA
BRANCH  27  29
ATOM     29  O   UNL     1       9.484   1.504   0.580  0.00  0.00    -0.465 OA
ATOM     30  C   UNL     1      10.543   2.326   0.086  0.00  0.00    +0.280 C 
ENDBRANCH  27  29
ENDBRANCH   3  27
TORSDOF 8
