REMARK  Name = ZINC05640197
REMARK  8 active torsions:
REMARK  status: ('A' for Active; 'I' for Inactive)
REMARK    1  A    between atoms: C_1  and  C_2
REMARK    2  A    between atoms: C_2  and  N_50
REMARK    3  A    between atoms: C_3  and  C_4
REMARK    4  A    between atoms: C_3  and  N_50
REMARK    5  A    between atoms: N_6  and  C_7
REMARK    6  A    between atoms: C_10  and  C_13
REMARK    7  A    between atoms: C_21  and  C_25
REMARK    8  A    between atoms: C_21  and  C_26
REMARK                            x       y       z     vdW  Elec       q    Type
REMARK                         _______ _______ _______ _____ _____    ______ ____
ROOT
ATOM      1  C   UNL     1      -1.200   1.957   5.791  0.00  0.00    +0.033 A 
ATOM      2  C   UNL     1      -2.587   1.970   5.733  0.00  0.00    +0.023 A 
ATOM      3  C   UNL     1      -3.319   2.341   6.844  0.00  0.00    +0.007 A 
ATOM      4  C   UNL     1      -2.672   2.708   8.010  0.00  0.00    -0.023 A 
ATOM      5  C   UNL     1      -1.290   2.700   8.069  0.00  0.00    +0.007 A 
ATOM      6  C   UNL     1      -0.552   2.326   6.963  0.00  0.00    +0.023 A 
ENDROOT
BRANCH   4   7
ATOM      7  C   UNL     1      -3.474   3.118   9.218  0.00  0.00    +0.134 C 
ATOM      8  C   UNL     1      -3.689   1.915  10.092  0.00  0.00    -0.019 A 
ATOM      9  C   UNL     1      -2.668   1.520  10.945  0.00  0.00    +0.006 A 
ATOM     10  C   UNL     1      -2.828   0.420  11.763  0.00  0.00    +0.000 A 
ATOM     11  C   UNL     1      -4.011  -0.294  11.734  0.00  0.00    +0.000 A 
ATOM     12  C   UNL     1      -5.028   0.097  10.886  0.00  0.00    +0.005 A 
ATOM     13  C   UNL     1      -4.869   1.202  10.064  0.00  0.00    -0.028 A 
ATOM     14  C   UNL     1      -6.001   1.598   9.157  0.00  0.00    +0.067 C 
ATOM     15  C   UNL     1      -5.881   3.030   8.736  0.00  0.00    +0.224 C 
ATOM     16  O   UNL     1      -6.873   3.604   8.340  0.00  0.00    -0.275 OA
ATOM     17  N   UNL     1      -4.728   3.702   8.777  0.00  0.00    -0.304 N 
ATOM     18  C   UNL     1      -5.983   0.706   7.913  0.00  0.00    +0.025 C 
ATOM     19  C   UNL     1      -7.327   1.402   9.895  0.00  0.00    +0.025 C 
ATOM     20  H   UNL     1      -4.729   4.630   8.496  0.00  0.00    +0.150 HD
ENDBRANCH   4   7
BRANCH   1  23
ATOM     21  C   UNL     1       0.699   0.899   4.823  0.00  0.00    +0.200 C 
ATOM     22  O   UNL     1       1.104   0.637   5.936  0.00  0.00    -0.278 OA
ATOM     23  N   UNL     1      -0.455   1.577   4.668  0.00  0.00    -0.287 N 
ATOM     24  H   UNL     1      -0.770   1.803   3.779  0.00  0.00    +0.155 HD
BRANCH  21  25
ATOM     25  C   UNL     1       1.487   0.466   3.613  0.00  0.00    +0.015 C 
BRANCH  25  26
ATOM     26  N   UNL     1       2.697  -0.252   4.056  0.00  0.00    +0.385 N 
ATOM     27  H   UNL     1       3.267   0.373   4.638  0.00  0.00    -0.085 HD
ATOM     28  H   UNL     1       2.421  -1.074   4.605  0.00  0.00    -0.085 HD
BRANCH  26  30
ATOM     29  C   UNL     1       4.735  -1.428   3.379  0.00  0.00    -0.017 C 
ATOM     30  C   UNL     1       3.489  -0.688   2.890  0.00  0.00    -0.085 C 
ENDBRANCH  26  30
ENDBRANCH  25  26
ENDBRANCH  21  25
ENDBRANCH   1  23
TORSDOF 5
