REMARK  Name = ZINC04090933
REMARK  6 active torsions:
REMARK  status: ('A' for Active; 'I' for Inactive)
REMARK    1  A    between atoms: C_8  and  C_10
REMARK    2  A    between atoms: C_13  and  N_16
REMARK    3  A    between atoms: N_16  and  C_17
REMARK    4  A    between atoms: C_17  and  N_19
REMARK    5  A    between atoms: C_20  and  C_22
REMARK    6  A    between atoms: C_23  and  C_24
REMARK                            x       y       z     vdW  Elec       q    Type
REMARK                         _______ _______ _______ _____ _____    ______ ____
ROOT
ATOM      1  N   UNL     1       5.466  -7.092  -0.087  0.00  0.00    -0.297 N 
ATOM      2  H   UNL     1       4.968  -7.920  -0.006  0.00  0.00    +0.154 HD
ENDROOT
BRANCH   1   6
ATOM      3  C   UNL     1       3.455  -3.443  -0.082  0.00  0.00    +0.037 A 
ATOM      4  C   UNL     1       3.085  -4.448   0.815  0.00  0.00    +0.015 A 
ATOM      5  C   UNL     1       3.747  -5.655   0.807  0.00  0.00    +0.024 A 
ATOM      6  C   UNL     1       4.793  -5.870  -0.086  0.00  0.00    +0.033 A 
ATOM      7  C   UNL     1       5.168  -4.870  -0.976  0.00  0.00    +0.024 A 
ATOM      8  C   UNL     1       4.506  -3.662  -0.977  0.00  0.00    +0.015 A 
BRANCH   3  16
ATOM      9  C   UNL     1       0.228   1.536   0.391  0.00  0.00    +0.023 A 
ATOM     10  C   UNL     1       0.349   0.271   0.945  0.00  0.00    +0.051 A 
ATOM     11  C   UNL     1       1.330  -0.573   0.447  0.00  0.00    +0.174 A 
ATOM     12  C   UNL     1       2.162  -0.123  -0.593  0.00  0.00    +0.199 A 
ATOM     13  N   UNL     1       2.006   1.101  -1.090  0.00  0.00    -0.233 NA
ATOM     14  C   UNL     1       1.081   1.917  -0.631  0.00  0.00    +0.113 A 
ATOM     15  N   UNL     1       3.013  -1.142  -0.873  0.00  0.00    -0.189 NA
ATOM     16  C   UNL     1       2.743  -2.150  -0.080  0.00  0.00    +0.230 A 
ATOM     17  O   UNL     1       1.721  -1.833   0.737  0.00  0.00    -0.434 OA
ENDBRANCH   3  16
ENDBRANCH   1   6
BRANCH   1  18
ATOM     18  C   UNL     1       6.809  -7.121  -0.202  0.00  0.00    +0.141 C 
ATOM     19  S   UNL     1       7.700  -5.660  -0.203  0.00  0.00    -0.018 S 
BRANCH  18  20
ATOM     20  N   UNL     1       7.450  -8.302  -0.316  0.00  0.00    -0.264 N 
ATOM     21  C   UNL     1       8.792  -8.331  -0.430  0.00  0.00    +0.242 C 
ATOM     22  O   UNL     1       9.426  -7.292  -0.431  0.00  0.00    -0.270 OA
ATOM     23  H   UNL     1       6.945  -9.130  -0.315  0.00  0.00    +0.157 HD
BRANCH  21  24
ATOM     24  C   UNL     1       9.488  -9.612  -0.554  0.00  0.00    +0.068 C 
ATOM     25  C   UNL     1      10.832  -9.641  -0.669  0.00  0.00    +0.013 C 
BRANCH  25  26
ATOM     26  C   UNL     1      11.531 -10.930  -0.793  0.00  0.00    -0.025 A 
ATOM     27  C   UNL     1      10.807 -12.126  -0.787  0.00  0.00    +0.009 A 
ATOM     28  C   UNL     1      11.469 -13.329  -0.908  0.00  0.00    +0.020 A 
ATOM     29  C   UNL     1      12.849 -13.355  -1.026  0.00  0.00    +0.041 A 
ATOM     30  C   UNL     1      13.573 -12.174  -1.028  0.00  0.00    +0.020 A 
ATOM     31  C   UNL     1      12.925 -10.964  -0.912  0.00  0.00    +0.009 A 
ATOM     32 CL   UNL     1      13.675 -14.876  -1.171  0.00  0.00    -0.084 Cl
ENDBRANCH  25  26
ENDBRANCH  21  24
ENDBRANCH  18  20
ENDBRANCH   1  18
TORSDOF 6
