REMARK  Name = ZINC63384108
REMARK  6 active torsions:
REMARK  status: ('A' for Active; 'I' for Inactive)
REMARK    1  A    between atoms: C_1  and  C_2
REMARK    2  A    between atoms: C_2  and  N_3
REMARK    3  A    between atoms: C_16  and  C_18
REMARK    4  A    between atoms: N_24  and  C_27
REMARK    5  A    between atoms: C_27  and  C_29
REMARK    6  A    between atoms: C_27  and  C_30
REMARK                            x       y       z     vdW  Elec       q    Type
REMARK                         _______ _______ _______ _____ _____    ______ ____
ROOT
ATOM      1  C   UNL     1      -1.269  -2.597  -0.495  0.00  0.00    +0.070 A 
ATOM      2  H   UNL     1      -3.652  -4.290   0.899  0.00  0.00    +0.173 HD
ATOM      3  C   UNL     1      -1.877  -3.430   0.397  0.00  0.00    +0.259 A 
ATOM      4  N   UNL     1      -3.216  -3.698   0.267  0.00  0.00    -0.275 N 
ATOM      5  C   UNL     1      -3.928  -3.146  -0.733  0.00  0.00    +0.333 A 
ATOM      6  O   UNL     1      -5.113  -3.396  -0.833  0.00  0.00    -0.246 OA
ATOM      7  N   UNL     1      -3.346  -2.321  -1.623  0.00  0.00    -0.253 N 
ATOM      8  C   UNL     1      -2.035  -2.026  -1.527  0.00  0.00    +0.263 A 
ATOM      9  O   UNL     1      -1.514  -1.275  -2.333  0.00  0.00    -0.267 OA
ATOM     10  O   UNL     1      -1.166  -3.987   1.401  0.00  0.00    -0.267 OA
ENDROOT
BRANCH   1  23
ATOM     11  N   UNL     1       0.396  -0.831  -0.303  0.00  0.00    +0.386 N 
ATOM     12  C   UNL     1       1.786  -0.476  -0.006  0.00  0.00    -0.073 C 
ATOM     13  C   UNL     1       2.704  -0.890  -1.171  0.00  0.00    +0.015 C 
ATOM     14  C   UNL     1       2.385  -2.336  -1.461  0.00  0.00    -0.041 C 
ATOM     15  C   UNL     1       3.148  -3.407  -1.618  0.00  0.00    -0.001 A 
ATOM     16  C   UNL     1       4.608  -3.569  -1.711  0.00  0.00    +0.010 A 
ATOM     17  C   UNL     1       5.063  -4.843  -1.846  0.00  0.00    +0.001 A 
ATOM     18  C   UNL     1       4.222  -5.959  -1.899  0.00  0.00    +0.002 A 
ATOM     19  C   UNL     1       2.868  -5.902  -1.834  0.00  0.00    +0.026 A 
ATOM     20  C   UNL     1       2.270  -4.615  -1.700  0.00  0.00    +0.043 A 
ATOM     21  N   UNL     1       1.016  -4.272  -1.646  0.00  0.00    -0.379 N 
ATOM     22  C   UNL     1       0.942  -2.814  -1.602  0.00  0.00    +0.097 C 
ATOM     23  C   UNL     1       0.200  -2.287  -0.372  0.00  0.00    -0.000 C 
ATOM     24  H   UNL     1       0.260  -4.880  -1.636  0.00  0.00    +0.160 HD
ATOM     25  H   UNL     1       0.136  -0.422  -1.188  0.00  0.00    -0.081 HD
BRANCH  11  27
ATOM     26  C   UNL     1      -0.371   1.245   0.748  0.00  0.00    -0.017 C 
ATOM     27  C   UNL     1      -0.472  -0.282   0.748  0.00  0.00    -0.081 C 
ENDBRANCH  11  27
ENDBRANCH   1  23
BRANCH   7  28
ATOM     28  C   UNL     1      -4.147  -1.734  -2.700  0.00  0.00    +0.122 C 
ATOM     29  C   UNL     1      -3.316  -0.683  -3.438  0.00  0.00    +0.036 C 
BRANCH  28  30
ATOM     30  C   UNL     1      -4.560  -2.816  -3.665  0.00  0.00    -0.025 A 
ATOM     31  C   UNL     1      -3.635  -3.749  -4.095  0.00  0.00    +0.005 A 
ATOM     32  C   UNL     1      -4.014  -4.741  -4.980  0.00  0.00    +0.000 A 
ATOM     33  C   UNL     1      -5.318  -4.800  -5.435  0.00  0.00    +0.000 A 
ATOM     34  C   UNL     1      -6.243  -3.868  -5.004  0.00  0.00    +0.000 A 
ATOM     35  C   UNL     1      -5.865  -2.878  -4.116  0.00  0.00    +0.005 A 
ENDBRANCH  28  30
ENDBRANCH   7  28
TORSDOF 4
