REMARK  Name = ZINC37187821
REMARK  4 active torsions:
REMARK  status: ('A' for Active; 'I' for Inactive)
REMARK    1  A    between atoms: C_1  and  C_2
REMARK    2  A    between atoms: C_3  and  C_10
REMARK    3  A    between atoms: C_10  and  N_11
REMARK    4  A    between atoms: N_11  and  C_12
REMARK                            x       y       z     vdW  Elec       q    Type
REMARK                         _______ _______ _______ _____ _____    ______ ____
ROOT
ATOM      1  C   UNL     1      -0.006  -0.309  -2.522  0.00  0.00    +0.137 C 
ENDROOT
BRANCH   1   4
ATOM      2  C   UNL     1      -0.018   1.503   0.010  0.00  0.00    +0.067 C 
ATOM      3  C   UNL     1       0.002  -0.004   0.002  0.00  0.00    +0.062 A 
ATOM      4  C   UNL     1       0.008  -0.784  -1.092  0.00  0.00    +0.060 A 
ATOM      5  N   UNL     1       0.028  -2.110  -0.667  0.00  0.00    -0.296 N 
ATOM      6  C   UNL     1       0.043  -3.369  -1.226  0.00  0.00    +0.100 A 
ATOM      7  C   UNL     1       0.061  -4.457  -0.458  0.00  0.00    +0.067 A 
ATOM      8  S   UNL     1       0.059  -3.749   1.182  0.00  0.00    -0.058 S 
ATOM      9  C   UNL     1       0.034  -2.038   0.701  0.00  0.00    +0.178 A 
ATOM     10  N   UNL     1       0.024  -0.795   1.086  0.00  0.00    -0.226 NA
ENDBRANCH   1   4
BRANCH   1  11
ATOM     11  N   UNL     1      -1.396  -0.174  -2.979  0.00  0.00    -0.306 NA
ATOM     12  H   UNL     1      -1.899  -1.041  -2.867  0.00  0.00    +0.123 HD
BRANCH  11  13
ATOM     13  C   UNL     1      -1.449   0.288  -4.373  0.00  0.00    +0.076 C 
ATOM     14  C   UNL     1      -1.337  -0.921  -5.316  0.00  0.00    +0.043 C 
ATOM     15  C   UNL     1      -1.707  -0.451  -6.752  0.00  0.00    +0.167 C 
ATOM     16  S   UNL     1      -3.133   0.657  -6.386  0.00  0.00    -0.029 S 
ATOM     17  O   UNL     1      -4.336  -0.094  -6.474  0.00  0.00    -0.174 OA
ATOM     18  O   UNL     1      -2.997   1.851  -7.145  0.00  0.00    -0.174 OA
ATOM     19  C   UNL     1      -2.787   1.026  -4.619  0.00  0.00    +0.184 C 
ENDBRANCH  11  13
ENDBRANCH   1  11
TORSDOF 3
