REMARK  Name = ZINC16807678
REMARK  12 active torsions:
REMARK  status: ('A' for Active; 'I' for Inactive)
REMARK    1  A    between atoms: C_1  and  C_2
REMARK    2  A    between atoms: C_2  and  O_3
REMARK    3  A    between atoms: O_3  and  C_4
REMARK    4  A    between atoms: C_4  and  C_6
REMARK    5  A    between atoms: C_7  and  C_35
REMARK    6  A    between atoms: N_8  and  C_28
REMARK    7  A    between atoms: C_12  and  N_17
REMARK    8  A    between atoms: C_13  and  C_16
REMARK    9  A    between atoms: C_14  and  C_15
REMARK   10  A    between atoms: N_17  and  S_18
REMARK   11  A    between atoms: S_18  and  C_21
REMARK   12  A    between atoms: C_31  and  C_34
REMARK                            x       y       z     vdW  Elec       q    Type
REMARK                         _______ _______ _______ _____ _____    ______ ____
ROOT
ATOM      1  C   UNL     1       1.846  -1.994  -0.511  0.00  0.00    +0.087 A 
ATOM      2  C   UNL     1       3.209  -1.915  -0.526  0.00  0.00    +0.036 A 
ATOM      3  N   UNL     1       3.600  -0.675  -0.142  0.00  0.00    -0.312 N 
ATOM      4  C   UNL     1       2.498   0.112   0.142  0.00  0.00    +0.058 A 
ATOM      5  C   UNL     1       1.354  -0.673  -0.075  0.00  0.00    +0.017 A 
ATOM      6  C   UNL     1       0.087  -0.136   0.134  0.00  0.00    +0.035 A 
ATOM      7  C   UNL     1      -0.038   1.176   0.556  0.00  0.00    +0.052 A 
ATOM      8  C   UNL     1       1.097   1.954   0.771  0.00  0.00    -0.023 A 
ATOM      9  C   UNL     1       2.354   1.428   0.566  0.00  0.00    -0.021 A 
ATOM     10  C   UNL     1       3.574   2.281   0.802  0.00  0.00    +0.046 C 
ATOM     11  C   UNL     1       0.950   3.381   1.231  0.00  0.00    +0.046 C 
ATOM     12  C   UNL     1       4.138  -3.036  -0.912  0.00  0.00    +0.065 C 
ENDROOT
BRANCH   3  13
ATOM     13  C   UNL     1       4.931  -0.250  -0.046  0.00  0.00    +0.047 A 
ATOM     14  C   UNL     1       5.745  -0.737   0.968  0.00  0.00    +0.026 A 
ATOM     15  C   UNL     1       7.059  -0.320   1.057  0.00  0.00    +0.005 A 
ATOM     16  C   UNL     1       7.561   0.589   0.143  0.00  0.00    -0.050 A 
ATOM     17  C   UNL     1       6.751   1.079  -0.864  0.00  0.00    +0.005 A 
ATOM     18  C   UNL     1       5.438   0.662  -0.962  0.00  0.00    +0.026 A 
ATOM     19  C   UNL     1       8.993   1.046   0.247  0.00  0.00    +0.044 C 
ENDBRANCH   3  13
BRANCH   1  20
ATOM     20  C   UNL     1       1.031  -3.163  -0.860  0.00  0.00    +0.342 C 
ATOM     21  O   UNL     1       0.664  -3.327  -2.008  0.00  0.00    -0.245 OA
BRANCH  20  22
ATOM     22  O   UNL     1       0.689  -4.054   0.092  0.00  0.00    -0.461 OA
BRANCH  22  24
ATOM     23  C   UNL     1      -0.404  -6.082   0.882  0.00  0.00    +0.048 C 
ATOM     24  C   UNL     1      -0.119  -5.187  -0.326  0.00  0.00    +0.229 C 
ENDBRANCH  22  24
ENDBRANCH  20  22
ENDBRANCH   1  20
BRANCH   7  25
ATOM     25  N   UNL     1      -1.309   1.725   0.763  0.00  0.00    -0.216 N 
ATOM     26  H   UNL     1      -1.475   2.657   0.551  0.00  0.00    +0.174 HD
BRANCH  25  27
ATOM     27  S   UNL     1      -2.529   0.783   1.369  0.00  0.00    +0.072 S 
ATOM     28  O   UNL     1      -3.636   1.646   1.591  0.00  0.00    -0.150 OA
ATOM     29  O   UNL     1      -2.611  -0.363   0.533  0.00  0.00    -0.150 OA
BRANCH  27  30
ATOM     30  C   UNL     1      -2.009   0.214   2.954  0.00  0.00    +0.109 A 
ATOM     31  C   UNL     1      -1.317  -0.977   3.068  0.00  0.00    +0.030 A 
ATOM     32  C   UNL     1      -0.904  -1.421   4.310  0.00  0.00    +0.022 A 
ATOM     33  C   UNL     1      -1.193  -0.678   5.441  0.00  0.00    +0.041 A 
ATOM     34  C   UNL     1      -1.890   0.511   5.327  0.00  0.00    +0.022 A 
ATOM     35  C   UNL     1      -2.298   0.957   4.084  0.00  0.00    +0.030 A 
ATOM     36 CL   UNL     1      -0.680  -1.238   7.002  0.00  0.00    -0.084 Cl
ENDBRANCH  27  30
ENDBRANCH  25  27
ENDBRANCH   7  25
TORSDOF 7
