REMARK  Name = ZINC50918488
REMARK  4 active torsions:
REMARK  status: ('A' for Active; 'I' for Inactive)
REMARK    1  A    between atoms: C_3  and  N_11
REMARK    2  A    between atoms: C_6  and  C_7
REMARK    3  A    between atoms: C_12  and  C_14
REMARK    4  A    between atoms: C_14  and  C_15
REMARK                            x       y       z     vdW  Elec       q    Type
REMARK                         _______ _______ _______ _____ _____    ______ ____
ROOT
ATOM      1  C   UNL     1      -0.019   1.526   0.010  0.00  0.00    +0.014 C 
ATOM      2  C   UNL     1       1.417   2.055  -0.000  0.00  0.00    +0.023 C 
ATOM      3  C   UNL     1       2.133   1.562  -1.259  0.00  0.00    +0.073 C 
ATOM      4  C   UNL     1       2.154   0.032  -1.268  0.00  0.00    +0.023 C 
ATOM      5  C   UNL     1       0.718  -0.497  -1.257  0.00  0.00    +0.014 C 
ATOM      6  C   UNL     1       0.002  -0.004   0.002  0.00  0.00    +0.093 C 
ENDROOT
BRANCH   6   7
ATOM      7  C   UNL     1      -1.433  -0.534   0.013  0.00  0.00    +0.393 C 
ATOM      8  F   UNL     1      -2.110  -0.070  -1.121  0.00  0.00    -0.170 F 
ATOM      9  F   UNL     1      -1.414  -1.933   0.005  0.00  0.00    -0.170 F 
ATOM     10  F   UNL     1      -2.088  -0.083   1.164  0.00  0.00    -0.170 F 
ENDBRANCH   6   7
BRANCH   3  11
ATOM     11  N   UNL     1       3.507   2.069  -1.270  0.00  0.00    -0.312 N 
ATOM     12  C   UNL     1       4.164   2.213  -2.438  0.00  0.00    +0.224 C 
ATOM     13  O   UNL     1       3.616   1.923  -3.481  0.00  0.00    -0.275 OA
ATOM     14  H   UNL     1       3.945   2.301  -0.436  0.00  0.00    +0.149 HD
BRANCH  12  15
ATOM     15  C   UNL     1       5.577   2.735  -2.449  0.00  0.00    +0.220 C 
BRANCH  15  16
ATOM     16  C   UNL     1       6.078   2.800  -3.869  0.00  0.00    +0.365 C 
ATOM     17  O   UNL     1       5.354   2.455  -4.787  0.00  0.00    -0.246 OA
ATOM     18  O   UNL     1       7.207   3.198  -4.099  0.00  0.00    -0.246 OA
ENDBRANCH  15  16
ENDBRANCH  12  15
ENDBRANCH   3  11
TORSDOF 4
