REMARK  Name = ZINC01058469
REMARK  4 active torsions:
REMARK  status: ('A' for Active; 'I' for Inactive)
REMARK    1  A    between atoms: C_4  and  C_10
REMARK    2  A    between atoms: C_6  and  N_7
REMARK    3  A    between atoms: N_12  and  C_13
REMARK    4  A    between atoms: C_14  and  C_22
REMARK                            x       y       z     vdW  Elec       q    Type
REMARK                         _______ _______ _______ _____ _____    ______ ____
ROOT
ATOM      1  C   UNL     1      -2.276   7.222  -2.923  0.00  0.00    +0.250 C 
ATOM      2  O   UNL     1      -2.257   6.338  -3.757  0.00  0.00    -0.270 OA
ATOM      3  N   UNL     1      -1.963   6.946  -1.641  0.00  0.00    -0.275 N 
ATOM      4  H   UNL     1      -1.978   7.651  -0.976  0.00  0.00    +0.156 HD
ENDROOT
BRANCH   3   5
ATOM      5  C   UNL     1      -1.619   5.653  -1.274  0.00  0.00    +0.090 A 
ATOM      6  C   UNL     1      -1.270   5.178  -0.019  0.00  0.00    +0.084 A 
ATOM      7  C   UNL     1      -0.951   3.765   0.100  0.00  0.00    -0.018 A 
ATOM      8  C   UNL     1      -1.032   3.059  -1.049  0.00  0.00    -0.004 A 
ATOM      9  S   UNL     1      -1.523   4.240  -2.273  0.00  0.00    -0.077 S 
ATOM     10  C   UNL     1      -0.761   1.597  -1.232  0.00  0.00    +0.043 C 
ATOM     11  C   UNL     1      -0.013   1.086   0.008  0.00  0.00    +0.005 C 
ATOM     12  C   UNL     1      -0.735   1.583   1.264  0.00  0.00    +0.005 C 
ATOM     13  C   UNL     1      -0.551   3.093   1.408  0.00  0.00    +0.037 C 
BRANCH   6  14
ATOM     14  C   UNL     1      -1.226   6.047   1.118  0.00  0.00    +0.102 C 
ATOM     15  N   UNL     1      -1.190   6.736   2.020  0.00  0.00    -0.191 NA
ENDBRANCH   6  14
ENDBRANCH   3   5
BRANCH   1  19
ATOM     16  C   UNL     1      -3.326  11.181  -4.046  0.00  0.00    +0.034 A 
ATOM     17  C   UNL     1      -3.306  10.179  -4.999  0.00  0.00    +0.023 A 
ATOM     18  C   UNL     1      -2.961   8.890  -4.643  0.00  0.00    +0.053 A 
ATOM     19  C   UNL     1      -2.641   8.599  -3.314  0.00  0.00    +0.057 A 
ATOM     20  C   UNL     1      -2.664   9.616  -2.358  0.00  0.00    +0.047 A 
ATOM     21  C   UNL     1      -3.006  10.900  -2.730  0.00  0.00    +0.127 A 
ATOM     22 CL   UNL     1      -2.930   7.634  -5.841  0.00  0.00    -0.083 Cl
BRANCH  21  23
ATOM     23  N   UNL     1      -3.030  11.980  -1.718  0.00  0.00    +0.056 N 
ATOM     24  O   UNL     1      -2.748  11.734  -0.558  0.00  0.00    -0.126 OA
ATOM     25  O   UNL     1      -3.332  13.114  -2.044  0.00  0.00    -0.126 OA
ENDBRANCH  21  23
ENDBRANCH   1  19
TORSDOF 4
