REMARK  Name = ZINC36533841
REMARK  19 active torsions:
REMARK  status: ('A' for Active; 'I' for Inactive)
REMARK    1  A    between atoms: C_1  and  C_2
REMARK    2  A    between atoms: C_2  and  C_4
REMARK    3  A    between atoms: C_2  and  C_31
REMARK    4  A    between atoms: C_4  and  C_5
REMARK    5  A    between atoms: N_7  and  C_8
REMARK    6  A    between atoms: N_7  and  C_9
REMARK    7  A    between atoms: C_9  and  C_11
REMARK    8  A    between atoms: C_9  and  C_20
REMARK    9  A    between atoms: C_12  and  O_19
REMARK   10  A    between atoms: C_14  and  O_18
REMARK   11  A    between atoms: C_16  and  O_17
REMARK   12  A    between atoms: N_22  and  C_23
REMARK   13  A    between atoms: C_23  and  C_24
REMARK   14  A    between atoms: C_23  and  C_25
REMARK   15  A    between atoms: C_23  and  C_26
REMARK   16  A    between atoms: C_26  and  C_27
REMARK   17  A    between atoms: C_27  and  C_28
REMARK   18  A    between atoms: C_27  and  C_29
REMARK   19  A    between atoms: C_27  and  C_30
REMARK                            x       y       z     vdW  Elec       q    Type
REMARK                         _______ _______ _______ _____ _____    ______ ____
ROOT
ATOM      1  C   UNL     1       5.040   0.581   0.849  0.00  0.00    +0.199 C 
ENDROOT
BRANCH   1   2
ATOM      2  C   UNL     1       4.546   1.121   2.167  0.00  0.00    +0.065 A 
ATOM      3  C   UNL     1       5.162   0.736   3.348  0.00  0.00    +0.129 A 
ATOM      4  C   UNL     1       4.707   1.233   4.561  0.00  0.00    +0.091 A 
ATOM      5  C   UNL     1       3.637   2.114   4.591  0.00  0.00    +0.124 A 
ATOM      6  C   UNL     1       3.022   2.500   3.410  0.00  0.00    +0.091 A 
ATOM      7  C   UNL     1       3.479   2.007   2.197  0.00  0.00    +0.129 A 
BRANCH   7   8
ATOM      8  O   UNL     1       2.880   2.388   1.039  0.00  0.00    -0.506 OA
ATOM      9  H   UNL     1       2.145   1.820   0.771  0.00  0.00    +0.292 HD
ENDBRANCH   7   8
BRANCH   5  10
ATOM     10  O   UNL     1       3.191   2.600   5.779  0.00  0.00    -0.507 OA
ATOM     11  H   UNL     1       3.620   3.421   6.055  0.00  0.00    +0.292 HD
ENDBRANCH   5  10
BRANCH   3  12
ATOM     12  O   UNL     1       6.210  -0.128   3.318  0.00  0.00    -0.506 OA
ATOM     13  H   UNL     1       7.072   0.302   3.229  0.00  0.00    +0.292 HD
ENDBRANCH   3  12
ENDBRANCH   1   2
BRANCH   1  16
ATOM     14  C   UNL     1       3.743   0.629  -1.213  0.00  0.00    +0.217 C 
ATOM     15  O   UNL     1       4.548   1.414  -1.667  0.00  0.00    -0.276 OA
ATOM     16  N   UNL     1       3.898   0.152   0.038  0.00  0.00    -0.289 N 
ATOM     17  C   UNL     1       2.926  -0.796   0.587  0.00  0.00    +0.133 C 
BRANCH  14  18
ATOM     18  C   UNL     1       2.568   0.188  -2.047  0.00  0.00    +0.104 C 
BRANCH  18  20
ATOM     19  C   UNL     1       2.453   2.381  -3.237  0.00  0.00    +0.013 C 
ATOM     20  C   UNL     1       2.627   0.872  -3.414  0.00  0.00    +0.025 C 
BRANCH  20  21
ATOM     21  C   UNL     1       1.524   0.338  -4.291  0.00  0.00    -0.044 A 
ATOM     22  C   UNL     1       0.204   0.484  -3.907  0.00  0.00    +0.004 A 
ATOM     23  C   UNL     1      -0.808  -0.005  -4.712  0.00  0.00    +0.000 A 
ATOM     24  C   UNL     1      -0.500  -0.640  -5.901  0.00  0.00    +0.000 A 
ATOM     25  C   UNL     1       0.820  -0.785  -6.285  0.00  0.00    +0.000 A 
ATOM     26  C   UNL     1       1.832  -0.291  -5.483  0.00  0.00    +0.004 A 
ENDBRANCH  20  21
ENDBRANCH  18  20
ENDBRANCH  14  18
ENDBRANCH   1  16
BRANCH   1  27
ATOM     27  C   UNL     1       5.950  -0.594   1.097  0.00  0.00    +0.239 C 
ATOM     28  O   UNL     1       5.490  -1.714   1.167  0.00  0.00    -0.273 OA
ATOM     29  N   UNL     1       7.277  -0.401   1.241  0.00  0.00    -0.308 N 
ATOM     30  H   UNL     1       7.639   0.499   1.232  0.00  0.00    +0.149 HD
BRANCH  29  31
ATOM     31  C   UNL     1       8.170  -1.549   1.412  0.00  0.00    +0.030 C 
ATOM     32  C   UNL     1       7.906  -2.204   2.769  0.00  0.00    +0.031 C 
ATOM     33  C   UNL     1       7.913  -2.565   0.297  0.00  0.00    +0.031 C 
BRANCH  31  34
ATOM     34  C   UNL     1       9.624  -1.078   1.347  0.00  0.00    +0.031 C 
BRANCH  34  35
ATOM     35  C   UNL     1       9.787  -0.084   0.196  0.00  0.00    -0.036 C 
ATOM     36  C   UNL     1       9.458   1.327   0.689  0.00  0.00    +0.010 C 
ATOM     37  C   UNL     1      11.230  -0.122  -0.311  0.00  0.00    +0.010 C 
ATOM     38  C   UNL     1       8.837  -0.461  -0.943  0.00  0.00    +0.010 C 
ENDBRANCH  34  35
ENDBRANCH  31  34
ENDBRANCH  29  31
ENDBRANCH   1  27
TORSDOF 12
