REMARK  Name = ZINC22472995
REMARK  9 active torsions:
REMARK  status: ('A' for Active; 'I' for Inactive)
REMARK    1  A    between atoms: C_1  and  N_2
REMARK    2  A    between atoms: N_2  and  C_3
REMARK    3  A    between atoms: C_3  and  C_4
REMARK    4  A    between atoms: C_4  and  C_5
REMARK    5  A    between atoms: C_5  and  N_6
REMARK    6  A    between atoms: C_9  and  O_10
REMARK    7  A    between atoms: C_18  and  C_20
REMARK    8  A    between atoms: C_20  and  S_21
REMARK    9  A    between atoms: S_21  and  C_22
REMARK                            x       y       z     vdW  Elec       q    Type
REMARK                         _______ _______ _______ _____ _____    ______ ____
ROOT
ATOM      1  C   UNL     1       4.440   8.342   1.446  0.00  0.00    +0.040 C 
ENDROOT
BRANCH   1   2
ATOM      2  C   UNL     1       4.383   7.842   0.001  0.00  0.00    +0.109 C 
BRANCH   2   4
ATOM      3  C   UNL     1       5.462   5.545  -0.021  0.00  0.00    +0.132 C 
ATOM      4  N   UNL     1       4.260   6.382  -0.005  0.00  0.00    -0.304 N 
ATOM      5  C   UNL     1       3.040   5.809   0.003  0.00  0.00    +0.226 C 
ATOM      6  O   UNL     1       2.045   6.501   0.016  0.00  0.00    -0.275 OA
BRANCH   5   7
ATOM      7  C   UNL     1       2.913   4.307  -0.003  0.00  0.00    +0.170 C 
BRANCH   7   8
ATOM      8  S   UNL     1       1.158   3.848   0.011  0.00  0.00    -0.116 S 
BRANCH   8   9
ATOM      9  C   UNL     1       1.178   2.086   0.002  0.00  0.00    +0.008 A 
ATOM     10  C   UNL     1      -0.017   1.377   0.010  0.00  0.00    +0.016 A 
ATOM     11  C   UNL     1       0.002  -0.004   0.002  0.00  0.00    +0.021 A 
ATOM     12  C   UNL     1       1.209  -0.681  -0.013  0.00  0.00    +0.041 A 
ATOM     13  C   UNL     1       2.401   0.023  -0.020  0.00  0.00    +0.021 A 
ATOM     14  C   UNL     1       2.388   1.404  -0.013  0.00  0.00    +0.016 A 
ATOM     15 CL   UNL     1       1.228  -2.417  -0.021  0.00  0.00    -0.084 Cl
ENDBRANCH   8   9
ENDBRANCH   7   8
ENDBRANCH   5   7
ENDBRANCH   2   4
ENDBRANCH   1   2
BRANCH   1  16
ATOM     16  C   UNL     1       4.568   9.867   1.452  0.00  0.00    +0.114 C 
BRANCH  16  17
ATOM     17  N   UNL     1       4.622  10.347   2.835  0.00  0.00    -0.384 N 
ATOM     18  C   UNL     1       4.739  11.695   3.093  0.00  0.00    +0.053 A 
ATOM     19  C   UNL     1       4.806  12.606   2.071  0.00  0.00    +0.113 A 
ATOM     20  C   UNL     1       4.924  13.971   2.364  0.00  0.00    +0.286 A 
ATOM     21  O   UNL     1       4.975  14.423   3.627  0.00  0.00    -0.425 OA
ATOM     22  C   UNL     1       4.914  13.584   4.685  0.00  0.00    +0.141 A 
ATOM     23  C   UNL     1       4.789  12.202   4.474  0.00  0.00    +0.041 A 
ATOM     24  C   UNL     1       4.720  11.333   5.564  0.00  0.00    +0.013 A 
ATOM     25  C   UNL     1       4.769  11.840   6.844  0.00  0.00    +0.001 A 
ATOM     26  C   UNL     1       4.886  13.206   7.051  0.00  0.00    +0.004 A 
ATOM     27  C   UNL     1       4.968  14.075   5.983  0.00  0.00    +0.047 A 
ATOM     28  H   UNL     1       4.570   9.630   3.668  0.00  0.00    +0.160 HD
BRANCH  20  29
ATOM     29  O   UNL     1       4.982  14.771   1.446  0.00  0.00    -0.480 OA
ATOM     30  H   UNL     1       5.075  15.846   1.659  0.00  0.00    +0.295 HD
ENDBRANCH  20  29
ENDBRANCH  16  17
ENDBRANCH   1  16
TORSDOF 8
