REMARK  Name = ZINC37360801
REMARK  7 active torsions:
REMARK  status: ('A' for Active; 'I' for Inactive)
REMARK    1  A    between atoms: C_1  and  O_2
REMARK    2  A    between atoms: O_2  and  C_3
REMARK    3  A    between atoms: C_6  and  N_9
REMARK    4  A    between atoms: C_10  and  N_34
REMARK    5  A    between atoms: C_12  and  C_26
REMARK    6  A    between atoms: N_18  and  C_19
REMARK    7  A    between atoms: C_19  and  C_20
REMARK                            x       y       z     vdW  Elec       q    Type
REMARK                         _______ _______ _______ _____ _____    ______ ____
ROOT
ATOM      1  N   UNL     1      -5.055  -2.406  -0.325  0.00  0.00    -0.216 N 
ATOM      2  C   UNL     1      -5.305  -3.605  -0.885  0.00  0.00    +0.131 A 
ATOM      3  C   UNL     1      -6.581  -3.991  -0.495  0.00  0.00    +0.086 A 
ATOM      4  C   UNL     1      -7.417  -5.106  -0.728  0.00  0.00    +0.091 A 
ATOM      5  N   UNL     1      -8.618  -5.121  -0.163  0.00  0.00    -0.214 NA
ATOM      6  C   UNL     1      -9.050  -4.127   0.607  0.00  0.00    +0.218 A 
ATOM      7  N   UNL     1      -8.337  -3.052   0.876  0.00  0.00    -0.193 NA
ATOM      8  C   UNL     1      -7.099  -2.911   0.365  0.00  0.00    +0.189 A 
ATOM      9  N   UNL     1      -6.155  -1.998   0.439  0.00  0.00    -0.144 NA
ATOM     10  N   UNL     1     -10.316  -4.226   1.154  0.00  0.00    -0.309 N 
ATOM     11  H   UNL     1     -10.863  -5.006   0.973  0.00  0.00    +0.149 HD
ENDROOT
BRANCH   4  12
ATOM     12  C   UNL     1      -6.966  -6.228  -1.580  0.00  0.00    +0.039 A 
ATOM     13  C   UNL     1      -5.806  -6.934  -1.254  0.00  0.00    +0.013 A 
ATOM     14  C   UNL     1      -5.389  -7.978  -2.052  0.00  0.00    +0.004 A 
ATOM     15  C   UNL     1      -6.117  -8.331  -3.175  0.00  0.00    +0.041 A 
ATOM     16  C   UNL     1      -7.268  -7.638  -3.507  0.00  0.00    +0.159 A 
ATOM     17  C   UNL     1      -7.701  -6.590  -2.711  0.00  0.00    +0.168 A 
ATOM     18  F   UNL     1      -8.828  -5.917  -3.031  0.00  0.00    -0.202 F 
ATOM     19  F   UNL     1      -7.973  -7.987  -4.606  0.00  0.00    -0.202 F 
ENDBRANCH   4  12
BRANCH   1  23
ATOM     20  C   UNL     1      -1.522  -0.238  -0.781  0.00  0.00    +0.120 A 
ATOM     21  C   UNL     1      -2.735   0.427  -0.677  0.00  0.00    +0.048 A 
ATOM     22  C   UNL     1      -3.905  -0.290  -0.526  0.00  0.00    +0.031 A 
ATOM     23  C   UNL     1      -3.868  -1.677  -0.478  0.00  0.00    +0.068 A 
ATOM     24  C   UNL     1      -2.653  -2.342  -0.582  0.00  0.00    +0.031 A 
ATOM     25  C   UNL     1      -1.484  -1.624  -0.739  0.00  0.00    +0.048 A 
BRANCH  20  27
ATOM     26  C   UNL     1      -0.483   1.893  -0.965  0.00  0.00    +0.277 C 
ATOM     27  O   UNL     1      -0.370   0.469  -0.929  0.00  0.00    -0.495 OA
ENDBRANCH  20  27
ENDBRANCH   1  23
BRANCH   2  28
ATOM     28  N   UNL     1      -4.448  -4.321  -1.700  0.00  0.00    -0.342 N 
ATOM     29  H   UNL     1      -3.610  -3.926  -1.989  0.00  0.00    +0.144 HD
ATOM     30  H   UNL     1      -4.684  -5.218  -1.984  0.00  0.00    +0.144 HD
ENDBRANCH   2  28
BRANCH  10  31
ATOM     31  C   UNL     1     -10.831  -3.153   2.008  0.00  0.00    +0.141 C 
BRANCH  31  32
ATOM     32  C   UNL     1     -12.221  -3.503   2.472  0.00  0.00    -0.012 A 
ATOM     33  C   UNL     1     -13.327  -3.127   1.725  0.00  0.00    +0.008 A 
ATOM     34  C   UNL     1     -14.586  -3.471   2.190  0.00  0.00    +0.020 A 
ATOM     35  C   UNL     1     -14.698  -4.173   3.376  0.00  0.00    +0.111 A 
ATOM     36  N   UNL     1     -13.624  -4.514   4.061  0.00  0.00    -0.263 NA
ATOM     37  C   UNL     1     -12.410  -4.209   3.645  0.00  0.00    +0.115 A 
ENDBRANCH  31  32
ENDBRANCH  10  31
TORSDOF 6
