REMARK  Name = ZINC04536763
REMARK  7 active torsions:
REMARK  status: ('A' for Active; 'I' for Inactive)
REMARK    1  A    between atoms: C_1  and  C_2
REMARK    2  A    between atoms: C_3  and  C_8
REMARK    3  A    between atoms: C_4  and  C_7
REMARK    4  A    between atoms: C_8  and  S_9
REMARK    5  A    between atoms: S_9  and  C_10
REMARK    6  A    between atoms: C_13  and  C_16
REMARK    7  A    between atoms: N_14  and  N_15
REMARK                            x       y       z     vdW  Elec       q    Type
REMARK                         _______ _______ _______ _____ _____    ______ ____
ROOT
ATOM      1  C   UNL     1       2.172   6.906  -0.144  0.00  0.00    +0.209 A 
ATOM      2  N   UNL     1       0.953   7.247   0.208  0.00  0.00    -0.121 NA
ATOM      3  N   UNL     1       0.212   6.201   0.304  0.00  0.00    -0.126 NA
ATOM      4  C   UNL     1       0.914   5.126   0.019  0.00  0.00    +0.188 A 
ATOM      5  N   UNL     1       2.193   5.545  -0.272  0.00  0.00    -0.223 N 
ENDROOT
BRANCH   4   6
ATOM      6  C   UNL     1       0.426   3.737   0.017  0.00  0.00    +0.058 A 
ATOM      7  C   UNL     1      -0.866   3.275   0.026  0.00  0.00    +0.019 A 
ATOM      8  C   UNL     1      -1.081   1.915   0.017  0.00  0.00    +0.008 A 
ATOM      9  C   UNL     1      -0.013   1.076   0.008  0.00  0.00    +0.046 A 
ATOM     10  S   UNL     1       1.361   2.216   0.001  0.00  0.00    -0.093 S 
ENDBRANCH   4   6
BRANCH   5  11
ATOM     11  N   UNL     1       3.259   4.764  -0.618  0.00  0.00    -0.295 N 
ATOM     12  H   UNL     1       3.308   4.641  -1.618  0.00  0.00    +0.163 HD
ATOM     13  H   UNL     1       4.120   5.149  -0.259  0.00  0.00    +0.163 HD
ENDBRANCH   5  11
BRANCH   1  14
ATOM     14  S   UNL     1       3.530   8.000  -0.397  0.00  0.00    -0.080 S 
BRANCH  14  15
ATOM     15  C   UNL     1       2.730   9.583  -0.038  0.00  0.00    +0.118 C 
BRANCH  15  18
ATOM     16  C   UNL     1       4.685  10.827   2.233  0.00  0.00    +0.069 C 
ATOM     17  C   UNL     1       4.585  11.247   0.789  0.00  0.00    +0.085 A 
ATOM     18  C   UNL     1       3.730  10.699  -0.195  0.00  0.00    +0.027 A 
ATOM     19  C   UNL     1       4.014  11.414  -1.310  0.00  0.00    +0.138 A 
ATOM     20  O   UNL     1       4.966  12.293  -0.966  0.00  0.00    -0.359 OA
ATOM     21  N   UNL     1       5.271  12.183   0.199  0.00  0.00    -0.083 NA
ATOM     22  C   UNL     1       3.385  11.253  -2.670  0.00  0.00    +0.089 C 
ENDBRANCH  15  18
ENDBRANCH  14  15
ENDBRANCH   1  14
TORSDOF 5
