REMARK  Name = ZINC39738588
REMARK  5 active torsions:
REMARK  status: ('A' for Active; 'I' for Inactive)
REMARK    1  A    between atoms: C_1  and  S_2
REMARK    2  A    between atoms: S_2  and  C_5
REMARK    3  A    between atoms: N_14  and  C_15
REMARK    4  A    between atoms: C_15  and  C_16
REMARK    5  A    between atoms: C_16  and  C_18
REMARK                            x       y       z     vdW  Elec       q    Type
REMARK                         _______ _______ _______ _____ _____    ______ ____
ROOT
ATOM      1  C   UNL     1       0.877  -0.385  -1.541  0.00  0.00    +0.306 C 
ATOM      2  N   UNL     1       0.181   0.222  -2.681  0.00  0.00    -0.307 N 
ATOM      3  C   UNL     1       1.071   1.121  -3.285  0.00  0.00    +0.051 A 
ATOM      4  C   UNL     1       0.910   1.945  -4.392  0.00  0.00    +0.025 A 
ATOM      5  C   UNL     1       1.946   2.759  -4.808  0.00  0.00    +0.002 A 
ATOM      6  C   UNL     1       3.148   2.756  -4.125  0.00  0.00    +0.002 A 
ATOM      7  C   UNL     1       3.318   1.940  -3.023  0.00  0.00    +0.025 A 
ATOM      8  C   UNL     1       2.281   1.118  -2.597  0.00  0.00    +0.054 A 
ATOM      9  N   UNL     1       2.217   0.215  -1.524  0.00  0.00    -0.285 N 
ATOM     10  H   UNL     1      -0.728   0.035  -2.965  0.00  0.00    +0.149 HD
ENDROOT
BRANCH   1  12
ATOM     11  C   UNL     1      -0.022   1.810   0.012  0.00  0.00    +0.198 C 
ATOM     12  S   UNL     1       0.002  -0.004   0.002  0.00  0.00    +0.002 S 
ATOM     13  O   UNL     1       0.798  -0.449   1.092  0.00  0.00    -0.171 OA
ATOM     14  O   UNL     1      -1.335  -0.471  -0.113  0.00  0.00    -0.171 OA
ENDBRANCH   1  12
BRANCH   9  15
ATOM     15  C   UNL     1       3.286  -0.074  -0.565  0.00  0.00    +0.187 C 
BRANCH  15  16
ATOM     16  C   UNL     1       4.128  -1.212  -1.080  0.00  0.00    +0.179 C 
ATOM     17  O   UNL     1       3.862  -1.732  -2.145  0.00  0.00    -0.291 OA
BRANCH  16  18
ATOM     18  C   UNL     1       5.227  -1.675  -0.325  0.00  0.00    +0.025 C 
ATOM     19  C   UNL     1       6.098  -2.698  -0.655  0.00  0.00    +0.006 A 
ATOM     20  C   UNL     1       6.184  -3.566  -1.769  0.00  0.00    +0.010 A 
ATOM     21  C   UNL     1       7.162  -4.497  -1.832  0.00  0.00    +0.001 A 
ATOM     22  C   UNL     1       8.122  -4.652  -0.820  0.00  0.00    +0.002 A 
ATOM     23  C   UNL     1       8.128  -3.875   0.285  0.00  0.00    +0.026 A 
ATOM     24  C   UNL     1       7.097  -2.834   0.433  0.00  0.00    +0.043 A 
ATOM     25  N   UNL     1       6.870  -1.962   1.373  0.00  0.00    -0.380 N 
ATOM     26  C   UNL     1       5.704  -1.151   1.012  0.00  0.00    +0.152 C 
ATOM     27  H   UNL     1       7.393  -1.863   2.184  0.00  0.00    +0.160 HD
ENDBRANCH  16  18
ENDBRANCH  15  16
ENDBRANCH   9  15
TORSDOF 4
