REMARK  Name = ZINC32948224
REMARK  11 active torsions:
REMARK  status: ('A' for Active; 'I' for Inactive)
REMARK    1  A    between atoms: C_1  and  C_2
REMARK    2  A    between atoms: C_2  and  C_3
REMARK    3  A    between atoms: C_3  and  C_5
REMARK    4  A    between atoms: C_3  and  C_6
REMARK    5  A    between atoms: C_9  and  C_12
REMARK    6  A    between atoms: C_12  and  C_14
REMARK    7  A    between atoms: C_12  and  N_19
REMARK    8  A    between atoms: C_20  and  C_22
REMARK    9  A    between atoms: C_22  and  C_23
REMARK   10  A    between atoms: C_26  and  S_28
REMARK   11  A    between atoms: S_28  and  N_31
REMARK                            x       y       z     vdW  Elec       q    Type
REMARK                         _______ _______ _______ _____ _____    ______ ____
ROOT
ATOM      1  C   UNL     1      -2.514   0.980   0.019  0.00  0.00    +0.140 C 
ENDROOT
BRANCH   1   5
ATOM      2  C   UNL     1       1.156   3.165   0.008  0.00  0.00    -0.045 A 
ATOM      3  C   UNL     1       1.175   1.783   0.000  0.00  0.00    +0.004 A 
ATOM      4  C   UNL     1      -0.013   1.076   0.008  0.00  0.00    +0.006 A 
ATOM      5  C   UNL     1      -1.219   1.751   0.017  0.00  0.00    -0.022 A 
ATOM      6  C   UNL     1      -1.238   3.133   0.029  0.00  0.00    +0.006 A 
ATOM      7  C   UNL     1      -0.050   3.840   0.022  0.00  0.00    +0.004 A 
BRANCH   2   8
ATOM      8  C   UNL     1       2.451   3.937   0.000  0.00  0.00    +0.016 C 
ATOM      9  C   UNL     1       2.532   4.811   1.254  0.00  0.00    +0.012 C 
BRANCH   8  11
ATOM     10  C   UNL     1       3.873   5.512  -1.318  0.00  0.00    +0.004 C 
ATOM     11  C   UNL     1       2.509   4.824  -1.245  0.00  0.00    +0.004 C 
ENDBRANCH   8  11
ENDBRANCH   2   8
ENDBRANCH   1   5
BRANCH   1  12
ATOM     12  C   UNL     1      -3.078   0.942  -1.377  0.00  0.00    +0.014 A 
ATOM     13  C   UNL     1      -3.019  -0.053  -2.296  0.00  0.00    +0.013 A 
ATOM     14  C   UNL     1      -3.616   0.135  -3.528  0.00  0.00    +0.008 A 
ATOM     15  C   UNL     1      -4.243   1.310  -3.782  0.00  0.00    +0.045 A 
ATOM     16  S   UNL     1      -4.006   2.194  -2.249  0.00  0.00    -0.099 S 
ENDBRANCH   1  12
BRANCH   1  17
ATOM     17  N   UNL     1      -3.470   1.634   0.915  0.00  0.00    -0.304 N 
ATOM     18  C   UNL     1      -4.466   0.919   1.476  0.00  0.00    +0.219 C 
ATOM     19  O   UNL     1      -4.570  -0.266   1.238  0.00  0.00    -0.275 OA
ATOM     20  H   UNL     1      -3.376   2.708   1.131  0.00  0.00    +0.150 HD
BRANCH  18  21
ATOM     21  C   UNL     1      -5.450   1.592   2.397  0.00  0.00    +0.138 C 
BRANCH  21  22
ATOM     22  C   UNL     1      -6.455   0.580   2.885  0.00  0.00    +0.000 A 
ATOM     23  C   UNL     1      -6.404  -0.212   3.984  0.00  0.00    +0.013 A 
ATOM     24  C   UNL     1      -7.453  -1.076   4.237  0.00  0.00    +0.036 A 
ATOM     25  C   UNL     1      -8.502  -1.104   3.379  0.00  0.00    +0.142 A 
ATOM     26  S   UNL     1      -8.025   0.120   2.170  0.00  0.00    -0.073 S 
BRANCH  25  27
ATOM     27  S   UNL     1      -9.962  -2.090   3.444  0.00  0.00    +0.062 S 
ATOM     28  O   UNL     1     -10.451  -2.178   2.113  0.00  0.00    -0.153 OA
ATOM     29  O   UNL     1      -9.642  -3.239   4.216  0.00  0.00    -0.153 OA
BRANCH  27  30
ATOM     30  N   UNL     1     -11.089  -1.238   4.307  0.00  0.00    -0.203 NA
ATOM     31  H   UNL     1     -12.020  -1.821   4.371  0.00  0.00    +0.144 HD
ATOM     32  H   UNL     1     -11.290  -0.281   3.804  0.00  0.00    +0.144 HD
ENDBRANCH  27  30
ENDBRANCH  25  27
ENDBRANCH  21  22
ENDBRANCH  18  21
ENDBRANCH   1  17
TORSDOF 9
