REMARK  Name = ZINC12715641
REMARK  9 active torsions:
REMARK  status: ('A' for Active; 'I' for Inactive)
REMARK    1  A    between atoms: C_3  and  C_6
REMARK    2  A    between atoms: C_6  and  N_7
REMARK    3  A    between atoms: N_7  and  C_8
REMARK    4  A    between atoms: C_8  and  C_10
REMARK    5  A    between atoms: C_8  and  C_17
REMARK    6  A    between atoms: N_19  and  C_20
REMARK    7  A    between atoms: C_26  and  C_28
REMARK    8  A    between atoms: C_29  and  N_36
REMARK    9  A    between atoms: C_30  and  C_33
REMARK                            x       y       z     vdW  Elec       q    Type
REMARK                         _______ _______ _______ _____ _____    ______ ____
ROOT
ATOM      1  N   UNL     1      -1.143   1.163  -1.420  0.00  0.00    -0.277 N 
ATOM      2  C   UNL     1      -1.053  -0.018  -2.062  0.00  0.00    +0.258 C 
ATOM      3  O   UNL     1      -0.696  -0.054  -3.225  0.00  0.00    -0.269 OA
ENDROOT
BRANCH   2   4
ATOM      4  C   UNL     1      -1.385  -1.260  -1.360  0.00  0.00    +0.115 A 
ATOM      5  C   UNL     1      -1.582  -2.542  -1.875  0.00  0.00    +0.076 A 
ATOM      6  C   UNL     1      -1.882  -3.476  -0.883  0.00  0.00    +0.155 A 
ATOM      7  N   UNL     1      -1.959  -3.082   0.369  0.00  0.00    -0.203 NA
ATOM      8  S   UNL     1      -1.654  -1.536   0.379  0.00  0.00    +0.019 S 
BRANCH   6   9
ATOM      9  C   UNL     1      -2.118  -4.888  -1.236  0.00  0.00    +0.262 C 
ATOM     10  O   UNL     1      -2.046  -5.245  -2.396  0.00  0.00    -0.269 OA
ATOM     11  N   UNL     1      -2.413  -5.783  -0.273  0.00  0.00    -0.324 N 
ATOM     12  H   UNL     1      -2.471  -5.498   0.653  0.00  0.00    +0.145 HD
ATOM     13  H   UNL     1      -2.568  -6.712  -0.505  0.00  0.00    +0.145 HD
ENDBRANCH   6   9
BRANCH   5  14
ATOM     14  N   UNL     1      -1.486  -2.854  -3.224  0.00  0.00    -0.355 N 
ATOM     15  H   UNL     1      -1.271  -2.162  -3.868  0.00  0.00    +0.142 HD
ATOM     16  H   UNL     1      -1.633  -3.765  -3.523  0.00  0.00    +0.142 HD
ENDBRANCH   5  14
ENDBRANCH   2   4
BRANCH   1  17
ATOM     17  C   UNL     1      -1.777   1.234  -0.101  0.00  0.00    +0.151 C 
BRANCH  17  20
ATOM     18  C   UNL     1      -5.483   0.498  -0.582  0.00  0.00    +0.008 A 
ATOM     19  C   UNL     1      -4.133   0.233  -0.459  0.00  0.00    +0.013 A 
ATOM     20  C   UNL     1      -3.275   1.264  -0.264  0.00  0.00    +0.007 A 
ATOM     21  S   UNL     1      -4.381   2.665  -0.243  0.00  0.00    -0.100 S 
ATOM     22  C   UNL     1      -5.910   1.782  -0.504  0.00  0.00    +0.045 A 
ENDBRANCH  17  20
ENDBRANCH   1  17
BRANCH   1  23
ATOM     23  C   UNL     1      -0.608   2.377  -2.042  0.00  0.00    +0.193 C 
BRANCH  23  24
ATOM     24  C   UNL     1       0.846   2.530  -1.675  0.00  0.00    -0.018 A 
ATOM     25  C   UNL     1       1.261   2.281  -0.380  0.00  0.00    +0.009 A 
ATOM     26  C   UNL     1       2.595   2.416  -0.044  0.00  0.00    +0.038 A 
ATOM     27  C   UNL     1       3.513   2.811  -1.001  0.00  0.00    +0.123 A 
ATOM     28  C   UNL     1       3.095   3.065  -2.297  0.00  0.00    +0.038 A 
ATOM     29  C   UNL     1       1.762   2.924  -2.632  0.00  0.00    +0.009 A 
ATOM     30  F   UNL     1       4.817   2.948  -0.672  0.00  0.00    -0.205 F 
ENDBRANCH  23  24
BRANCH  23  31
ATOM     31  C   UNL     1      -1.378   3.575  -1.551  0.00  0.00    +0.238 C 
ATOM     32  O   UNL     1      -2.100   3.476  -0.581  0.00  0.00    -0.273 OA
ATOM     33  N   UNL     1      -1.266   4.757  -2.189  0.00  0.00    -0.311 N 
ATOM     34  H   UNL     1      -0.689   4.836  -2.964  0.00  0.00    +0.149 HD
BRANCH  33  35
ATOM     35  C   UNL     1      -2.015   5.922  -1.711  0.00  0.00    +0.073 C 
ATOM     36  C   UNL     1      -3.424   5.901  -2.307  0.00  0.00    +0.022 C 
ATOM     37  C   UNL     1      -4.206   7.118  -1.808  0.00  0.00    +0.002 C 
ATOM     38  C   UNL     1      -3.489   8.398  -2.240  0.00  0.00    +0.000 C 
ATOM     39  C   UNL     1      -2.080   8.419  -1.645  0.00  0.00    +0.002 C 
ATOM     40  C   UNL     1      -1.297   7.202  -2.143  0.00  0.00    +0.022 C 
ENDBRANCH  33  35
ENDBRANCH  23  31
ENDBRANCH   1  23
TORSDOF 9
