REMARK  Name = ZINC14957694
REMARK  7 active torsions:
REMARK  status: ('A' for Active; 'I' for Inactive)
REMARK    1  A    between atoms: C_6  and  C_7
REMARK    2  A    between atoms: C_8  and  C_9
REMARK    3  A    between atoms: C_11  and  N_15
REMARK    4  A    between atoms: C_16  and  C_18
REMARK    5  A    between atoms: C_18  and  C_20
REMARK    6  A    between atoms: C_18  and  N_27
REMARK    7  A    between atoms: C_20  and  C_21
REMARK                            x       y       z     vdW  Elec       q    Type
REMARK                         _______ _______ _______ _____ _____    ______ ____
ROOT
ATOM      1  N   UNL     1      -3.671  -6.378   0.016  0.00  0.00    -0.286 N 
ATOM      2  C   UNL     1      -2.621  -7.071   0.500  0.00  0.00    +0.203 C 
ATOM      3  O   UNL     1      -1.695  -6.485   1.019  0.00  0.00    -0.277 OA
ATOM      4  H   UNL     1      -4.445  -6.849  -0.330  0.00  0.00    +0.155 HD
ENDROOT
BRANCH   1   7
ATOM      5  C   UNL     1      -2.471  -2.898  -0.159  0.00  0.00    -0.005 A 
ATOM      6  C   UNL     1      -2.445  -4.298  -0.163  0.00  0.00    +0.034 A 
ATOM      7  C   UNL     1      -3.644  -4.978   0.013  0.00  0.00    +0.052 A 
ATOM      8  C   UNL     1      -4.816  -4.251   0.184  0.00  0.00    +0.134 A 
ATOM      9  N   UNL     1      -4.805  -2.933   0.182  0.00  0.00    -0.261 NA
ATOM     10  C   UNL     1      -3.693  -2.246   0.026  0.00  0.00    +0.118 A 
BRANCH   5  12
ATOM     11  C   UNL     1      -1.266  -0.783  -0.328  0.00  0.00    +0.008 C 
ATOM     12  C   UNL     1      -1.229  -2.125  -0.340  0.00  0.00    +0.010 C 
BRANCH  11  18
ATOM     13  C   UNL     1      -0.040   1.391  -0.501  0.00  0.00    +0.027 A 
ATOM     14  C   UNL     1       1.146   2.073  -0.673  0.00  0.00    +0.111 A 
ATOM     15  N   UNL     1       2.283   1.425  -0.845  0.00  0.00    -0.263 NA
ATOM     16  C   UNL     1       2.343   0.106  -0.860  0.00  0.00    +0.111 A 
ATOM     17  C   UNL     1       1.206  -0.656  -0.695  0.00  0.00    +0.027 A 
ATOM     18  C   UNL     1      -0.024  -0.011  -0.509  0.00  0.00    -0.022 A 
ENDBRANCH  11  18
ENDBRANCH   5  12
ENDBRANCH   1   7
BRANCH   2  19
ATOM     19  C   UNL     1      -2.598  -8.574   0.395  0.00  0.00    +0.019 C 
BRANCH  19  20
ATOM     20  N   UNL     1      -1.216  -9.053   0.532  0.00  0.00    +0.386 N 
ATOM     21  H   UNL     1      -0.648  -8.656  -0.201  0.00  0.00    -0.089 HD
ATOM     22  H   UNL     1      -0.851  -8.773   1.430  0.00  0.00    -0.089 HD
ATOM     23  H   UNL     1      -1.201 -10.060   0.462  0.00  0.00    -0.089 HD
ENDBRANCH  19  20
BRANCH  19  24
ATOM     24  C   UNL     1      -3.459  -9.176   1.507  0.00  0.00    +0.050 C 
BRANCH  24  25
ATOM     25  C   UNL     1      -3.537 -10.671   1.330  0.00  0.00    +0.058 A 
ATOM     26  C   UNL     1      -3.218 -11.595   2.256  0.00  0.00    +0.107 A 
ATOM     27  N   UNL     1      -3.433 -12.819   1.684  0.00  0.00    -0.351 N 
ATOM     28  C   UNL     1      -3.876 -12.601   0.427  0.00  0.00    +0.196 A 
ATOM     29  N   UNL     1      -3.940 -11.313   0.224  0.00  0.00    -0.241 NA
ATOM     30  H   UNL     1      -3.293 -13.683   2.103  0.00  0.00    +0.166 HD
ENDBRANCH  24  25
ENDBRANCH  19  24
ENDBRANCH   2  19
TORSDOF 7
