REMARK  Name = ZINC12908034
REMARK  9 active torsions:
REMARK  status: ('A' for Active; 'I' for Inactive)
REMARK    1  A    between atoms: C_1  and  C_2
REMARK    2  A    between atoms: C_5  and  C_8
REMARK    3  A    between atoms: C_8  and  N_9
REMARK    4  A    between atoms: N_14  and  C_15
REMARK    5  A    between atoms: C_15  and  C_17
REMARK    6  A    between atoms: C_17  and  N_18
REMARK    7  A    between atoms: C_19  and  C_21
REMARK    8  A    between atoms: C_21  and  N_22
REMARK    9  A    between atoms: C_23  and  C_25
REMARK                            x       y       z     vdW  Elec       q    Type
REMARK                         _______ _______ _______ _____ _____    ______ ____
ROOT
ATOM      1  C   UNL     1      -1.295   2.059   0.019  0.00  0.00    +0.202 C 
ENDROOT
BRANCH   1   2
ATOM      2  N   UNL     1      -0.016   1.344   0.009  0.00  0.00    -0.305 N 
ATOM      3  C   UNL     1       0.002  -0.004   0.002  0.00  0.00    +0.231 C 
ATOM      4  O   UNL     1      -1.040  -0.625   0.009  0.00  0.00    -0.274 OA
ATOM      5  H   UNL     1       0.817   1.840   0.004  0.00  0.00    +0.149 HD
BRANCH   3   6
ATOM      6  C   UNL     1       1.317  -0.740  -0.015  0.00  0.00    +0.200 C 
BRANCH   6   7
ATOM      7  N   UNL     1       1.069  -2.183  -0.020  0.00  0.00    -0.303 N 
ATOM      8  C   UNL     1       2.105  -3.045  -0.034  0.00  0.00    +0.246 C 
ATOM      9  O   UNL     1       3.246  -2.624  -0.043  0.00  0.00    -0.270 OA
ATOM     10  H   UNL     1       0.159  -2.519  -0.013  0.00  0.00    +0.150 HD
BRANCH   8  11
ATOM     11  C   UNL     1       1.855  -4.501  -0.040  0.00  0.00    +0.055 A 
ATOM     12  C   UNL     1       0.546  -4.988  -0.030  0.00  0.00    +0.016 A 
ATOM     13  C   UNL     1       0.319  -6.347  -0.035  0.00  0.00    +0.021 A 
ATOM     14  C   UNL     1       1.385  -7.232  -0.050  0.00  0.00    +0.042 A 
ATOM     15  C   UNL     1       2.686  -6.757  -0.059  0.00  0.00    +0.040 A 
ATOM     16  C   UNL     1       2.927  -5.397  -0.061  0.00  0.00    +0.054 A 
ATOM     17 CL   UNL     1       4.558  -4.803  -0.081  0.00  0.00    -0.083 Cl
ATOM     18 CL   UNL     1       1.090  -8.942  -0.056  0.00  0.00    -0.083 Cl
ENDBRANCH   8  11
ENDBRANCH   6   7
ENDBRANCH   3   6
ENDBRANCH   1   2
BRANCH   1  19
ATOM     19  C   UNL     1      -1.040   3.544   0.026  0.00  0.00    +0.256 C 
ATOM     20  O   UNL     1       0.102   3.965   0.023  0.00  0.00    -0.272 OA
BRANCH  19  26
ATOM     21  N   UNL     1      -2.734   6.731   0.046  0.00  0.00    -0.324 N 
ATOM     22  C   UNL     1      -2.276   8.010   0.056  0.00  0.00    +0.095 A 
ATOM     23  C   UNL     1      -0.956   8.219   0.050  0.00  0.00    +0.066 A 
ATOM     24  S   UNL     1      -0.318   6.553   0.039  0.00  0.00    -0.061 S 
ATOM     25  C   UNL     1      -1.833   5.708   0.042  0.00  0.00    +0.166 A 
ATOM     26  N   UNL     1      -2.059   4.392   0.036  0.00  0.00    -0.155 NA
BRANCH  21  27
ATOM     27  C   UNL     1      -4.173   6.455   0.045  0.00  0.00    +0.158 C 
BRANCH  27  32
ATOM     28  C   UNL     1      -6.067   6.070   5.490  0.00  0.00    +0.044 C 
ATOM     29  C   UNL     1      -5.573   6.170   4.070  0.00  0.00    -0.050 A 
ATOM     30  C   UNL     1      -5.571   7.392   3.424  0.00  0.00    +0.004 A 
ATOM     31  C   UNL     1      -5.118   7.485   2.121  0.00  0.00    +0.005 A 
ATOM     32  C   UNL     1      -4.667   6.355   1.465  0.00  0.00    -0.028 A 
ATOM     33  C   UNL     1      -4.673   5.132   2.109  0.00  0.00    +0.005 A 
ATOM     34  C   UNL     1      -5.122   5.041   3.414  0.00  0.00    +0.004 A 
ENDBRANCH  27  32
ENDBRANCH  21  27
ENDBRANCH  19  26
ENDBRANCH   1  19
TORSDOF 8
