REMARK  Name = ZINC39666202
REMARK  8 active torsions:
REMARK  status: ('A' for Active; 'I' for Inactive)
REMARK    1  A    between atoms: C_1  and  C_2
REMARK    2  A    between atoms: C_5  and  O_8
REMARK    3  A    between atoms: O_8  and  C_9
REMARK    4  A    between atoms: C_9  and  C_11
REMARK    5  A    between atoms: C_9  and  C_12
REMARK    6  A    between atoms: C_12  and  N_13
REMARK    7  A    between atoms: C_14  and  C_16
REMARK    8  A    between atoms: C_27  and  C_29
REMARK                            x       y       z     vdW  Elec       q    Type
REMARK                         _______ _______ _______ _____ _____    ______ ____
ROOT
ATOM      1  C   UNL     1       4.756  -6.780  -0.060  0.00  0.00    +0.100 C 
ATOM      2  C   UNL     1       5.589  -6.113   1.058  0.00  0.00    +0.121 C 
ATOM      3  N   UNL     1       6.218  -7.243   1.781  0.00  0.00    -0.297 N 
ATOM      4  C   UNL     1       6.595  -8.200   0.714  0.00  0.00    +0.115 C 
ATOM      5  C   UNL     1       5.422  -8.149  -0.285  0.00  0.00    -0.004 C 
ATOM      6  C   UNL     1       4.432  -9.272   0.007  0.00  0.00    -0.010 C 
ATOM      7  C   UNL     1       5.099 -10.621  -0.278  0.00  0.00    -0.082 C 
ATOM      8  N   UNL     1       5.526 -10.670  -1.682  0.00  0.00    +0.379 N 
ATOM      9  C   UNL     1       6.546  -9.645  -1.931  0.00  0.00    -0.082 C 
ATOM     10  C   UNL     1       5.941  -8.255  -1.715  0.00  0.00    -0.010 C 
ATOM     11  C   UNL     1       6.406  -7.371   3.110  0.00  0.00    +0.260 C 
ATOM     12  O   UNL     1       6.941  -8.365   3.553  0.00  0.00    -0.271 OA
ATOM     13  H   UNL     1       5.909 -11.581  -1.883  0.00  0.00    -0.086 HD
ATOM     14  H   UNL     1       4.730 -10.503  -2.280  0.00  0.00    -0.086 HD
ENDROOT
BRANCH  11  15
ATOM     15  C   UNL     1       5.949  -6.280   4.044  0.00  0.00    +0.296 C 
ATOM     16  C   UNL     1       6.766  -5.006   3.789  0.00  0.00    +0.283 C 
ATOM     17  O   UNL     1       6.318  -3.997   4.701  0.00  0.00    -0.484 OA
ATOM     18  C   UNL     1       6.165  -4.371   6.000  0.00  0.00    +0.162 A 
ATOM     19  C   UNL     1       6.092  -3.396   6.985  0.00  0.00    +0.049 A 
ATOM     20  C   UNL     1       5.934  -3.760   8.309  0.00  0.00    +0.004 A 
ATOM     21  C   UNL     1       5.849  -5.096   8.655  0.00  0.00    +0.004 A 
ATOM     22  C   UNL     1       5.923  -6.072   7.680  0.00  0.00    +0.049 A 
ATOM     23  C   UNL     1       6.083  -5.713   6.349  0.00  0.00    +0.163 A 
ATOM     24  O   UNL     1       6.161  -6.686   5.400  0.00  0.00    -0.473 OA
ENDBRANCH  11  15
BRANCH   1  26
ATOM     25  N   UNL     1       2.334  -6.970  -0.525  0.00  0.00    -0.312 N 
ATOM     26  C   UNL     1       3.328  -6.959   0.386  0.00  0.00    +0.218 C 
ATOM     27  O   UNL     1       3.072  -7.092   1.564  0.00  0.00    -0.275 OA
ATOM     28  H   UNL     1       2.539  -6.864  -1.467  0.00  0.00    +0.149 HD
BRANCH  25  29
ATOM     29  C   UNL     1       0.946  -7.144  -0.092  0.00  0.00    +0.148 C 
BRANCH  29  30
ATOM     30  C   UNL     1       0.024  -7.120  -1.312  0.00  0.00    +0.187 C 
ATOM     31  C   UNL     1      -1.434  -7.175  -0.852  0.00  0.00    +0.053 C 
BRANCH  30  32
ATOM     32  O   UNL     1       0.304  -8.248  -2.143  0.00  0.00    -0.488 OA
BRANCH  32  37
ATOM     33  C   UNL     1      -0.968  -7.778  -7.610  0.00  0.00    +0.044 C 
ATOM     34  C   UNL     1      -0.628  -7.904  -6.147  0.00  0.00    -0.050 A 
ATOM     35  C   UNL     1      -0.973  -6.893  -5.269  0.00  0.00    +0.007 A 
ATOM     36  C   UNL     1      -0.662  -7.006  -3.928  0.00  0.00    +0.046 A 
ATOM     37  C   UNL     1      -0.003  -8.135  -3.462  0.00  0.00    +0.121 A 
ATOM     38  C   UNL     1       0.341  -9.148  -4.345  0.00  0.00    +0.046 A 
ATOM     39  C   UNL     1       0.023  -9.033  -5.685  0.00  0.00    +0.007 A 
ENDBRANCH  32  37
ENDBRANCH  30  32
ENDBRANCH  29  30
ENDBRANCH  25  29
ENDBRANCH   1  26
TORSDOF 6
