REMARK  Name = ZINC64604389
REMARK  10 active torsions:
REMARK  status: ('A' for Active; 'I' for Inactive)
REMARK    1  A    between atoms: C_1  and  C_2
REMARK    2  A    between atoms: C_6  and  S_12
REMARK    3  A    between atoms: C_10  and  C_11
REMARK    4  A    between atoms: S_12  and  C_13
REMARK    5  A    between atoms: C_13  and  C_14
REMARK    6  A    between atoms: C_16  and  C_19
REMARK    7  A    between atoms: C_19  and  C_20
REMARK    8  A    between atoms: C_20  and  C_21
REMARK    9  A    between atoms: N_23  and  C_24
REMARK   10  A    between atoms: C_26  and  C_37
REMARK                            x       y       z     vdW  Elec       q    Type
REMARK                         _______ _______ _______ _____ _____    ______ ____
ROOT
ATOM      1  C   UNL     1      -4.459  -5.495  -1.358  0.00  0.00    +0.182 A 
ATOM      2  N   UNL     1      -5.247  -5.209  -2.401  0.00  0.00    -0.195 NA
ATOM      3  C   UNL     1      -6.140  -6.146  -2.557  0.00  0.00    +0.228 A 
ATOM      4  O   UNL     1      -5.949  -7.071  -1.608  0.00  0.00    -0.338 OA
ATOM      5  N   UNL     1      -4.840  -6.626  -0.839  0.00  0.00    -0.060 NA
ENDROOT
BRANCH   1   6
ATOM      6  C   UNL     1      -3.312  -4.648  -0.869  0.00  0.00    +0.152 C 
BRANCH   6   7
ATOM      7  S   UNL     1      -1.788  -5.147  -1.715  0.00  0.00    -0.107 S 
BRANCH   7  13
ATOM      8  C   UNL     1      -1.762   1.095   1.884  0.00  0.00    +0.044 C 
ATOM      9  C   UNL     1      -1.416  -0.327   1.525  0.00  0.00    -0.045 A 
ATOM     10  C   UNL     1      -1.341  -0.666   0.222  0.00  0.00    +0.031 A 
ATOM     11  C   UNL     1      -1.006  -2.048  -0.149  0.00  0.00    +0.061 A 
ATOM     12  N   UNL     1      -0.866  -2.647  -1.296  0.00  0.00    -0.355 N 
ATOM     13  C   UNL     1      -0.521  -4.048  -1.023  0.00  0.00    +0.236 C 
ATOM     14  N   UNL     1      -0.478  -4.186   0.438  0.00  0.00    -0.355 N 
ATOM     15  C   UNL     1      -0.760  -3.022   0.949  0.00  0.00    +0.061 A 
ATOM     16  C   UNL     1      -0.870  -2.538   2.332  0.00  0.00    +0.031 A 
ATOM     17  C   UNL     1      -1.179  -1.247   2.562  0.00  0.00    -0.045 A 
ATOM     18  C   UNL     1      -1.281  -0.770   3.989  0.00  0.00    +0.044 C 
ATOM     19  H   UNL     1      -0.971  -2.242  -2.171  0.00  0.00    +0.162 HD
ATOM     20  H   UNL     1      -0.277  -4.996   0.932  0.00  0.00    +0.162 HD
ENDBRANCH   7  13
ENDBRANCH   6   7
ENDBRANCH   1   6
BRANCH   3  21
ATOM     21  C   UNL     1      -7.205  -6.182  -3.623  0.00  0.00    +0.108 C 
BRANCH  21  22
ATOM     22  C   UNL     1      -6.666  -6.906  -4.858  0.00  0.00    +0.105 C 
BRANCH  22  23
ATOM     23  C   UNL     1      -7.731  -6.943  -5.923  0.00  0.00    +0.214 C 
ATOM     24  O   UNL     1      -8.815  -6.439  -5.715  0.00  0.00    -0.276 OA
ATOM     25  N   UNL     1      -7.480  -7.535  -7.108  0.00  0.00    -0.302 N 
ATOM     26  H   UNL     1      -6.593  -7.878  -7.300  0.00  0.00    +0.150 HD
BRANCH  25  27
ATOM     27  C   UNL     1      -8.546  -7.661  -8.105  0.00  0.00    +0.148 C 
ATOM     28  C   UNL     1      -7.952  -7.794  -9.524  0.00  0.00    +0.126 C 
ATOM     29  C   UNL     1      -8.786  -7.027 -10.546  0.00  0.00    +0.021 C 
ATOM     30  C   UNL     1      -8.097  -6.915 -11.879  0.00  0.00    +0.006 C 
ATOM     31  C   UNL     1      -7.089  -5.788 -11.972  0.00  0.00    +0.000 C 
ATOM     32  C   UNL     1      -7.673  -4.475 -11.461  0.00  0.00    +0.001 C 
ATOM     33  C   UNL     1      -8.129  -4.659 -10.013  0.00  0.00    +0.014 C 
ATOM     34  C   UNL     1      -9.245  -5.678  -9.975  0.00  0.00    +0.053 C 
ATOM     35  S   UNL     1      -9.530  -6.111  -8.202  0.00  0.00    -0.134 S 
BRANCH  28  36
ATOM     36  C   UNL     1      -7.918  -9.216  -9.901  0.00  0.00    +0.069 C 
ATOM     37  N   UNL     1      -7.892 -10.314 -10.192  0.00  0.00    -0.196 NA
ENDBRANCH  28  36
ENDBRANCH  25  27
ENDBRANCH  22  23
ENDBRANCH  21  22
ENDBRANCH   3  21
TORSDOF 8
