REMARK  Name = ZINC18019360
REMARK  9 active torsions:
REMARK  status: ('A' for Active; 'I' for Inactive)
REMARK    1  A    between atoms: C_4  and  C_7
REMARK    2  A    between atoms: C_8  and  S_9
REMARK    3  A    between atoms: S_9  and  N_12
REMARK    4  A    between atoms: N_12  and  C_13
REMARK    5  A    between atoms: C_16  and  C_19
REMARK    6  A    between atoms: N_21  and  C_22
REMARK    7  A    between atoms: C_22  and  C_23
REMARK    8  A    between atoms: C_23  and  C_25
REMARK    9  A    between atoms: C_23  and  N_63
REMARK                            x       y       z     vdW  Elec       q    Type
REMARK                         _______ _______ _______ _____ _____    ______ ____
ROOT
ATOM      1  C   UNL     1       1.360   2.072  -0.201  0.00  0.00    +0.048 A 
ATOM      2  C   UNL     1       2.434   1.387   0.360  0.00  0.00    +0.025 A 
ATOM      3  C   UNL     1       3.723   1.802   0.112  0.00  0.00    +0.015 A 
ATOM      4  C   UNL     1       3.952   2.919  -0.696  0.00  0.00    +0.037 A 
ATOM      5  C   UNL     1       2.872   3.609  -1.253  0.00  0.00    +0.015 A 
ATOM      6  C   UNL     1       1.586   3.186  -1.005  0.00  0.00    +0.025 A 
ENDROOT
BRANCH   4   7
ATOM      7  C   UNL     1       5.332   3.369  -0.960  0.00  0.00    +0.244 C 
ATOM      8  O   UNL     1       5.530   4.341  -1.663  0.00  0.00    -0.270 OA
ATOM      9  N   UNL     1       6.373   2.703  -0.422  0.00  0.00    -0.313 N 
ATOM     10  H   UNL     1       6.215   1.928   0.139  0.00  0.00    +0.149 HD
BRANCH   9  11
ATOM     11  C   UNL     1       7.743   3.150  -0.684  0.00  0.00    +0.094 C 
BRANCH  11  12
ATOM     12  C   UNL     1       8.727   2.229   0.039  0.00  0.00    -0.020 C 
BRANCH  12  13
ATOM     13  C   UNL     1      10.137   2.612  -0.329  0.00  0.00    -0.059 A 
ATOM     14  C   UNL     1      11.144   2.531   0.615  0.00  0.00    +0.002 A 
ATOM     15  C   UNL     1      12.439   2.879   0.276  0.00  0.00    +0.000 A 
ATOM     16  C   UNL     1      12.724   3.317  -1.004  0.00  0.00    +0.000 A 
ATOM     17  C   UNL     1      11.717   3.403  -1.946  0.00  0.00    +0.000 A 
ATOM     18  C   UNL     1      10.423   3.051  -1.608  0.00  0.00    +0.002 A 
ENDBRANCH  12  13
BRANCH  12  23
ATOM     19  C   UNL     1       8.826   0.623  -1.789  0.00  0.00    -0.078 C 
ATOM     20  C   UNL     1       9.014  -0.912  -1.881  0.00  0.00    -0.020 C 
ATOM     21  C   UNL     1       9.690  -1.260  -0.535  0.00  0.00    -0.020 C 
ATOM     22  C   UNL     1       9.333  -0.095   0.407  0.00  0.00    -0.078 C 
ATOM     23  N   UNL     1       8.487   0.812  -0.370  0.00  0.00    +0.385 N 
ATOM     24  H   UNL     1       7.498   0.581  -0.216  0.00  0.00    -0.081 HD
ENDBRANCH  12  23
ENDBRANCH  11  12
ENDBRANCH   9  11
ENDBRANCH   4   7
BRANCH   1  25
ATOM     25  N   UNL     1       0.060   1.648   0.048  0.00  0.00    -0.217 N 
ATOM     26  H   UNL     1      -0.620   2.291   0.302  0.00  0.00    +0.174 HD
BRANCH  25  27
ATOM     27  S   UNL     1      -0.329   0.045  -0.095  0.00  0.00    +0.066 S 
ATOM     28  O   UNL     1       0.650  -0.678   0.638  0.00  0.00    -0.151 OA
ATOM     29  O   UNL     1      -1.719  -0.062   0.180  0.00  0.00    -0.151 OA
BRANCH  27  31
ATOM     30  C   UNL     1       0.808  -1.280  -2.132  0.00  0.00    +0.028 C 
ATOM     31  C   UNL     1      -0.116  -0.394  -1.788  0.00  0.00    +0.157 C 
BRANCH  30  35
ATOM     32  C   UNL     1       1.321  -2.337  -6.213  0.00  0.00    +0.000 A 
ATOM     33  C   UNL     1       2.121  -2.919  -5.245  0.00  0.00    +0.001 A 
ATOM     34  C   UNL     1       1.959  -2.580  -3.918  0.00  0.00    +0.008 A 
ATOM     35  C   UNL     1       0.987  -1.648  -3.553  0.00  0.00    -0.024 A 
ATOM     36  C   UNL     1       0.180  -1.069  -4.533  0.00  0.00    +0.008 A 
ATOM     37  C   UNL     1       0.356  -1.412  -5.858  0.00  0.00    +0.001 A 
ENDBRANCH  30  35
ENDBRANCH  27  31
ENDBRANCH  25  27
ENDBRANCH   1  25
TORSDOF 9
