REMARK  Name = ZINC63294503
REMARK  10 active torsions:
REMARK  status: ('A' for Active; 'I' for Inactive)
REMARK    1  A    between atoms: C_1  and  O_2
REMARK    2  A    between atoms: O_2  and  C_3
REMARK    3  A    between atoms: C_7  and  C_9
REMARK    4  A    between atoms: C_13  and  C_35
REMARK    5  A    between atoms: N_15  and  C_22
REMARK    6  A    between atoms: C_22  and  C_23
REMARK    7  A    between atoms: C_23  and  C_24
REMARK    8  A    between atoms: C_27  and  O_33
REMARK    9  A    between atoms: O_33  and  C_34
REMARK   10  A    between atoms: C_39  and  O_41
REMARK                            x       y       z     vdW  Elec       q    Type
REMARK                         _______ _______ _______ _____ _____    ______ ____
ROOT
ATOM      1  C   UNL     1      -3.920  -4.815   0.572  0.00  0.00    +0.136 C 
ATOM      2  C   UNL     1      -3.072  -4.872  -0.720  0.00  0.00    +0.077 C 
ATOM      3  C   UNL     1      -2.812  -3.439  -1.220  0.00  0.00    +0.114 C 
ATOM      4  N   UNL     1      -4.012  -3.046  -1.964  0.00  0.00    -0.292 N 
ATOM      5  C   UNL     1      -4.766  -4.111  -2.276  0.00  0.00    +0.243 C 
ATOM      6  O   UNL     1      -5.797  -4.064  -2.913  0.00  0.00    -0.273 OA
ATOM      7  C   UNL     1      -4.147  -5.393  -1.724  0.00  0.00    +0.218 C 
ATOM      8  N   UNL     1      -5.123  -6.073  -0.859  0.00  0.00    -0.203 NA
ATOM      9  N   UNL     1      -5.008  -5.773   0.331  0.00  0.00    -0.305 N 
ATOM     10  H   UNL     1      -5.573  -6.130   1.034  0.00  0.00    +0.183 HD
ENDROOT
BRANCH   1  15
ATOM     11  C   UNL     1      -5.898  -1.633   0.074  0.00  0.00    +0.120 A 
ATOM     12  C   UNL     1      -5.487  -0.881   1.166  0.00  0.00    +0.045 A 
ATOM     13  C   UNL     1      -4.573  -1.405   2.059  0.00  0.00    +0.004 A 
ATOM     14  C   UNL     1      -4.067  -2.678   1.866  0.00  0.00    +0.006 A 
ATOM     15  C   UNL     1      -4.474  -3.429   0.779  0.00  0.00    -0.020 A 
ATOM     16  C   UNL     1      -5.393  -2.912  -0.114  0.00  0.00    +0.051 A 
BRANCH  11  18
ATOM     17  C   UNL     1      -7.374   0.146  -0.480  0.00  0.00    +0.277 C 
ATOM     18  O   UNL     1      -6.797  -1.121  -0.806  0.00  0.00    -0.495 OA
ENDBRANCH  11  18
ENDBRANCH   1  15
BRANCH   3  19
ATOM     19  C   UNL     1      -2.597  -2.512  -0.051  0.00  0.00    -0.023 A 
ATOM     20  C   UNL     1      -3.305  -1.327   0.030  0.00  0.00    +0.006 A 
ATOM     21  C   UNL     1      -3.111  -0.475   1.101  0.00  0.00    +0.004 A 
ATOM     22  C   UNL     1      -2.206  -0.805   2.092  0.00  0.00    +0.045 A 
ATOM     23  C   UNL     1      -1.494  -1.992   2.013  0.00  0.00    +0.117 A 
ATOM     24  C   UNL     1      -1.696  -2.849   0.940  0.00  0.00    +0.051 A 
BRANCH  23  25
ATOM     25  O   UNL     1      -0.605  -2.319   2.987  0.00  0.00    -0.507 OA
ATOM     26  H   UNL     1      -0.987  -2.827   3.715  0.00  0.00    +0.292 HD
ENDBRANCH  23  25
ENDBRANCH   3  19
BRANCH   4  27
ATOM     27  C   UNL     1      -4.347  -1.665  -2.321  0.00  0.00    +0.113 C 
BRANCH  27  28
ATOM     28  C   UNL     1      -4.862  -1.621  -3.760  0.00  0.00    +0.052 C 
BRANCH  28  29
ATOM     29  C   UNL     1      -5.207  -0.200  -4.127  0.00  0.00    -0.040 C 
ATOM     30  C   UNL     1      -4.415   0.688  -4.771  0.00  0.00    +0.002 A 
ATOM     31  C   UNL     1      -3.051   0.603  -5.302  0.00  0.00    +0.055 A 
ATOM     32  C   UNL     1      -2.504   1.681  -5.912  0.00  0.00    +0.121 A 
ATOM     33  C   UNL     1      -3.200   2.894  -6.060  0.00  0.00    +0.047 A 
ATOM     34  C   UNL     1      -4.459   3.069  -5.604  0.00  0.00    +0.029 A 
ATOM     35  C   UNL     1      -5.148   1.966  -4.927  0.00  0.00    +0.043 A 
ATOM     36  N   UNL     1      -6.344   1.871  -4.401  0.00  0.00    -0.380 N 
ATOM     37  C   UNL     1      -6.509   0.519  -3.856  0.00  0.00    +0.144 C 
ATOM     38  H   UNL     1      -7.010   2.576  -4.379  0.00  0.00    +0.160 HD
BRANCH  32  39
ATOM     39  O   UNL     1      -1.238   1.588  -6.399  0.00  0.00    -0.495 OA
ATOM     40  C   UNL     1      -0.701   2.749  -7.035  0.00  0.00    +0.277 C 
ENDBRANCH  32  39
ENDBRANCH  28  29
ENDBRANCH  27  28
ENDBRANCH   4  27
TORSDOF 8
