REMARK  Name = ZINC40840155
REMARK  8 active torsions:
REMARK  status: ('A' for Active; 'I' for Inactive)
REMARK    1  A    between atoms: C_1  and  C_2
REMARK    2  A    between atoms: C_2  and  O_3
REMARK    3  A    between atoms: O_3  and  C_4
REMARK    4  A    between atoms: C_4  and  C_6
REMARK    5  A    between atoms: C_10  and  N_11
REMARK    6  A    between atoms: N_14  and  N_15
REMARK    7  A    between atoms: C_16  and  C_17
REMARK    8  A    between atoms: C_26  and  O_27
REMARK                            x       y       z     vdW  Elec       q    Type
REMARK                         _______ _______ _______ _____ _____    ______ ____
ROOT
ATOM      1  N   UNL     1      -0.663  -2.689  -3.827  0.00  0.00    -0.262 N 
ATOM      2  C   UNL     1      -1.168  -2.988  -5.040  0.00  0.00    +0.324 C 
ATOM      3  O   UNL     1      -0.454  -3.479  -5.893  0.00  0.00    -0.251 OA
ATOM      4  N   UNL     1      -2.466  -2.741  -5.309  0.00  0.00    -0.191 N 
ATOM      5  H   UNL     1      -1.233  -2.297  -3.147  0.00  0.00    +0.157 HD
ATOM      6  H   UNL     1      -2.829  -2.956  -6.183  0.00  0.00    +0.179 HD
ENDROOT
BRANCH   1  11
ATOM      7  C   UNL     1       1.356  -2.704  -2.373  0.00  0.00    +0.091 A 
ATOM      8  C   UNL     1       2.772  -3.071  -2.336  0.00  0.00    -0.021 A 
ATOM      9  C   UNL     1       3.232  -3.598  -3.484  0.00  0.00    -0.004 A 
ATOM     10  S   UNL     1       1.827  -3.606  -4.569  0.00  0.00    -0.077 S 
ATOM     11  C   UNL     1       0.671  -2.943  -3.551  0.00  0.00    +0.088 A 
ATOM     12  C   UNL     1       4.692  -3.952  -3.393  0.00  0.00    +0.043 C 
ATOM     13  C   UNL     1       5.205  -3.179  -2.158  0.00  0.00    +0.010 C 
ATOM     14  C   UNL     1       3.916  -3.025  -1.325  0.00  0.00    +0.037 C 
BRANCH   7  15
ATOM     15  C   UNL     1       0.690  -2.116  -1.209  0.00  0.00    +0.342 C 
ATOM     16  O   UNL     1       0.160  -2.835  -0.384  0.00  0.00    -0.245 OA
BRANCH  15  17
ATOM     17  O   UNL     1       0.665  -0.776  -1.052  0.00  0.00    -0.461 OA
BRANCH  17  19
ATOM     18  C   UNL     1       0.073   1.257   0.112  0.00  0.00    +0.048 C 
ATOM     19  C   UNL     1      -0.002  -0.271   0.106  0.00  0.00    +0.229 C 
ENDBRANCH  17  19
ENDBRANCH  15  17
ENDBRANCH   7  15
ENDBRANCH   1  11
BRANCH   4  20
ATOM     20  N   UNL     1      -3.289  -2.175  -4.327  0.00  0.00    -0.186 NA
ATOM     21  C   UNL     1      -4.515  -1.853  -4.614  0.00  0.00    +0.142 C 
BRANCH  21  22
ATOM     22  C   UNL     1      -5.082  -2.208  -5.923  0.00  0.00    +0.044 A 
ATOM     23  C   UNL     1      -5.645  -1.181  -6.797  0.00  0.00    -0.006 A 
ATOM     24  C   UNL     1      -5.665   0.167  -6.421  0.00  0.00    +0.009 A 
ATOM     25  C   UNL     1      -6.199   1.095  -7.265  0.00  0.00    +0.001 A 
ATOM     26  C   UNL     1      -6.727   0.719  -8.498  0.00  0.00    +0.001 A 
ATOM     27  C   UNL     1      -6.724  -0.584  -8.895  0.00  0.00    +0.008 A 
ATOM     28  C   UNL     1      -6.180  -1.566  -8.050  0.00  0.00    -0.017 A 
ATOM     29  C   UNL     1      -6.159  -2.921  -8.426  0.00  0.00    +0.012 A 
ATOM     30  C   UNL     1      -5.631  -3.864  -7.601  0.00  0.00    +0.046 A 
ATOM     31  C   UNL     1      -5.088  -3.533  -6.361  0.00  0.00    +0.126 A 
BRANCH  31  32
ATOM     32  O   UNL     1      -4.566  -4.506  -5.572  0.00  0.00    -0.506 OA
ATOM     33  H   UNL     1      -5.185  -4.856  -4.916  0.00  0.00    +0.292 HD
ENDBRANCH  31  32
ENDBRANCH  21  22
ENDBRANCH   4  20
TORSDOF 7
