REMARK  Name = ZINC04805604
REMARK  6 active torsions:
REMARK  status: ('A' for Active; 'I' for Inactive)
REMARK    1  A    between atoms: C_1  and  C_2
REMARK    2  A    between atoms: C_2  and  O_3
REMARK    3  A    between atoms: O_3  and  C_4
REMARK    4  A    between atoms: C_4  and  C_6
REMARK    5  A    between atoms: C_7  and  N_24
REMARK    6  A    between atoms: C_11  and  C_15
REMARK                            x       y       z     vdW  Elec       q    Type
REMARK                         _______ _______ _______ _____ _____    ______ ____
ROOT
ATOM      1  C   UNL     1      -6.565  -1.187  -0.904  0.00  0.00    +0.119 A 
ATOM      2  C   UNL     1      -6.440  -0.076  -0.096  0.00  0.00    +0.056 A 
ATOM      3  C   UNL     1      -5.117   0.499   0.085  0.00  0.00    +0.033 A 
ATOM      4  C   UNL     1      -4.750   1.635   0.864  0.00  0.00    -0.031 A 
ATOM      5  C   UNL     1      -3.452   2.016   0.912  0.00  0.00    -0.015 A 
ATOM      6  C   UNL     1      -2.482   1.293   0.189  0.00  0.00    +0.111 A 
ATOM      7  N   UNL     1      -2.827   0.241  -0.542  0.00  0.00    -0.236 NA
ATOM      8  C   UNL     1      -4.076  -0.162  -0.604  0.00  0.00    +0.112 A 
ATOM      9  S   UNL     1      -4.896  -1.492  -1.447  0.00  0.00    -0.060 S 
ATOM     10  C   UNL     1      -2.983   3.198   1.721  0.00  0.00    +0.038 C 
ATOM     11  C   UNL     1      -4.158   4.107   2.073  0.00  0.00    +0.005 C 
ATOM     12  C   UNL     1      -5.268   3.248   2.691  0.00  0.00    +0.005 C 
ATOM     13  C   UNL     1      -5.849   2.356   1.595  0.00  0.00    +0.036 C 
ENDROOT
BRANCH   6  14
ATOM     14  C   UNL     1      -1.069   1.712   0.242  0.00  0.00    +0.153 A 
ATOM     15  C   UNL     1       0.012   0.885   0.220  0.00  0.00    +0.051 A 
ATOM     16  C   UNL     1       1.152   1.707   0.284  0.00  0.00    +0.042 A 
ATOM     17  C   UNL     1       0.718   2.982   0.347  0.00  0.00    +0.196 A 
ATOM     18  O   UNL     1      -0.624   2.982   0.325  0.00  0.00    -0.461 OA
ENDBRANCH   6  14
BRANCH   2  19
ATOM     19  N   UNL     1      -7.548   0.479   0.529  0.00  0.00    -0.356 N 
ATOM     20  H   UNL     1      -7.565   1.426   0.735  0.00  0.00    +0.142 HD
ATOM     21  H   UNL     1      -8.305  -0.082   0.759  0.00  0.00    +0.142 HD
ENDBRANCH   2  19
BRANCH   1  22
ATOM     22  C   UNL     1      -7.737  -1.910  -1.225  0.00  0.00    +0.348 C 
ATOM     23  O   UNL     1      -8.810  -1.565  -0.765  0.00  0.00    -0.244 OA
BRANCH  22  24
ATOM     24  O   UNL     1      -7.667  -2.982  -2.042  0.00  0.00    -0.461 OA
BRANCH  24  26
ATOM     25  C   UNL     1      -8.612  -4.844  -3.259  0.00  0.00    +0.048 C 
ATOM     26  C   UNL     1      -8.890  -3.665  -2.323  0.00  0.00    +0.229 C 
ENDBRANCH  24  26
ENDBRANCH  22  24
ENDBRANCH   1  22
TORSDOF 5
