REMARK  Name = ZINC01372419
REMARK  9 active torsions:
REMARK  status: ('A' for Active; 'I' for Inactive)
REMARK    1  A    between atoms: C_4  and  C_7
REMARK    2  A    between atoms: C_7  and  C_9
REMARK    3  A    between atoms: C_7  and  N_20
REMARK    4  A    between atoms: N_11  and  C_12
REMARK    5  A    between atoms: C_12  and  C_13
REMARK    6  A    between atoms: N_20  and  C_21
REMARK    7  A    between atoms: C_21  and  C_22
REMARK    8  A    between atoms: C_29  and  C_31
REMARK    9  A    between atoms: C_31  and  N_32
REMARK                            x       y       z     vdW  Elec       q    Type
REMARK                         _______ _______ _______ _____ _____    ______ ____
ROOT
ATOM      1  N   UNL     1       3.816  -1.794  -0.058  0.00  0.00    -0.280 N 
ATOM      2  C   UNL     1       4.125  -1.046   1.019  0.00  0.00    +0.238 C 
ATOM      3  O   UNL     1       3.768   0.112   1.076  0.00  0.00    -0.274 OA
ENDROOT
BRANCH   1   4
ATOM      4  C   UNL     1       3.207  -1.169  -1.234  0.00  0.00    +0.193 C 
BRANCH   4   8
ATOM      5  C   UNL     1      -0.732   0.165  -0.259  0.00  0.00    +0.000 A 
ATOM      6  C   UNL     1      -0.137   0.573  -1.438  0.00  0.00    +0.000 A 
ATOM      7  C   UNL     1       1.138   0.141  -1.753  0.00  0.00    +0.006 A 
ATOM      8  C   UNL     1       1.817  -0.698  -0.890  0.00  0.00    -0.018 A 
ATOM      9  C   UNL     1       1.222  -1.105   0.290  0.00  0.00    +0.006 A 
ATOM     10  C   UNL     1      -0.053  -0.674   0.605  0.00  0.00    +0.000 A 
ENDBRANCH   4   8
BRANCH   4  11
ATOM     11  C   UNL     1       3.133  -2.173  -2.356  0.00  0.00    +0.238 C 
ATOM     12  O   UNL     1       3.012  -3.354  -2.105  0.00  0.00    -0.273 OA
ATOM     13  N   UNL     1       3.201  -1.760  -3.636  0.00  0.00    -0.309 N 
ATOM     14  H   UNL     1       3.298  -0.815  -3.837  0.00  0.00    +0.149 HD
BRANCH  13  15
ATOM     15  C   UNL     1       3.129  -2.736  -4.726  0.00  0.00    +0.139 C 
BRANCH  15  16
ATOM     16  C   UNL     1       3.228  -2.020  -6.049  0.00  0.00    -0.030 A 
ATOM     17  C   UNL     1       2.082  -1.571  -6.678  0.00  0.00    +0.008 A 
ATOM     18  C   UNL     1       2.171  -0.914  -7.891  0.00  0.00    +0.038 A 
ATOM     19  C   UNL     1       3.409  -0.706  -8.476  0.00  0.00    +0.123 A 
ATOM     20  C   UNL     1       4.556  -1.157  -7.845  0.00  0.00    +0.038 A 
ATOM     21  C   UNL     1       4.465  -1.809  -6.629  0.00  0.00    +0.008 A 
ATOM     22  F   UNL     1       3.497  -0.065  -9.661  0.00  0.00    -0.205 F 
ENDBRANCH  15  16
ENDBRANCH  13  15
ENDBRANCH   4  11
ENDBRANCH   1   4
BRANCH   1  23
ATOM     23  C   UNL     1       4.090  -3.234  -0.053  0.00  0.00    +0.147 C 
BRANCH  23  24
ATOM     24  C   UNL     1       2.992  -3.951   0.690  0.00  0.00    +0.005 A 
ATOM     25  C   UNL     1       3.308  -4.835   1.705  0.00  0.00    +0.008 A 
ATOM     26  C   UNL     1       2.301  -5.493   2.387  0.00  0.00    +0.000 A 
ATOM     27  C   UNL     1       0.978  -5.268   2.054  0.00  0.00    +0.003 A 
ATOM     28  C   UNL     1       0.660  -4.384   1.041  0.00  0.00    +0.038 A 
ATOM     29  C   UNL     1       1.668  -3.720   0.361  0.00  0.00    +0.128 A 
ATOM     30  F   UNL     1       1.358  -2.853  -0.627  0.00  0.00    -0.205 F 
ENDBRANCH  23  24
ENDBRANCH   1  23
BRANCH   2  31
ATOM     31  C   UNL     1       4.914  -1.647   2.154  0.00  0.00    +0.241 C 
BRANCH  31  32
ATOM     32  N   UNL     1       5.173  -0.621   3.166  0.00  0.00    -0.235 N 
ATOM     33  C   UNL     1       6.255   0.226   3.221  0.00  0.00    +0.090 A 
ATOM     34  C   UNL     1       7.382   0.407   2.426  0.00  0.00    +0.029 A 
ATOM     35  C   UNL     1       8.301   1.362   2.758  0.00  0.00    +0.002 A 
ATOM     36  C   UNL     1       8.121   2.155   3.884  0.00  0.00    +0.002 A 
ATOM     37  C   UNL     1       7.024   1.998   4.680  0.00  0.00    +0.032 A 
ATOM     38  C   UNL     1       6.066   1.026   4.361  0.00  0.00    +0.113 A 
ATOM     39  N   UNL     1       4.910   0.646   4.941  0.00  0.00    -0.129 NA
ATOM     40  N   UNL     1       4.364  -0.304   4.268  0.00  0.00    -0.064 NA
ENDBRANCH  31  32
ENDBRANCH   2  31
TORSDOF 9
