REMARK  Name = ZINC63282053
REMARK  11 active torsions:
REMARK  status: ('A' for Active; 'I' for Inactive)
REMARK    1  A    between atoms: C_1  and  O_2
REMARK    2  A    between atoms: O_2  and  C_3
REMARK    3  A    between atoms: C_5  and  C_13
REMARK    4  A    between atoms: C_7  and  O_11
REMARK    5  A    between atoms: C_8  and  O_9
REMARK    6  A    between atoms: O_9  and  C_10
REMARK    7  A    between atoms: O_11  and  C_12
REMARK    8  A    between atoms: C_19  and  C_20
REMARK    9  A    between atoms: N_22  and  C_23
REMARK   10  A    between atoms: C_23  and  C_24
REMARK   11  A    between atoms: C_24  and  C_25
REMARK                            x       y       z     vdW  Elec       q    Type
REMARK                         _______ _______ _______ _____ _____    ______ ____
ROOT
ATOM      1  C   UNL     1       2.206   0.835  -4.772  0.00  0.00    +0.160 C 
ATOM      2  N   UNL     1       2.333  -0.079  -5.923  0.00  0.00    -0.331 N 
ATOM      3  C   UNL     1       3.555  -0.560  -6.231  0.00  0.00    +0.020 C 
ATOM      4  C   UNL     1       4.731   0.272  -5.735  0.00  0.00    +0.121 C 
ATOM      5  S   UNL     1       3.959   1.051  -4.245  0.00  0.00    -0.128 S 
ATOM      6  C   UNL     1       3.724  -1.701  -6.931  0.00  0.00    +0.086 C 
ATOM      7  H   UNL     1       1.555  -0.327  -6.446  0.00  0.00    +0.147 HD
ENDROOT
BRANCH   1  10
ATOM      8  C   UNL     1      -0.070   0.426  -1.783  0.00  0.00    +0.166 A 
ATOM      9  C   UNL     1       0.682   1.003  -2.795  0.00  0.00    +0.056 A 
ATOM     10  C   UNL     1       1.390   0.204  -3.673  0.00  0.00    -0.010 A 
ATOM     11  C   UNL     1       1.350  -1.172  -3.548  0.00  0.00    +0.056 A 
ATOM     12  C   UNL     1       0.600  -1.756  -2.539  0.00  0.00    +0.166 A 
ATOM     13  C   UNL     1      -0.108  -0.957  -1.649  0.00  0.00    +0.204 A 
BRANCH   8  15
ATOM     14  C   UNL     1      -0.681   2.626  -1.115  0.00  0.00    +0.277 C 
ATOM     15  O   UNL     1      -0.766   1.213  -0.919  0.00  0.00    -0.491 OA
ENDBRANCH   8  15
BRANCH  13  16
ATOM     16  O   UNL     1      -0.842  -1.526  -0.654  0.00  0.00    -0.488 OA
ATOM     17  C   UNL     1      -2.203  -1.844  -0.952  0.00  0.00    +0.277 C 
ENDBRANCH  13  16
BRANCH  12  18
ATOM     18  O   UNL     1       0.561  -3.110  -2.416  0.00  0.00    -0.491 OA
ATOM     19  C   UNL     1       1.317  -3.869  -3.361  0.00  0.00    +0.277 C 
ENDBRANCH  12  18
ENDBRANCH   1  10
BRANCH   6  20
ATOM     20  C   UNL     1       2.608  -2.515  -7.237  0.00  0.00    +0.238 C 
ATOM     21  O   UNL     1       1.513  -2.245  -6.777  0.00  0.00    -0.271 OA
ATOM     22  N   UNL     1       2.757  -3.590  -8.036  0.00  0.00    -0.311 N 
ATOM     23  H   UNL     1       3.629  -3.805  -8.402  0.00  0.00    +0.149 HD
BRANCH  22  24
ATOM     24  C   UNL     1       1.601  -4.433  -8.353  0.00  0.00    +0.109 C 
BRANCH  24  25
ATOM     25  C   UNL     1       2.039  -5.575  -9.272  0.00  0.00    +0.052 C 
BRANCH  25  26
ATOM     26  C   UNL     1       0.851  -6.442  -9.597  0.00  0.00    -0.040 C 
ATOM     27  C   UNL     1       0.057  -6.357 -10.689  0.00  0.00    +0.002 A 
ATOM     28  C   UNL     1       0.063  -5.466 -11.855  0.00  0.00    +0.048 A 
ATOM     29  C   UNL     1      -0.883  -5.628 -12.810  0.00  0.00    +0.124 A 
ATOM     30  C   UNL     1      -1.867  -6.624 -12.712  0.00  0.00    +0.040 A 
ATOM     31  C   UNL     1      -1.936  -7.479 -11.670  0.00  0.00    +0.029 A 
ATOM     32  C   UNL     1      -0.991  -7.400 -10.610  0.00  0.00    +0.043 A 
ATOM     33  N   UNL     1      -0.851  -8.102  -9.512  0.00  0.00    -0.380 N 
ATOM     34  C   UNL     1       0.307  -7.587  -8.773  0.00  0.00    +0.144 C 
ATOM     35  F   UNL     1      -0.881  -4.809 -13.885  0.00  0.00    -0.205 F 
ATOM     36  H   UNL     1      -1.416  -8.840  -9.236  0.00  0.00    +0.160 HD
ENDBRANCH  25  26
ENDBRANCH  24  25
ENDBRANCH  22  24
ENDBRANCH   6  20
TORSDOF 8
