REMARK  Name = ZINC09042733
REMARK  14 active torsions:
REMARK  status: ('A' for Active; 'I' for Inactive)
REMARK    1  A    between atoms: C_1  and  C_2
REMARK    2  A    between atoms: C_2  and  O_3
REMARK    3  A    between atoms: O_3  and  C_4
REMARK    4  A    between atoms: C_4  and  C_6
REMARK    5  A    between atoms: C_7  and  N_38
REMARK    6  A    between atoms: C_12  and  C_13
REMARK    7  A    between atoms: C_16  and  O_19
REMARK    8  A    between atoms: O_19  and  C_20
REMARK    9  A    between atoms: C_23  and  C_34
REMARK   10  A    between atoms: C_24  and  C_26
REMARK   11  A    between atoms: C_29  and  O_32
REMARK   12  A    between atoms: O_32  and  C_33
REMARK   13  A    between atoms: C_34  and  O_36
REMARK   14  A    between atoms: O_36  and  C_37
REMARK                            x       y       z     vdW  Elec       q    Type
REMARK                         _______ _______ _______ _____ _____    ______ ____
ROOT
ATOM      1  C   UNL     1      -1.394   2.859   1.255  0.00  0.00    +0.087 C 
ATOM      2  C   UNL     1      -1.397   1.524   1.029  0.00  0.00    +0.115 C 
ATOM      3  N   UNL     1      -2.495   0.822   0.526  0.00  0.00    -0.257 N 
ATOM      4  C   UNL     1      -2.486  -0.509   0.310  0.00  0.00    +0.271 A 
ATOM      5  O   UNL     1      -1.494  -1.171   0.550  0.00  0.00    -0.266 OA
ATOM      6  C   UNL     1      -3.699  -1.139  -0.222  0.00  0.00    +0.079 A 
ATOM      7  C   UNL     1      -3.934  -2.443  -0.519  0.00  0.00    +0.028 C 
ATOM      8  S   UNL     1      -4.784   0.271  -0.371  0.00  0.00    -0.065 S 
ATOM      9  C   UNL     1      -3.655   1.510   0.231  0.00  0.00    +0.100 A 
ATOM     10  C   UNL     1      -3.813   2.861   0.398  0.00  0.00    +0.079 C 
ATOM     11  C   UNL     1      -2.643   3.657   0.941  0.00  0.00    +0.099 C 
ENDROOT
BRANCH   7  12
ATOM     12  C   UNL     1      -2.833  -3.414  -0.483  0.00  0.00    -0.024 A 
ATOM     13  C   UNL     1      -1.583  -3.080  -1.020  0.00  0.00    +0.011 A 
ATOM     14  C   UNL     1      -0.553  -3.992  -0.977  0.00  0.00    +0.046 A 
ATOM     15  C   UNL     1      -0.754  -5.247  -0.414  0.00  0.00    +0.120 A 
ATOM     16  C   UNL     1      -1.994  -5.586   0.115  0.00  0.00    +0.046 A 
ATOM     17  C   UNL     1      -3.030  -4.679   0.083  0.00  0.00    +0.011 A 
BRANCH  15  18
ATOM     18  O   UNL     1       0.264  -6.144  -0.380  0.00  0.00    -0.495 OA
ATOM     19  C   UNL     1       1.512  -5.731  -0.940  0.00  0.00    +0.277 C 
ENDBRANCH  15  18
ENDBRANCH   7  12
BRANCH  11  20
ATOM     20  C   UNL     1      -2.287   4.720  -0.067  0.00  0.00    -0.035 A 
ATOM     21  C   UNL     1      -1.899   4.358  -1.343  0.00  0.00    +0.008 A 
ATOM     22  C   UNL     1      -1.578   5.331  -2.271  0.00  0.00    +0.046 A 
ATOM     23  C   UNL     1      -1.634   6.671  -1.916  0.00  0.00    +0.120 A 
ATOM     24  C   UNL     1      -2.018   7.031  -0.633  0.00  0.00    +0.046 A 
ATOM     25  C   UNL     1      -2.344   6.055   0.289  0.00  0.00    +0.008 A 
BRANCH  23  26
ATOM     26  O   UNL     1      -1.314   7.629  -2.825  0.00  0.00    -0.495 OA
ATOM     27  C   UNL     1      -0.928   7.185  -4.127  0.00  0.00    +0.277 C 
ENDBRANCH  23  26
ENDBRANCH  11  20
BRANCH   2  28
ATOM     28  N   UNL     1      -0.257   0.819   1.314  0.00  0.00    -0.344 N 
ATOM     29  H   UNL     1       0.611   1.182   1.075  0.00  0.00    +0.144 HD
ATOM     30  H   UNL     1      -0.317  -0.041   1.759  0.00  0.00    +0.144 HD
ENDBRANCH   2  28
BRANCH   1  31
ATOM     31  C   UNL     1      -0.252   3.493   1.768  0.00  0.00    +0.339 C 
ATOM     32  O   UNL     1       0.768   2.853   1.954  0.00  0.00    -0.245 OA
BRANCH  31  33
ATOM     33  O   UNL     1      -0.283   4.812   2.054  0.00  0.00    -0.462 OA
BRANCH  33  35
ATOM     34  C   UNL     1       0.689   6.883   2.835  0.00  0.00    +0.048 C 
ATOM     35  C   UNL     1       0.915   5.392   2.573  0.00  0.00    +0.229 C 
ENDBRANCH  33  35
ENDBRANCH  31  33
ENDBRANCH   1  31
BRANCH  10  36
ATOM     36  C   UNL     1      -5.023   3.489   0.074  0.00  0.00    +0.338 C 
ATOM     37  O   UNL     1      -5.952   2.833  -0.361  0.00  0.00    -0.245 OA
BRANCH  36  38
ATOM     38  O   UNL     1      -5.159   4.822   0.246  0.00  0.00    -0.465 OA
ATOM     39  C   UNL     1      -6.420   5.396  -0.104  0.00  0.00    +0.280 C 
ENDBRANCH  36  38
ENDBRANCH  10  36
TORSDOF 10
