REMARK  Name = ZINC14954310
REMARK  5 active torsions:
REMARK  status: ('A' for Active; 'I' for Inactive)
REMARK    1  A    between atoms: C_8  and  N_10
REMARK    2  A    between atoms: C_21  and  N_58
REMARK    3  A    between atoms: C_25  and  C_26
REMARK    4  A    between atoms: C_25  and  N_58
REMARK    5  A    between atoms: C_26  and  C_27
REMARK                            x       y       z     vdW  Elec       q    Type
REMARK                         _______ _______ _______ _____ _____    ______ ____
ROOT
ATOM      1  N   UNL     1      -4.805   2.396   0.313  0.00  0.00    -0.295 N 
ATOM      2  C   UNL     1      -4.819   2.318   1.669  0.00  0.00    +0.203 A 
ATOM      3  N   UNL     1      -5.943   2.300   2.334  0.00  0.00    -0.230 NA
ATOM      4  C   UNL     1      -7.112   2.357   1.702  0.00  0.00    +0.116 A 
ATOM      5  C   UNL     1      -7.199   2.439   0.303  0.00  0.00    +0.076 A 
ATOM      6  C   UNL     1      -5.947   2.462  -0.396  0.00  0.00    +0.263 A 
ATOM      7  O   UNL     1      -5.918   2.537  -1.612  0.00  0.00    -0.267 OA
ATOM      8  C   UNL     1      -8.550   2.495  -0.252  0.00  0.00    -0.023 A 
ATOM      9  C   UNL     1      -9.575   2.462   0.626  0.00  0.00    -0.006 A 
ATOM     10  S   UNL     1      -8.809   2.357   2.221  0.00  0.00    -0.073 S 
ATOM     11  C   UNL     1     -11.040   2.505   0.314  0.00  0.00    +0.027 C 
ATOM     12  C   UNL     1     -11.224   2.221  -1.184  0.00  0.00    -0.067 C 
ATOM     13  C   UNL     1     -10.240   3.088  -1.974  0.00  0.00    -0.011 C 
ATOM     14  C   UNL     1      -8.813   2.587  -1.753  0.00  0.00    +0.035 C 
ENDROOT
BRANCH   1  22
ATOM     15  C   UNL     1       1.157   3.163   0.008  0.00  0.00    +0.000 A 
ATOM     16  C   UNL     1       1.175   1.780   0.000  0.00  0.00    +0.000 A 
ATOM     17  C   UNL     1      -0.013   1.076   0.008  0.00  0.00    +0.004 A 
ATOM     18  C   UNL     1      -1.222   1.750   0.017  0.00  0.00    -0.042 A 
ATOM     19  C   UNL     1      -1.240   3.132   0.030  0.00  0.00    -0.042 A 
ATOM     20  C   UNL     1      -0.048   3.836   0.023  0.00  0.00    +0.004 A 
ATOM     21  C   UNL     1      -2.671   3.625   0.046  0.00  0.00    +0.061 C 
ATOM     22  C   UNL     1      -3.521   2.413  -0.392  0.00  0.00    +0.100 C 
ATOM     23  C   UNL     1      -2.640   1.220   0.034  0.00  0.00    +0.061 C 
ENDBRANCH   1  22
BRANCH  12  24
ATOM     24  N   UNL     1     -12.603   2.558  -1.586  0.00  0.00    +0.381 N 
ATOM     25  H   UNL     1     -12.617   2.790  -2.586  0.00  0.00    -0.086 HD
ATOM     26  H   UNL     1     -12.925   3.368  -1.042  0.00  0.00    -0.086 HD
BRANCH  24  27
ATOM     27  C   UNL     1     -13.503   1.416  -1.339  0.00  0.00    -0.078 C 
BRANCH  27  28
ATOM     28  C   UNL     1     -14.923   1.795  -1.764  0.00  0.00    +0.016 C 
BRANCH  28  29
ATOM     29  C   UNL     1     -15.849   0.633  -1.514  0.00  0.00    -0.049 A 
ATOM     30  C   UNL     1     -16.057  -0.309  -2.505  0.00  0.00    +0.006 A 
ATOM     31  C   UNL     1     -16.903  -1.378  -2.275  0.00  0.00    +0.038 A 
ATOM     32  C   UNL     1     -17.549  -1.500  -1.057  0.00  0.00    +0.123 A 
ATOM     33  C   UNL     1     -17.344  -0.553  -0.068  0.00  0.00    +0.038 A 
ATOM     34  C   UNL     1     -16.494   0.512  -0.298  0.00  0.00    +0.006 A 
ATOM     35  F   UNL     1     -18.380  -2.542  -0.833  0.00  0.00    -0.205 F 
ENDBRANCH  28  29
ENDBRANCH  27  28
ENDBRANCH  24  27
ENDBRANCH  12  24
TORSDOF 5
