REMARK  Name = ZINC12923467
REMARK  13 active torsions:
REMARK  status: ('A' for Active; 'I' for Inactive)
REMARK    1  A    between atoms: C_1  and  C_2
REMARK    2  A    between atoms: C_2  and  C_3
REMARK    3  A    between atoms: C_2  and  C_4
REMARK    4  A    between atoms: C_4  and  N_5
REMARK    5  A    between atoms: N_5  and  C_6
REMARK    6  A    between atoms: C_7  and  N_22
REMARK    7  A    between atoms: N_8  and  C_15
REMARK    8  A    between atoms: C_15  and  C_16
REMARK    9  A    between atoms: C_23  and  C_25
REMARK   10  A    between atoms: C_28  and  C_31
REMARK   11  A    between atoms: C_31  and  C_32
REMARK   12  A    between atoms: C_31  and  C_33
REMARK   13  A    between atoms: C_31  and  C_34
REMARK                            x       y       z     vdW  Elec       q    Type
REMARK                         _______ _______ _______ _____ _____    ______ ____
ROOT
ATOM      1  C   UNL     1      -1.151   4.968   2.292  0.00  0.00    +0.140 A 
ATOM      2  C   UNL     1      -0.491   5.692   3.264  0.00  0.00    +0.128 A 
ATOM      3  N   UNL     1      -0.371   7.055   3.122  0.00  0.00    -0.276 N 
ATOM      4  C   UNL     1      -0.892   7.675   2.047  0.00  0.00    +0.331 A 
ATOM      5  O   UNL     1      -0.776   8.881   1.940  0.00  0.00    -0.246 OA
ATOM      6  N   UNL     1      -1.538   6.986   1.090  0.00  0.00    -0.273 N 
ATOM      7  H   UNL     1      -1.919   7.472   0.303  0.00  0.00    +0.173 HD
ATOM      8  C   UNL     1      -1.678   5.649   1.179  0.00  0.00    +0.277 A 
ATOM      9  O   UNL     1      -2.262   5.034   0.303  0.00  0.00    -0.266 OA
ENDROOT
BRANCH   1  10
ATOM     10  N   UNL     1      -1.289   3.569   2.409  0.00  0.00    -0.264 N 
ATOM     11  C   UNL     1      -0.721   2.756   1.494  0.00  0.00    +0.223 C 
ATOM     12  O   UNL     1      -0.913   1.559   1.545  0.00  0.00    -0.275 OA
BRANCH  11  13
ATOM     13  C   UNL     1       0.151   3.334   0.410  0.00  0.00    +0.076 C 
ATOM     14  C   UNL     1       0.595   2.218  -0.537  0.00  0.00    +0.013 C 
ATOM     15  C   UNL     1       1.385   1.168   0.247  0.00  0.00    +0.005 C 
ATOM     16  C   UNL     1       2.616   1.822   0.878  0.00  0.00    -0.006 C 
ATOM     17  C   UNL     1       2.172   2.938   1.825  0.00  0.00    +0.005 C 
ATOM     18  C   UNL     1       1.382   3.988   1.041  0.00  0.00    +0.013 C 
BRANCH  16  19
ATOM     19  C   UNL     1       3.406   0.772   1.662  0.00  0.00    -0.035 C 
ATOM     20  C   UNL     1       3.850  -0.344   0.715  0.00  0.00    +0.011 C 
ATOM     21  C   UNL     1       4.637   1.426   2.293  0.00  0.00    +0.011 C 
ATOM     22  C   UNL     1       2.520   0.184   2.763  0.00  0.00    +0.011 C 
ENDBRANCH  16  19
ENDBRANCH  11  13
BRANCH  10  23
ATOM     23  C   UNL     1      -2.050   2.999   3.524  0.00  0.00    +0.117 C 
BRANCH  23  25
ATOM     24  C   UNL     1      -4.240   1.997   4.188  0.00  0.00    +0.009 C 
ATOM     25  C   UNL     1      -3.487   2.725   3.074  0.00  0.00    +0.001 C 
ATOM     26  C   UNL     1      -4.186   4.051   2.767  0.00  0.00    +0.009 C 
ENDBRANCH  23  25
ENDBRANCH  10  23
ENDBRANCH   1  10
BRANCH   2  27
ATOM     27  N   UNL     1       0.041   5.058   4.362  0.00  0.00    -0.343 N 
ATOM     28  H   UNL     1       0.032   4.090   4.415  0.00  0.00    +0.144 HD
ATOM     29  H   UNL     1       0.425   5.580   5.084  0.00  0.00    +0.144 HD
ENDBRANCH   2  27
BRANCH   3  30
ATOM     30  C   UNL     1       0.327   7.835   4.146  0.00  0.00    +0.163 C 
BRANCH  30  31
ATOM     31  C   UNL     1       1.791   7.923   3.799  0.00  0.00    -0.028 A 
ATOM     32  C   UNL     1       2.671   6.964   4.267  0.00  0.00    +0.005 A 
ATOM     33  C   UNL     1       4.013   7.042   3.945  0.00  0.00    +0.000 A 
ATOM     34  C   UNL     1       4.477   8.083   3.164  0.00  0.00    +0.000 A 
ATOM     35  C   UNL     1       3.599   9.045   2.700  0.00  0.00    +0.000 A 
ATOM     36  C   UNL     1       2.256   8.964   3.018  0.00  0.00    +0.005 A 
ENDBRANCH  30  31
ENDBRANCH   3  30
TORSDOF 8
