REMARK  Name = ZINC21253766
REMARK  13 active torsions:
REMARK  status: ('A' for Active; 'I' for Inactive)
REMARK    1  A    between atoms: C_1  and  C_2
REMARK    2  A    between atoms: C_2  and  C_3
REMARK    3  A    between atoms: C_2  and  C_4
REMARK    4  A    between atoms: C_4  and  O_5
REMARK    5  A    between atoms: O_5  and  C_6
REMARK    6  A    between atoms: C_9  and  C_12
REMARK    7  A    between atoms: C_17  and  C_27
REMARK    8  A    between atoms: C_30  and  O_35
REMARK    9  A    between atoms: C_31  and  O_33
REMARK   10  A    between atoms: O_33  and  C_34
REMARK   11  A    between atoms: O_35  and  C_36
REMARK   12  A    between atoms: C_36  and  C_37
REMARK   13  A    between atoms: C_36  and  C_38
REMARK                            x       y       z     vdW  Elec       q    Type
REMARK                         _______ _______ _______ _____ _____    ______ ____
ROOT
ATOM      1  C   UNL     1       3.793   0.179   0.472  0.00  0.00    +0.032 C 
ATOM      2  C   UNL     1       2.971   1.208  -0.301  0.00  0.00    +0.059 C 
ATOM      3  C   UNL     1       1.495   0.849  -0.230  0.00  0.00    +0.017 C 
ATOM      4  C   UNL     1       1.112  -0.437  -0.181  0.00  0.00    +0.036 C 
ATOM      5  C   UNL     1      -0.313  -0.937  -0.138  0.00  0.00    +0.136 C 
ATOM      6  N   UNL     1      -1.298   0.093   0.112  0.00  0.00    -0.331 N 
ATOM      7  C   UNL     1      -1.503   1.127  -0.797  0.00  0.00    +0.049 A 
ATOM      8  C   UNL     1      -2.699   1.253  -1.488  0.00  0.00    +0.025 A 
ATOM      9  C   UNL     1      -2.845   2.266  -2.419  0.00  0.00    +0.002 A 
ATOM     10  C   UNL     1      -1.808   3.148  -2.663  0.00  0.00    +0.002 A 
ATOM     11  C   UNL     1      -0.619   3.038  -1.962  0.00  0.00    +0.025 A 
ATOM     12  C   UNL     1      -0.481   2.038  -1.016  0.00  0.00    +0.052 A 
ATOM     13  N   UNL     1       0.656   1.916  -0.217  0.00  0.00    -0.316 N 
ATOM     14  C   UNL     1       2.079  -1.470  -0.165  0.00  0.00    +0.163 C 
ATOM     15  O   UNL     1       1.702  -2.625  -0.145  0.00  0.00    -0.292 OA
ATOM     16  C   UNL     1       3.552  -1.191  -0.173  0.00  0.00    +0.088 C 
ATOM     17  H   UNL     1      -1.899   0.068   1.034  0.00  0.00    +0.147 HD
ATOM     18  H   UNL     1       0.853   2.763   0.457  0.00  0.00    +0.152 HD
ENDROOT
BRANCH   1  22
ATOM     19  C   UNL     1       7.943   1.176   0.247  0.00  0.00    +0.121 A 
ATOM     20  C   UNL     1       7.319   1.073   1.482  0.00  0.00    +0.046 A 
ATOM     21  C   UNL     1       5.978   0.750   1.552  0.00  0.00    +0.007 A 
ATOM     22  C   UNL     1       5.256   0.531   0.393  0.00  0.00    -0.043 A 
ATOM     23  C   UNL     1       5.877   0.627  -0.839  0.00  0.00    +0.007 A 
ATOM     24  C   UNL     1       7.217   0.955  -0.915  0.00  0.00    +0.046 A 
BRANCH  19  25
ATOM     25  O   UNL     1       9.262   1.494   0.175  0.00  0.00    -0.492 OA
BRANCH  25  26
ATOM     26  C   UNL     1       9.838   1.583  -1.130  0.00  0.00    +0.232 C 
BRANCH  26  28
ATOM     27  C   UNL     1      12.069   0.810  -0.313  0.00  0.00    +0.010 C 
ATOM     28  C   UNL     1      11.319   1.947  -1.010  0.00  0.00    +0.020 C 
ATOM     29  C   UNL     1      11.905   2.164  -2.407  0.00  0.00    +0.010 C 
ENDBRANCH  26  28
ENDBRANCH  25  26
ENDBRANCH  19  25
ENDBRANCH   1  22
BRANCH   5  30
ATOM     30  C   UNL     1      -0.631  -1.592  -1.458  0.00  0.00    -0.019 A 
ATOM     31  C   UNL     1      -0.649  -0.837  -2.616  0.00  0.00    +0.009 A 
ATOM     32  C   UNL     1      -0.939  -1.433  -3.829  0.00  0.00    +0.050 A 
ATOM     33  C   UNL     1      -1.212  -2.790  -3.886  0.00  0.00    +0.162 A 
ATOM     34  C   UNL     1      -1.194  -3.550  -2.721  0.00  0.00    +0.162 A 
ATOM     35  C   UNL     1      -0.897  -2.947  -1.509  0.00  0.00    +0.055 A 
BRANCH  34  36
ATOM     36  O   UNL     1      -1.461  -4.883  -2.772  0.00  0.00    -0.491 OA
ATOM     37  C   UNL     1      -1.424  -5.599  -1.537  0.00  0.00    +0.277 C 
ENDBRANCH  34  36
BRANCH  33  38
ATOM     38  O   UNL     1      -1.497  -3.378  -5.079  0.00  0.00    -0.486 OA
BRANCH  38  39
ATOM     39  C   UNL     1      -1.617  -2.518  -6.214  0.00  0.00    +0.167 C 
ATOM     40  C   UNL     1      -0.230  -2.254  -6.803  0.00  0.00    +0.051 C 
ATOM     41  C   UNL     1      -2.501  -3.187  -7.269  0.00  0.00    +0.051 C 
ENDBRANCH  38  39
ENDBRANCH  33  38
ENDBRANCH   5  30
TORSDOF 8
