REMARK  Name = ZINC63686630
REMARK  11 active torsions:
REMARK  status: ('A' for Active; 'I' for Inactive)
REMARK    1  A    between atoms: C_1  and  C_2
REMARK    2  A    between atoms: C_2  and  N_3
REMARK    3  A    between atoms: C_4  and  C_24
REMARK    4  A    between atoms: C_8  and  S_10
REMARK    5  A    between atoms: S_10  and  C_11
REMARK    6  A    between atoms: C_11  and  C_12
REMARK    7  A    between atoms: C_24  and  O_25
REMARK    8  A    between atoms: O_25  and  C_26
REMARK    9  A    between atoms: C_29  and  C_32
REMARK   10  A    between atoms: C_32  and  C_33
REMARK   11  A    between atoms: C_32  and  C_34
REMARK                            x       y       z     vdW  Elec       q    Type
REMARK                         _______ _______ _______ _____ _____    ______ ____
ROOT
ATOM      1  N   UNL     1      -1.376  -0.512   0.012  0.00  0.00    -0.259 NA
ATOM      2  C   UNL     1      -1.402  -1.977  -0.185  0.00  0.00    +0.178 C 
ATOM      3  N   UNL     1      -2.064  -2.551   1.008  0.00  0.00    -0.234 NA
ATOM      4  N   UNL     1      -2.884  -1.451   1.539  0.00  0.00    -0.229 NA
ATOM      5  C   UNL     1      -2.026  -0.257   1.319  0.00  0.00    +0.200 C 
ATOM      6  H   UNL     1      -1.383  -2.856   1.688  0.00  0.00    +0.142 HD
ATOM      7  H   UNL     1      -3.753  -1.371   1.033  0.00  0.00    +0.143 HD
ENDROOT
BRANCH   1   9
ATOM      8  C   UNL     1      -0.019   1.526   0.010  0.00  0.00    +0.020 C 
ATOM      9  C   UNL     1       0.002  -0.004   0.002  0.00  0.00    +0.085 C 
ENDBRANCH   1   9
BRANCH   5  10
ATOM     10  S   UNL     1      -3.039   1.246   1.240  0.00  0.00    -0.119 S 
BRANCH  10  11
ATOM     11  C   UNL     1      -4.256   0.888  -0.057  0.00  0.00    +0.125 C 
BRANCH  11  12
ATOM     12  C   UNL     1      -5.173   2.072  -0.226  0.00  0.00    +0.030 A 
ATOM     13  N   UNL     1      -6.124   2.299   0.712  0.00  0.00    -0.356 N 
ATOM     14  C   UNL     1      -6.993   3.363   0.616  0.00  0.00    +0.069 A 
ATOM     15  C   UNL     1      -6.898   4.239  -0.479  0.00  0.00    +0.046 A 
ATOM     16  C   UNL     1      -7.773   5.319  -0.588  0.00  0.00    +0.014 A 
ATOM     17  C   UNL     1      -8.723   5.521   0.375  0.00  0.00    +0.002 A 
ATOM     18  C   UNL     1      -8.823   4.661   1.459  0.00  0.00    +0.022 A 
ATOM     19  C   UNL     1      -7.968   3.587   1.586  0.00  0.00    +0.065 A 
ATOM     20 CL   UNL     1      -8.105   2.518   2.947  0.00  0.00    -0.081 Cl
ATOM     21  C   UNL     1      -5.860   3.984  -1.493  0.00  0.00    +0.190 A 
ATOM     22  O   UNL     1      -5.734   4.714  -2.463  0.00  0.00    -0.287 OA
ATOM     23  C   UNL     1      -5.012   2.868  -1.303  0.00  0.00    +0.073 A 
ATOM     24  H   UNL     1      -6.194   1.697   1.470  0.00  0.00    +0.166 HD
ENDBRANCH  11  12
ENDBRANCH  10  11
ENDBRANCH   5  10
BRANCH   2  25
ATOM     25  C   UNL     1      -2.198  -2.322  -1.445  0.00  0.00    +0.265 C 
BRANCH  25  26
ATOM     26  O   UNL     1      -3.537  -1.843  -1.308  0.00  0.00    -0.489 OA
BRANCH  26  27
ATOM     27  C   UNL     1      -4.383  -2.070  -2.348  0.00  0.00    +0.121 A 
ATOM     28  C   UNL     1      -3.934  -2.744  -3.474  0.00  0.00    +0.046 A 
ATOM     29  C   UNL     1      -4.795  -2.974  -4.530  0.00  0.00    +0.007 A 
ATOM     30  C   UNL     1      -6.104  -2.531  -4.464  0.00  0.00    -0.045 A 
ATOM     31  C   UNL     1      -6.553  -1.858  -3.343  0.00  0.00    +0.007 A 
ATOM     32  C   UNL     1      -5.697  -1.632  -2.283  0.00  0.00    +0.046 A 
BRANCH  30  33
ATOM     33  C   UNL     1      -7.041  -2.783  -5.617  0.00  0.00    +0.013 C 
ATOM     34  C   UNL     1      -8.229  -3.618  -5.136  0.00  0.00    +0.012 C 
ATOM     35  C   UNL     1      -7.546  -1.446  -6.165  0.00  0.00    +0.012 C 
ENDBRANCH  30  33
ENDBRANCH  26  27
ENDBRANCH  25  26
ENDBRANCH   2  25
TORSDOF 8
