REMARK  Name = ZINC55614877
REMARK  10 active torsions:
REMARK  status: ('A' for Active; 'I' for Inactive)
REMARK    1  A    between atoms: C_1  and  C_2
REMARK    2  A    between atoms: C_4  and  S_12
REMARK    3  A    between atoms: C_7  and  O_8
REMARK    4  A    between atoms: O_8  and  C_9
REMARK    5  A    between atoms: C_9  and  C_10
REMARK    6  A    between atoms: C_9  and  C_11
REMARK    7  A    between atoms: S_12  and  N_15
REMARK    8  A    between atoms: N_15  and  C_16
REMARK    9  A    between atoms: C_18  and  C_24
REMARK   10  A    between atoms: C_21  and  C_22
REMARK                            x       y       z     vdW  Elec       q    Type
REMARK                         _______ _______ _______ _____ _____    ______ ____
ROOT
ATOM      1  N   UNL     1       1.536  -3.336  -3.448  0.00  0.00    -0.216 N 
ATOM      2  H   UNL     1       1.828  -2.878  -4.252  0.00  0.00    +0.174 HD
ENDROOT
BRANCH   1   3
ATOM      3  C   UNL     1       2.369  -4.275  -2.836  0.00  0.00    +0.054 A 
ATOM      4  C   UNL     1       1.823  -5.400  -2.236  0.00  0.00    +0.038 A 
ATOM      5  C   UNL     1       2.659  -6.335  -1.627  0.00  0.00    +0.041 A 
ATOM      6  C   UNL     1       4.040  -6.134  -1.624  0.00  0.00    +0.051 A 
ATOM      7  C   UNL     1       4.576  -5.010  -2.224  0.00  0.00    +0.129 A 
ATOM      8  C   UNL     1       3.746  -4.085  -2.834  0.00  0.00    +0.007 A 
ATOM      9  C   UNL     1       4.337  -2.865  -3.492  0.00  0.00    +0.049 C 
ATOM     10  F   UNL     1       5.913  -4.817  -2.220  0.00  0.00    -0.205 F 
BRANCH   5  11
ATOM     11  C   UNL     1       2.083  -7.537  -0.985  0.00  0.00    +0.242 C 
ATOM     12  O   UNL     1       0.880  -7.710  -0.988  0.00  0.00    -0.270 OA
ATOM     13  N   UNL     1       2.892  -8.440  -0.396  0.00  0.00    -0.325 N 
ATOM     14  H   UNL     1       3.852  -8.301  -0.393  0.00  0.00    +0.145 HD
ATOM     15  H   UNL     1       2.515  -9.228   0.025  0.00  0.00    +0.145 HD
ENDBRANCH   5  11
ENDBRANCH   1   3
BRANCH   1  16
ATOM     16  S   UNL     1       0.048  -3.003  -2.801  0.00  0.00    +0.072 S 
ATOM     17  O   UNL     1      -0.625  -4.247  -2.669  0.00  0.00    -0.150 OA
ATOM     18  O   UNL     1      -0.488  -1.922  -3.551  0.00  0.00    -0.150 OA
BRANCH  16  22
ATOM     19  C   UNL     1       0.877   0.909   0.564  0.00  0.00    +0.047 C 
ATOM     20  C   UNL     1       0.692  -0.568   0.329  0.00  0.00    -0.007 A 
ATOM     21  C   UNL     1       0.484  -1.044  -0.951  0.00  0.00    +0.035 A 
ATOM     22  C   UNL     1       0.315  -2.399  -1.167  0.00  0.00    +0.109 A 
ATOM     23  C   UNL     1       0.352  -3.281  -0.102  0.00  0.00    +0.032 A 
ATOM     24  C   UNL     1       0.560  -2.811   1.179  0.00  0.00    +0.048 A 
ATOM     25  C   UNL     1       0.737  -1.452   1.398  0.00  0.00    +0.124 A 
BRANCH  25  26
ATOM     26  O   UNL     1       0.947  -0.987   2.657  0.00  0.00    -0.489 OA
BRANCH  26  27
ATOM     27  C   UNL     1       0.884  -1.940   3.720  0.00  0.00    +0.167 C 
ATOM     28  C   UNL     1       1.690  -1.426   4.915  0.00  0.00    +0.051 C 
ATOM     29  C   UNL     1      -0.573  -2.144   4.137  0.00  0.00    +0.051 C 
ENDBRANCH  26  27
ENDBRANCH  25  26
ENDBRANCH  16  22
ENDBRANCH   1  16
TORSDOF 6
