REMARK  Name = ZINC12474791
REMARK  9 active torsions:
REMARK  status: ('A' for Active; 'I' for Inactive)
REMARK    1  A    between atoms: C_1  and  C_2
REMARK    2  A    between atoms: C_2  and  C_4
REMARK    3  A    between atoms: C_8  and  N_10
REMARK    4  A    between atoms: N_10  and  C_11
REMARK    5  A    between atoms: C_11  and  C_13
REMARK    6  A    between atoms: C_11  and  C_19
REMARK    7  A    between atoms: N_21  and  C_22
REMARK    8  A    between atoms: C_28  and  C_30
REMARK    9  A    between atoms: C_30  and  C_31
REMARK                            x       y       z     vdW  Elec       q    Type
REMARK                         _______ _______ _______ _____ _____    ______ ____
ROOT
ATOM      1  N   UNL     1       1.177   1.847  -0.373  0.00  0.00    -0.255 N 
ATOM      2  C   UNL     1       0.133   1.173  -0.894  0.00  0.00    +0.225 C 
ATOM      3  O   UNL     1       0.079  -0.035  -0.792  0.00  0.00    -0.275 OA
ENDROOT
BRANCH   1   8
ATOM      4  C   UNL     1       2.385   5.080  -1.672  0.00  0.00    +0.019 A 
ATOM      5  C   UNL     1       1.526   5.962  -1.007  0.00  0.00    +0.011 A 
ATOM      6  C   UNL     1       0.568   5.471  -0.145  0.00  0.00    +0.002 A 
ATOM      7  C   UNL     1       0.448   4.108   0.060  0.00  0.00    +0.023 A 
ATOM      8  C   UNL     1       1.300   3.224  -0.590  0.00  0.00    +0.038 A 
ATOM      9  C   UNL     1       2.267   3.704  -1.459  0.00  0.00    +0.035 A 
BRANCH   4  11
ATOM     10  C   UNL     1       3.534   7.085  -2.820  0.00  0.00    +0.091 C 
ATOM     11  C   UNL     1       3.409   5.600  -2.593  0.00  0.00    +0.160 C 
ATOM     12  O   UNL     1       4.152   4.834  -3.168  0.00  0.00    -0.292 OA
ENDBRANCH   4  11
ENDBRANCH   1   8
BRANCH   1  13
ATOM     13  C   UNL     1       2.184   1.138   0.421  0.00  0.00    +0.197 C 
BRANCH  13  14
ATOM     14  C   UNL     1       3.302   2.084   0.775  0.00  0.00    -0.018 A 
ATOM     15  C   UNL     1       3.029   3.246   1.473  0.00  0.00    +0.006 A 
ATOM     16  C   UNL     1       4.055   4.112   1.802  0.00  0.00    +0.000 A 
ATOM     17  C   UNL     1       5.353   3.821   1.425  0.00  0.00    +0.000 A 
ATOM     18  C   UNL     1       5.625   2.661   0.723  0.00  0.00    +0.000 A 
ATOM     19  C   UNL     1       4.599   1.793   0.398  0.00  0.00    +0.006 A 
ENDBRANCH  13  14
BRANCH  13  20
ATOM     20  C   UNL     1       1.550   0.614   1.683  0.00  0.00    +0.239 C 
ATOM     21  O   UNL     1       0.373   0.812   1.899  0.00  0.00    -0.273 OA
ATOM     22  N   UNL     1       2.291  -0.076   2.573  0.00  0.00    -0.311 N 
ATOM     23  H   UNL     1       3.232  -0.236   2.401  0.00  0.00    +0.149 HD
BRANCH  22  24
ATOM     24  C   UNL     1       1.675  -0.586   3.801  0.00  0.00    +0.073 C 
ATOM     25  C   UNL     1       1.681   0.511   4.867  0.00  0.00    +0.022 C 
ATOM     26  C   UNL     1       1.037  -0.021   6.150  0.00  0.00    +0.002 C 
ATOM     27  C   UNL     1       1.830  -1.229   6.655  0.00  0.00    +0.000 C 
ATOM     28  C   UNL     1       1.824  -2.325   5.588  0.00  0.00    +0.002 C 
ATOM     29  C   UNL     1       2.467  -1.793   4.306  0.00  0.00    +0.022 C 
ENDBRANCH  22  24
ENDBRANCH  13  20
ENDBRANCH   1  13
BRANCH   2  30
ATOM     30  C   UNL     1      -0.964   1.919  -1.609  0.00  0.00    +0.133 C 
BRANCH  30  31
ATOM     31  C   UNL     1      -2.033   0.948  -2.040  0.00  0.00    -0.014 A 
ATOM     32  C   UNL     1      -2.143   0.362  -3.243  0.00  0.00    +0.087 A 
ATOM     33  N   UNL     1      -3.237  -0.459  -3.265  0.00  0.00    -0.360 N 
ATOM     34  H   UNL     1      -3.520  -0.990  -4.026  0.00  0.00    +0.165 HD
ATOM     35  C   UNL     1      -3.880  -0.414  -2.048  0.00  0.00    +0.047 A 
ATOM     36  C   UNL     1      -3.154   0.469  -1.228  0.00  0.00    +0.003 A 
ATOM     37  C   UNL     1      -3.579   0.712   0.080  0.00  0.00    +0.010 A 
ATOM     38  C   UNL     1      -4.698   0.091   0.557  0.00  0.00    +0.001 A 
ATOM     39  C   UNL     1      -5.418  -0.781  -0.249  0.00  0.00    +0.002 A 
ATOM     40  C   UNL     1      -5.017  -1.035  -1.542  0.00  0.00    +0.026 A 
ENDBRANCH  30  31
ENDBRANCH   2  30
TORSDOF 8
