REMARK  Name = ZINC12471117
REMARK  9 active torsions:
REMARK  status: ('A' for Active; 'I' for Inactive)
REMARK    1  A    between atoms: C_1  and  C_2
REMARK    2  A    between atoms: C_3  and  C_30
REMARK    3  A    between atoms: N_4  and  C_25
REMARK    4  A    between atoms: C_5  and  N_9
REMARK    5  A    between atoms: C_6  and  C_7
REMARK    6  A    between atoms: C_10  and  C_12
REMARK    7  A    between atoms: C_12  and  S_13
REMARK    8  A    between atoms: S_13  and  C_14
REMARK    9  A    between atoms: C_17  and  C_20
REMARK                            x       y       z     vdW  Elec       q    Type
REMARK                         _______ _______ _______ _____ _____    ______ ____
ROOT
ATOM      1  N   UNL     1      -0.003   0.969   0.372  0.00  0.00    -0.270 N 
ATOM      2  C   UNL     1      -0.101   0.053   1.356  0.00  0.00    +0.229 C 
ATOM      3  O   UNL     1       0.828  -0.122   2.116  0.00  0.00    -0.275 OA
ATOM      4  H   UNL     1      -0.754   1.127  -0.221  0.00  0.00    +0.156 HD
ENDROOT
BRANCH   1   9
ATOM      5  C   UNL     1       4.865   2.293   0.066  0.00  0.00    +0.047 C 
ATOM      6  C   UNL     1       3.358   2.321   0.066  0.00  0.00    -0.011 A 
ATOM      7  C   UNL     1       2.576   3.389  -0.163  0.00  0.00    +0.022 A 
ATOM      8  N   UNL     1       1.262   3.015  -0.077  0.00  0.00    -0.329 N 
ATOM      9  C   UNL     1       1.171   1.690   0.210  0.00  0.00    +0.124 A 
ATOM     10  C   UNL     1       2.460   1.188   0.320  0.00  0.00    +0.095 A 
ATOM     11  C   UNL     1       3.068   4.781  -0.466  0.00  0.00    +0.064 C 
BRANCH   8  12
ATOM     12  C   UNL     1       0.120   3.912  -0.266  0.00  0.00    +0.089 C 
ATOM     13  C   UNL     1      -0.826   3.827   0.949  0.00  0.00    +0.025 C 
ATOM     14  C   UNL     1      -2.244   3.942   0.334  0.00  0.00    +0.002 C 
ATOM     15  C   UNL     1      -2.113   3.135  -0.982  0.00  0.00    +0.002 C 
ATOM     16  C   UNL     1      -0.698   3.473  -1.493  0.00  0.00    +0.025 C 
ENDBRANCH   8  12
BRANCH  10  17
ATOM     17  C   UNL     1       2.837  -0.161   0.617  0.00  0.00    +0.103 C 
ATOM     18  N   UNL     1       3.137  -1.231   0.852  0.00  0.00    -0.191 NA
ENDBRANCH  10  17
ENDBRANCH   1   9
BRANCH   2  19
ATOM     19  C   UNL     1      -1.364  -0.754   1.511  0.00  0.00    +0.173 C 
BRANCH  19  20
ATOM     20  S   UNL     1      -1.125  -2.009   2.793  0.00  0.00    -0.077 S 
BRANCH  20  21
ATOM     21  C   UNL     1      -2.708  -2.781   2.764  0.00  0.00    +0.190 A 
ATOM     22  N   UNL     1      -3.115  -3.826   3.546  0.00  0.00    -0.316 N 
ATOM     23  H   UNL     1      -2.595  -4.289   4.223  0.00  0.00    +0.169 HD
ATOM     24  C   UNL     1      -4.415  -4.084   3.174  0.00  0.00    +0.169 A 
ATOM     25  N   UNL     1      -4.722  -3.224   2.228  0.00  0.00    -0.128 NA
ATOM     26  N   UNL     1      -3.720  -2.456   1.992  0.00  0.00    -0.122 NA
BRANCH  24  27
ATOM     27  C   UNL     1      -5.295  -5.126   3.729  0.00  0.00    +0.056 A 
ATOM     28  C   UNL     1      -6.593  -5.425   3.403  0.00  0.00    +0.019 A 
ATOM     29  C   UNL     1      -7.219  -6.459   4.063  0.00  0.00    +0.008 A 
ATOM     30  C   UNL     1      -6.539  -7.141   5.020  0.00  0.00    +0.046 A 
ATOM     31  S   UNL     1      -4.952  -6.324   5.008  0.00  0.00    -0.094 S 
ENDBRANCH  24  27
ENDBRANCH  20  21
ENDBRANCH  19  20
ENDBRANCH   2  19
TORSDOF 7
