REMARK  Name = ZINC20682919
REMARK  6 active torsions:
REMARK  status: ('A' for Active; 'I' for Inactive)
REMARK    1  A    between atoms: C_1  and  C_2
REMARK    2  A    between atoms: C_2  and  C_4
REMARK    3  A    between atoms: C_2  and  N_20
REMARK    4  A    between atoms: N_9  and  C_10
REMARK    5  A    between atoms: N_23  and  S_26
REMARK    6  A    between atoms: S_26  and  C_29
REMARK                            x       y       z     vdW  Elec       q    Type
REMARK                         _______ _______ _______ _____ _____    ______ ____
ROOT
ATOM      1  C   UNL     1      -9.420   1.227   0.936  0.00  0.00    -0.004 C 
ATOM      2  C   UNL     1      -8.606   0.679   2.110  0.00  0.00    +0.017 C 
ENDROOT
BRANCH   2   3
ATOM      3  C   UNL     1      -7.215   1.258   2.070  0.00  0.00    +0.207 C 
ATOM      4  O   UNL     1      -6.897   2.124   2.857  0.00  0.00    -0.277 OA
ATOM      5  N   UNL     1      -6.326   0.814   1.160  0.00  0.00    -0.242 N 
ATOM      6  C   UNL     1      -5.082   1.333   1.124  0.00  0.00    +0.306 C 
ATOM      7  O   UNL     1      -4.763   2.200   1.913  0.00  0.00    -0.252 OA
ATOM      8  N   UNL     1      -4.193   0.889   0.214  0.00  0.00    -0.294 N 
ATOM      9  H   UNL     1      -6.615   0.029   0.446  0.00  0.00    +0.159 HD
ATOM     10  H   UNL     1      -4.482   0.103  -0.500  0.00  0.00    +0.151 HD
BRANCH   8  11
ATOM     11  C   UNL     1      -2.841   1.452   0.175  0.00  0.00    +0.037 C 
ATOM     12  C   UNL     1      -2.040   0.779  -0.941  0.00  0.00    +0.029 C 
ATOM     13  C   UNL     1      -0.628   1.367  -0.981  0.00  0.00    -0.008 C 
ATOM     14  C   UNL     1       0.064   1.124   0.361  0.00  0.00    +0.007 C 
ATOM     15  C   UNL     1      -0.737   1.797   1.478  0.00  0.00    -0.008 C 
ATOM     16  C   UNL     1      -2.149   1.209   1.518  0.00  0.00    +0.029 C 
ATOM     17  C   UNL     1      -0.819   3.301   1.211  0.00  0.00    +0.007 C 
ATOM     18  C   UNL     1      -1.511   3.545  -0.131  0.00  0.00    -0.008 C 
ATOM     19  C   UNL     1      -0.710   2.872  -1.248  0.00  0.00    +0.007 C 
ATOM     20  C   UNL     1      -2.923   2.956  -0.091  0.00  0.00    +0.029 C 
ENDBRANCH   8  11
ENDBRANCH   2   3
BRANCH   2  21
ATOM     21  N   UNL     1      -9.256   1.052   3.373  0.00  0.00    +0.389 N 
ATOM     22  C   UNL     1     -10.430   0.208   3.630  0.00  0.00    -0.060 C 
ATOM     23  C   UNL     1     -10.970   0.503   5.034  0.00  0.00    +0.091 C 
ATOM     24  N   UNL     1     -11.207   1.950   5.148  0.00  0.00    -0.180 NA
ATOM     25  C   UNL     1     -10.118   2.865   4.775  0.00  0.00    +0.091 C 
ATOM     26  C   UNL     1      -9.612   2.477   3.381  0.00  0.00    -0.060 C 
ATOM     27  H   UNL     1      -8.537   0.882   4.188  0.00  0.00    -0.081 HD
BRANCH  24  28
ATOM     28  S   UNL     1     -12.662   2.533   5.683  0.00  0.00    +0.061 S 
ATOM     29  O   UNL     1     -13.253   1.500   6.460  0.00  0.00    -0.153 OA
ATOM     30  O   UNL     1     -12.412   3.831   6.205  0.00  0.00    -0.153 OA
BRANCH  28  31
ATOM     31  C   UNL     1     -13.689   2.749   4.268  0.00  0.00    +0.106 A 
ATOM     32  C   UNL     1     -13.692   3.956   3.594  0.00  0.00    +0.031 A 
ATOM     33  C   UNL     1     -14.494   4.125   2.481  0.00  0.00    +0.040 A 
ATOM     34  C   UNL     1     -15.303   3.088   2.047  0.00  0.00    +0.124 A 
ATOM     35  C   UNL     1     -15.303   1.881   2.726  0.00  0.00    +0.040 A 
ATOM     36  C   UNL     1     -14.496   1.713   3.836  0.00  0.00    +0.031 A 
ATOM     37  F   UNL     1     -16.090   3.253   0.962  0.00  0.00    -0.205 F 
ENDBRANCH  28  31
ENDBRANCH  24  28
ENDBRANCH   2  21
TORSDOF 5
