REMARK  Name = ZINC35313042
REMARK  3 active torsions:
REMARK  status: ('A' for Active; 'I' for Inactive)
REMARK    1  A    between atoms: C_1  and  C_2
REMARK    2  A    between atoms: C_13  and  C_15
REMARK    3  A    between atoms: C_16  and  N_31
REMARK                            x       y       z     vdW  Elec       q    Type
REMARK                         _______ _______ _______ _____ _____    ______ ____
ROOT
ATOM      1  C   UNL     1       2.467  -0.181   2.821  0.00  0.00    +0.097 A 
ATOM      2  C   UNL     1       3.298   0.515   3.667  0.00  0.00    +0.053 A 
ATOM      3  C   UNL     1       4.074  -0.233   4.649  0.00  0.00    +0.028 A 
ATOM      4  C   UNL     1       4.977   0.277   5.603  0.00  0.00    +0.022 A 
ATOM      5  C   UNL     1       5.626  -0.613   6.460  0.00  0.00    +0.003 A 
ATOM      6  C   UNL     1       6.542  -0.169   7.433  0.00  0.00    +0.059 A 
ATOM      7  C   UNL     1       7.156  -1.075   8.247  0.00  0.00    +0.167 A 
ATOM      8  C   UNL     1       6.893  -2.451   8.137  0.00  0.00    +0.168 A 
ATOM      9  C   UNL     1       6.012  -2.934   7.211  0.00  0.00    +0.075 A 
ATOM     10  C   UNL     1       5.352  -2.047   6.346  0.00  0.00    +0.051 A 
ATOM     11  N   UNL     1       4.486  -2.476   5.426  0.00  0.00    -0.349 N 
ATOM     12  C   UNL     1       3.877  -1.639   4.621  0.00  0.00    +0.088 A 
ATOM     13  S   UNL     1       2.689  -1.876   3.320  0.00  0.00    -0.064 S 
ATOM     14  O   UNL     1       7.643  -3.108   9.071  0.00  0.00    -0.453 OA
ATOM     15  C   UNL     1       8.668  -2.179   9.467  0.00  0.00    +0.466 C 
ATOM     16  O   UNL     1       8.068  -0.889   9.249  0.00  0.00    -0.453 OA
ATOM     17  H   UNL     1       4.303  -3.426   5.351  0.00  0.00    +0.166 HD
ENDROOT
BRANCH   1  29
ATOM     18  C   UNL     1      -0.428   0.870   0.119  0.00  0.00    +0.028 C 
ATOM     19  C   UNL     1       0.858   0.346  -0.523  0.00  0.00    +0.079 C 
ATOM     20  C   UNL     1       0.545  -0.885  -1.383  0.00  0.00    +0.027 C 
ATOM     21  C   UNL     1       1.831  -1.349  -2.069  0.00  0.00    +0.039 C 
ATOM     22  C   UNL     1       2.937  -1.510  -1.060  0.00  0.00    -0.023 A 
ATOM     23  C   UNL     1       4.021  -2.312  -1.378  0.00  0.00    +0.043 A 
ATOM     24  C   UNL     1       5.055  -2.478  -0.474  0.00  0.00    +0.124 A 
ATOM     25  C   UNL     1       5.012  -1.842   0.755  0.00  0.00    +0.040 A 
ATOM     26  C   UNL     1       3.934  -1.043   1.078  0.00  0.00    +0.026 A 
ATOM     27  C   UNL     1       2.893  -0.876   0.171  0.00  0.00    +0.040 A 
ATOM     28  N   UNL     1       1.804  -0.065   0.523  0.00  0.00    -0.264 N 
ATOM     29  C   UNL     1       1.628   0.329   1.800  0.00  0.00    +0.260 C 
ATOM     30  O   UNL     1       0.748   1.125   2.076  0.00  0.00    -0.269 OA
ATOM     31  F   UNL     1       6.109  -3.262  -0.791  0.00  0.00    -0.205 F 
ENDBRANCH   1  29
BRANCH   2  32
ATOM     32  N   UNL     1       3.397   1.897   3.587  0.00  0.00    -0.356 N 
ATOM     33  H   UNL     1       2.875   2.383   2.929  0.00  0.00    +0.142 HD
ATOM     34  H   UNL     1       3.987   2.377   4.189  0.00  0.00    +0.142 HD
ENDBRANCH   2  32
TORSDOF 2
