REMARK  Name = ZINC00663568
REMARK  7 active torsions:
REMARK  status: ('A' for Active; 'I' for Inactive)
REMARK    1  A    between atoms: C_1  and  C_2
REMARK    2  A    between atoms: C_2  and  C_3
REMARK    3  A    between atoms: C_2  and  O_4
REMARK    4  A    between atoms: O_4  and  C_5
REMARK    5  A    between atoms: C_10  and  C_11
REMARK    6  A    between atoms: C_25  and  N_29
REMARK    7  A    between atoms: C_26  and  C_27
REMARK                            x       y       z     vdW  Elec       q    Type
REMARK                         _______ _______ _______ _____ _____    ______ ____
ROOT
ATOM      1  C   UNL     1       2.282   1.791  -0.110  0.00  0.00    +0.108 C 
ATOM      2  C   UNL     1       1.056   2.651  -0.262  0.00  0.00    +0.092 A 
ATOM      3  C   UNL     1      -0.186   2.089  -0.290  0.00  0.00    +0.152 A 
ATOM      4  C   UNL     1      -1.349   2.980  -0.433  0.00  0.00    +0.060 A 
ATOM      5  C   UNL     1      -2.648   2.469  -0.470  0.00  0.00    +0.015 A 
ATOM      6  C   UNL     1      -3.713   3.330  -0.610  0.00  0.00    +0.001 A 
ATOM      7  C   UNL     1      -3.500   4.696  -0.718  0.00  0.00    +0.004 A 
ATOM      8  C   UNL     1      -2.222   5.213  -0.687  0.00  0.00    +0.047 A 
ATOM      9  C   UNL     1      -1.133   4.363  -0.547  0.00  0.00    +0.143 A 
ATOM     10  O   UNL     1       0.125   4.850  -0.514  0.00  0.00    -0.422 OA
ATOM     11  C   UNL     1       1.190   4.045  -0.377  0.00  0.00    +0.345 A 
ATOM     12  O   UNL     1       2.305   4.537  -0.352  0.00  0.00    -0.245 OA
ATOM     13  O   UNL     1      -0.361   0.758  -0.186  0.00  0.00    -0.440 OA
ATOM     14  C   UNL     1       0.619  -0.010   0.324  0.00  0.00    +0.199 C 
ATOM     15  C   UNL     1       1.900   0.425   0.389  0.00  0.00    +0.098 C 
ENDROOT
BRANCH   1  21
ATOM     16  C   UNL     1       4.267   2.121  -1.606  0.00  0.00    +0.125 A 
ATOM     17  C   UNL     1       4.899   1.995  -2.835  0.00  0.00    +0.046 A 
ATOM     18  C   UNL     1       4.229   1.421  -3.898  0.00  0.00    +0.004 A 
ATOM     19  C   UNL     1       2.933   0.968  -3.737  0.00  0.00    +0.001 A 
ATOM     20  C   UNL     1       2.303   1.088  -2.512  0.00  0.00    +0.008 A 
ATOM     21  C   UNL     1       2.969   1.661  -1.445  0.00  0.00    +0.007 A 
BRANCH  16  22
ATOM     22  O   UNL     1       4.922   2.690  -0.559  0.00  0.00    -0.489 OA
BRANCH  22  24
ATOM     23  C   UNL     1       6.519   4.335   0.203  0.00  0.00    +0.051 C 
ATOM     24  C   UNL     1       6.212   3.245  -0.825  0.00  0.00    +0.167 C 
ATOM     25  C   UNL     1       7.270   2.143  -0.732  0.00  0.00    +0.051 C 
ENDBRANCH  22  24
ENDBRANCH  16  22
ENDBRANCH   1  21
BRANCH  14  26
ATOM     26  N   UNL     1       0.313  -1.264   0.791  0.00  0.00    -0.328 N 
ATOM     27  H   UNL     1      -0.601  -1.587   0.750  0.00  0.00    +0.145 HD
ATOM     28  H   UNL     1       1.010  -1.827   1.161  0.00  0.00    +0.145 HD
ENDBRANCH  14  26
BRANCH  15  29
ATOM     29  C   UNL     1       2.907  -0.429   0.942  0.00  0.00    +0.101 C 
ATOM     30  N   UNL     1       3.706  -1.107   1.381  0.00  0.00    -0.191 NA
ENDBRANCH  15  29
TORSDOF 5
