REMARK  Name = ZINC34498392
REMARK  8 active torsions:
REMARK  status: ('A' for Active; 'I' for Inactive)
REMARK    1  A    between atoms: C_3  and  N_27
REMARK    2  A    between atoms: C_6  and  O_19
REMARK    3  A    between atoms: C_8  and  C_10
REMARK    4  A    between atoms: C_10  and  O_11
REMARK    5  A    between atoms: O_11  and  C_12
REMARK    6  A    between atoms: C_12  and  C_13
REMARK    7  A    between atoms: O_19  and  C_20
REMARK    8  A    between atoms: C_20  and  C_21
REMARK                            x       y       z     vdW  Elec       q    Type
REMARK                         _______ _______ _______ _____ _____    ______ ____
ROOT
ATOM      1  C   UNL     1      -0.016   1.306   0.009  0.00  0.00    +0.010 C 
ATOM      2  C   UNL     1       0.002  -0.004   0.002  0.00  0.00    -0.046 C 
ATOM      3  C   UNL     1      -1.209  -0.920   0.002  0.00  0.00    +0.118 C 
ATOM      4  C   UNL     1      -0.691  -2.244  -0.613  0.00  0.00    +0.062 C 
ATOM      5  C   UNL     1       0.739  -2.346  -0.024  0.00  0.00    +0.130 C 
ATOM      6  C   UNL     1       1.234  -0.885  -0.015  0.00  0.00    +0.071 C 
ENDROOT
BRANCH   3   7
ATOM      7  N   UNL     1      -2.279  -0.354  -0.823  0.00  0.00    -0.308 N 
ATOM      8  C   UNL     1      -2.197  -0.045  -2.150  0.00  0.00    +0.202 A 
ATOM      9  N   UNL     1      -3.333   0.438  -2.560  0.00  0.00    -0.229 NA
ATOM     10  C   UNL     1      -4.209   0.468  -1.526  0.00  0.00    +0.172 A 
ATOM     11  C   UNL     1      -3.545  -0.044  -0.405  0.00  0.00    +0.170 A 
ATOM     12  N   UNL     1      -4.189  -0.133   0.764  0.00  0.00    -0.196 NA
ATOM     13  H   UNL     1      -7.065   1.027  -0.056  0.00  0.00    +0.172 HD
ATOM     14  C   UNL     1      -5.441   0.250   0.880  0.00  0.00    +0.195 A 
ATOM     15  N   UNL     1      -6.142   0.753  -0.175  0.00  0.00    -0.293 N 
ATOM     16  C   UNL     1      -5.554   0.881  -1.386  0.00  0.00    +0.280 A 
ATOM     17  O   UNL     1      -6.173   1.328  -2.336  0.00  0.00    -0.265 OA
ATOM     18  N   UNL     1      -6.061   0.140   2.099  0.00  0.00    -0.329 N 
ATOM     19  H   UNL     1      -6.985   0.418   2.201  0.00  0.00    +0.145 HD
ATOM     20  H   UNL     1      -5.576  -0.217   2.860  0.00  0.00    +0.145 HD
ENDBRANCH   3   7
BRANCH   6  21
ATOM     21  C   UNL     1       2.062  -0.602  -1.270  0.00  0.00    +0.170 C 
BRANCH  21  22
ATOM     22  O   UNL     1       2.590   0.724  -1.204  0.00  0.00    -0.375 OA
BRANCH  22  23
ATOM     23  C   UNL     1       3.383   1.091  -2.334  0.00  0.00    +0.195 C 
BRANCH  23  24
ATOM     24  C   UNL     1       3.885   2.501  -2.159  0.00  0.00    -0.022 A 
ATOM     25  C   UNL     1       3.135   3.565  -2.625  0.00  0.00    +0.006 A 
ATOM     26  C   UNL     1       3.595   4.858  -2.465  0.00  0.00    +0.000 A 
ATOM     27  C   UNL     1       4.805   5.088  -1.838  0.00  0.00    +0.000 A 
ATOM     28  C   UNL     1       5.555   4.025  -1.371  0.00  0.00    +0.000 A 
ATOM     29  C   UNL     1       5.093   2.732  -1.527  0.00  0.00    +0.006 A 
ENDBRANCH  23  24
ENDBRANCH  22  23
ENDBRANCH  21  22
ENDBRANCH   6  21
BRANCH   5  30
ATOM     30  O   UNL     1       0.699  -2.880   1.301  0.00  0.00    -0.371 OA
BRANCH  30  31
ATOM     31  C   UNL     1       0.829  -4.302   1.359  0.00  0.00    +0.195 C 
BRANCH  31  32
ATOM     32  C   UNL     1       0.774  -4.753   2.796  0.00  0.00    -0.022 A 
ATOM     33  C   UNL     1       1.938  -4.843   3.537  0.00  0.00    +0.006 A 
ATOM     34  C   UNL     1       1.887  -5.257   4.855  0.00  0.00    +0.000 A 
ATOM     35  C   UNL     1       0.673  -5.581   5.432  0.00  0.00    +0.000 A 
ATOM     36  C   UNL     1      -0.490  -5.490   4.691  0.00  0.00    +0.000 A 
ATOM     37  C   UNL     1      -0.440  -5.072   3.374  0.00  0.00    +0.006 A 
ENDBRANCH  31  32
ENDBRANCH  30  31
ENDBRANCH   5  30
TORSDOF 8
