REMARK  Name = ZINC00956172
REMARK  7 active torsions:
REMARK  status: ('A' for Active; 'I' for Inactive)
REMARK    1  A    between atoms: C_1  and  C_2
REMARK    2  A    between atoms: N_7  and  C_9
REMARK    3  A    between atoms: C_9  and  C_10
REMARK    4  A    between atoms: C_11  and  O_33
REMARK    5  A    between atoms: C_17  and  C_29
REMARK    6  A    between atoms: C_18  and  O_21
REMARK    7  A    between atoms: O_21  and  C_22
REMARK                            x       y       z     vdW  Elec       q    Type
REMARK                         _______ _______ _______ _____ _____    ______ ____
ROOT
ATOM      1  C   UNL     1       1.650  -3.543   2.728  0.00  0.00    +0.020 A 
ATOM      2  C   UNL     1       0.549  -3.973   3.449  0.00  0.00    +0.122 A 
ATOM      3  C   UNL     1       0.291  -5.333   3.606  0.00  0.00    +0.046 A 
ATOM      4  C   UNL     1       1.124  -6.263   3.050  0.00  0.00    +0.019 A 
ATOM      5  C   UNL     1       2.237  -5.846   2.321  0.00  0.00    +0.068 A 
ATOM      6  C   UNL     1       2.502  -4.475   2.152  0.00  0.00    +0.144 A 
ATOM      7  O   UNL     1       3.579  -4.083   1.440  0.00  0.00    -0.447 OA
ATOM      8  C   UNL     1       4.420  -4.957   0.872  0.00  0.00    +0.254 A 
ATOM      9  C   UNL     1       4.258  -6.292   0.966  0.00  0.00    +0.222 A 
ATOM     10  C   UNL     1       3.159  -6.816   1.706  0.00  0.00    +0.235 A 
ATOM     11  O   UNL     1       2.982  -8.018   1.813  0.00  0.00    -0.283 OA
ENDROOT
BRANCH   8  12
ATOM     12  C   UNL     1       5.597  -4.426   0.095  0.00  0.00    +0.454 C 
ATOM     13  F   UNL     1       6.416  -5.490  -0.297  0.00  0.00    -0.163 F 
ATOM     14  F   UNL     1       5.139  -3.747  -1.039  0.00  0.00    -0.163 F 
ATOM     15  F   UNL     1       6.329  -3.546   0.901  0.00  0.00    -0.163 F 
ENDBRANCH   8  12
BRANCH   2  16
ATOM     16  O   UNL     1      -0.287  -3.061   4.008  0.00  0.00    -0.506 OA
ATOM     17  H   UNL     1      -1.015  -2.790   3.432  0.00  0.00    +0.292 HD
ENDBRANCH   2  16
BRANCH   1  18
ATOM     18  C   UNL     1       1.919  -2.070   2.565  0.00  0.00    -0.036 C 
BRANCH  18  24
ATOM     19  C   UNL     1       0.787   1.923  -0.032  0.00  0.00    +0.005 C 
ATOM     20  C   UNL     1       0.621   0.405   0.059  0.00  0.00    -0.031 C 
ATOM     21  C   UNL     1       1.170  -0.246  -1.213  0.00  0.00    -0.001 C 
ATOM     22  C   UNL     1       1.071  -1.769  -1.079  0.00  0.00    -0.018 C 
ATOM     23  C   UNL     1       1.828  -2.215   0.174  0.00  0.00    -0.078 C 
ATOM     24  N   UNL     1       1.240  -1.579   1.358  0.00  0.00    +0.383 N 
ATOM     25  C   UNL     1       1.394  -0.121   1.270  0.00  0.00    -0.075 C 
ATOM     26  H   UNL     1       0.259  -1.809   1.410  0.00  0.00    -0.081 HD
ENDBRANCH  18  24
ENDBRANCH   1  18
BRANCH   9  27
ATOM     27  O   UNL     1       5.145  -7.134   0.368  0.00  0.00    -0.447 OA
BRANCH  27  28
ATOM     28  C   UNL     1       4.705  -7.891  -0.671  0.00  0.00    +0.147 A 
ATOM     29  C   UNL     1       3.422  -7.712  -1.167  0.00  0.00    +0.048 A 
ATOM     30  C   UNL     1       2.977  -8.482  -2.224  0.00  0.00    +0.004 A 
ATOM     31  C   UNL     1       3.809  -9.433  -2.786  0.00  0.00    +0.002 A 
ATOM     32  C   UNL     1       5.088  -9.615  -2.294  0.00  0.00    +0.024 A 
ATOM     33  C   UNL     1       5.540  -8.842  -1.241  0.00  0.00    +0.083 A 
ATOM     34 CL   UNL     1       7.149  -9.066  -0.627  0.00  0.00    -0.080 Cl
ENDBRANCH  27  28
ENDBRANCH   9  27
TORSDOF 6
