REMARK  Name = ZINC03767791
REMARK  13 active torsions:
REMARK  status: ('A' for Active; 'I' for Inactive)
REMARK    1  A    between atoms: C_1  and  C_2
REMARK    2  A    between atoms: C_2  and  N_3
REMARK    3  A    between atoms: C_5  and  C_12
REMARK    4  A    between atoms: C_13  and  C_14
REMARK    5  A    between atoms: C_13  and  N_29
REMARK    6  A    between atoms: N_16  and  C_17
REMARK    7  A    between atoms: C_17  and  C_18
REMARK    8  A    between atoms: C_18  and  C_19
REMARK    9  A    between atoms: C_30  and  C_32
REMARK   10  A    between atoms: C_35  and  O_40
REMARK   11  A    between atoms: C_36  and  O_38
REMARK   12  A    between atoms: O_38  and  C_39
REMARK   13  A    between atoms: O_40  and  C_41
REMARK                            x       y       z     vdW  Elec       q    Type
REMARK                         _______ _______ _______ _____ _____    ______ ____
ROOT
ATOM      1  C   UNL     1      -2.970   4.860  -0.042  0.00  0.00    +0.038 C 
ATOM      2  C   UNL     1      -4.274   5.171   0.173  0.00  0.00    +0.097 C 
ENDROOT
BRANCH   1   5
ATOM      3  N   UNL     1      -2.697   1.348  -0.989  0.00  0.00    -0.346 N 
ATOM      4  C   UNL     1      -3.415   2.485  -0.795  0.00  0.00    +0.094 A 
ATOM      5  C   UNL     1      -2.588   3.482  -0.362  0.00  0.00    +0.002 A 
ATOM      6  C   UNL     1      -1.234   2.903  -0.295  0.00  0.00    +0.007 A 
ATOM      7  C   UNL     1      -1.366   1.564  -0.697  0.00  0.00    +0.050 A 
ATOM      8  C   UNL     1      -0.240   0.748  -0.730  0.00  0.00    +0.026 A 
ATOM      9  C   UNL     1       0.990   1.259  -0.380  0.00  0.00    +0.002 A 
ATOM     10  C   UNL     1       1.120   2.583   0.013  0.00  0.00    +0.001 A 
ATOM     11  C   UNL     1       0.016   3.406   0.056  0.00  0.00    +0.010 A 
BRANCH   3  13
ATOM     12  C   UNL     1      -3.483  -0.843  -0.237  0.00  0.00    +0.027 C 
ATOM     13  C   UNL     1      -3.257   0.072  -1.442  0.00  0.00    +0.118 C 
ENDBRANCH   3  13
ENDBRANCH   1   5
BRANCH   2  14
ATOM     14  C   UNL     1      -4.674   6.568   0.346  0.00  0.00    +0.258 C 
ATOM     15  O   UNL     1      -5.844   6.847   0.539  0.00  0.00    -0.269 OA
ATOM     16  N   UNL     1      -3.748   7.546   0.292  0.00  0.00    -0.310 N 
ATOM     17  H   UNL     1      -2.817   7.324   0.139  0.00  0.00    +0.149 HD
BRANCH  16  18
ATOM     18  C   UNL     1      -4.149   8.945   0.465  0.00  0.00    +0.109 C 
BRANCH  18  19
ATOM     19  C   UNL     1      -2.917   9.845   0.360  0.00  0.00    +0.056 C 
BRANCH  19  20
ATOM     20  C   UNL     1      -3.329  11.284   0.538  0.00  0.00    -0.021 A 
ATOM     21  C   UNL     1      -3.606  12.162  -0.439  0.00  0.00    +0.087 A 
ATOM     22  N   UNL     1      -3.946  13.371   0.104  0.00  0.00    -0.360 N 
ATOM     23  H   UNL     1      -4.189  14.161  -0.404  0.00  0.00    +0.165 HD
ATOM     24  C   UNL     1      -3.886  13.302   1.477  0.00  0.00    +0.047 A 
ATOM     25  C   UNL     1      -3.497  11.991   1.810  0.00  0.00    +0.003 A 
ATOM     26  C   UNL     1      -3.353  11.626   3.150  0.00  0.00    +0.010 A 
ATOM     27  C   UNL     1      -3.591  12.545   4.133  0.00  0.00    +0.001 A 
ATOM     28  C   UNL     1      -3.975  13.839   3.810  0.00  0.00    +0.002 A 
ATOM     29  C   UNL     1      -4.123  14.221   2.494  0.00  0.00    +0.026 A 
ENDBRANCH  19  20
ENDBRANCH  18  19
ENDBRANCH  16  18
ENDBRANCH   2  14
BRANCH   2  30
ATOM     30  N   UNL     1      -5.237   4.153   0.230  0.00  0.00    -0.277 N 
ATOM     31  C   UNL     1      -6.249   4.133  -0.660  0.00  0.00    +0.248 C 
ATOM     32  O   UNL     1      -6.282   4.948  -1.563  0.00  0.00    -0.270 OA
ATOM     33  H   UNL     1      -5.175   3.464   0.909  0.00  0.00    +0.155 HD
BRANCH  31  34
ATOM     34  C   UNL     1      -7.318   3.123  -0.539  0.00  0.00    +0.041 A 
ATOM     35  C   UNL     1      -7.342   2.257   0.556  0.00  0.00    +0.017 A 
ATOM     36  C   UNL     1      -8.345   1.318   0.671  0.00  0.00    +0.050 A 
ATOM     37  C   UNL     1      -9.325   1.222  -0.307  0.00  0.00    +0.162 A 
ATOM     38  C   UNL     1      -9.304   2.080  -1.406  0.00  0.00    +0.162 A 
ATOM     39  C   UNL     1      -8.305   3.027  -1.524  0.00  0.00    +0.062 A 
BRANCH  38  40
ATOM     40  O   UNL     1     -10.267   1.984  -2.362  0.00  0.00    -0.491 OA
ATOM     41  C   UNL     1     -10.123   2.818  -3.514  0.00  0.00    +0.277 C 
ENDBRANCH  38  40
BRANCH  37  42
ATOM     42  O   UNL     1     -10.307   0.292  -0.193  0.00  0.00    -0.491 OA
ATOM     43  C   UNL     1     -10.269  -0.554   0.958  0.00  0.00    +0.277 C 
ENDBRANCH  37  42
ENDBRANCH  31  34
ENDBRANCH   2  30
TORSDOF 10
