REMARK  Name = ZINC16800538
REMARK  8 active torsions:
REMARK  status: ('A' for Active; 'I' for Inactive)
REMARK    1  A    between atoms: C_1  and  C_2
REMARK    2  A    between atoms: C_2  and  C_4
REMARK    3  A    between atoms: C_2  and  S_18
REMARK    4  A    between atoms: N_6  and  C_7
REMARK    5  A    between atoms: C_10  and  O_16
REMARK    6  A    between atoms: C_12  and  N_13
REMARK    7  A    between atoms: O_16  and  C_17
REMARK    8  A    between atoms: S_18  and  C_19
REMARK                            x       y       z     vdW  Elec       q    Type
REMARK                         _______ _______ _______ _____ _____    ______ ____
ROOT
ATOM      1  C   UNL     1       0.825   1.924   0.224  0.00  0.00    +0.029 C 
ATOM      2  C   UNL     1       0.824   0.406   0.034  0.00  0.00    +0.137 C 
ENDROOT
BRANCH   2   3
ATOM      3  C   UNL     1      -0.595  -0.083  -0.104  0.00  0.00    +0.230 C 
ATOM      4  O   UNL     1      -1.192  -0.495   0.868  0.00  0.00    -0.274 OA
ATOM      5  N   UNL     1      -1.201  -0.061  -1.308  0.00  0.00    -0.283 N 
ATOM      6  H   UNL     1      -0.700   0.194  -2.099  0.00  0.00    +0.155 HD
BRANCH   5   7
ATOM      7  C   UNL     1      -2.554  -0.407  -1.418  0.00  0.00    +0.064 A 
ATOM      8  C   UNL     1      -3.439  -0.079  -0.400  0.00  0.00    +0.029 A 
ATOM      9  C   UNL     1      -4.773  -0.419  -0.508  0.00  0.00    +0.047 A 
ATOM     10  C   UNL     1      -5.228  -1.090  -1.635  0.00  0.00    +0.122 A 
ATOM     11  C   UNL     1      -4.345  -1.417  -2.652  0.00  0.00    +0.080 A 
ATOM     12  C   UNL     1      -3.011  -1.073  -2.547  0.00  0.00    +0.151 A 
BRANCH  12  13
ATOM     13  N   UNL     1      -2.069  -1.418  -3.635  0.00  0.00    +0.058 N 
ATOM     14  O   UNL     1      -2.451  -2.080  -4.584  0.00  0.00    -0.126 OA
ATOM     15  O   UNL     1      -0.913  -1.040  -3.582  0.00  0.00    -0.126 OA
ENDBRANCH  12  13
BRANCH  10  16
ATOM     16  O   UNL     1      -6.542  -1.425  -1.741  0.00  0.00    -0.495 OA
ATOM     17  C   UNL     1      -7.396  -1.056  -0.656  0.00  0.00    +0.277 C 
ENDBRANCH  10  16
ENDBRANCH   5   7
ENDBRANCH   2   3
BRANCH   2  18
ATOM     18  S   UNL     1       1.596  -0.383   1.468  0.00  0.00    -0.073 S 
BRANCH  18  19
ATOM     19  C   UNL     1       3.240   0.231   1.307  0.00  0.00    +0.192 A 
ATOM     20  N   UNL     1       3.538   1.037   0.294  0.00  0.00    -0.207 NA
ATOM     21  C   UNL     1       4.752   1.532   0.124  0.00  0.00    +0.129 A 
ATOM     22  C   UNL     1       5.780   1.187   1.046  0.00  0.00    +0.051 A 
ATOM     23  C   UNL     1       7.183   1.608   1.052  0.00  0.00    -0.025 A 
ATOM     24  C   UNL     1       7.959   1.135   2.047  0.00  0.00    -0.004 A 
ATOM     25  S   UNL     1       6.888   0.114   3.024  0.00  0.00    -0.073 S 
ATOM     26  C   UNL     1       5.394   0.325   2.091  0.00  0.00    +0.115 A 
ATOM     27  N   UNL     1       4.158  -0.124   2.196  0.00  0.00    -0.214 NA
ATOM     28  C   UNL     1       9.413   1.414   2.275  0.00  0.00    +0.043 C 
ATOM     29  C   UNL     1       9.995   2.030   0.995  0.00  0.00    +0.005 C 
ATOM     30  C   UNL     1       9.060   3.145   0.517  0.00  0.00    +0.005 C 
ATOM     31  C   UNL     1       7.758   2.540  -0.010  0.00  0.00    +0.037 C 
ATOM     32  N   UNL     1       5.022   2.372  -0.942  0.00  0.00    -0.343 N 
ATOM     33  H   UNL     1       5.927   2.447  -1.283  0.00  0.00    +0.144 HD
ATOM     34  H   UNL     1       4.306   2.886  -1.347  0.00  0.00    +0.144 HD
ENDBRANCH  18  19
ENDBRANCH   2  18
TORSDOF 6
