REMARK  Name = ZINC06356336
REMARK  8 active torsions:
REMARK  status: ('A' for Active; 'I' for Inactive)
REMARK    1  A    between atoms: C_1  and  C_2
REMARK    2  A    between atoms: C_2  and  C_3
REMARK    3  A    between atoms: C_6  and  C_9
REMARK    4  A    between atoms: C_11  and  C_23
REMARK    5  A    between atoms: C_13  and  C_18
REMARK    6  A    between atoms: C_13  and  O_22
REMARK    7  A    between atoms: C_23  and  C_25
REMARK    8  A    between atoms: C_28  and  C_31
REMARK                            x       y       z     vdW  Elec       q    Type
REMARK                         _______ _______ _______ _____ _____    ______ ____
ROOT
ATOM      1  C   UNL     1       2.688   3.478   0.210  0.00  0.00    +0.120 C 
ATOM      2  C   UNL     1       2.906   4.290   1.492  0.00  0.00    +0.144 C 
ATOM      3  C   UNL     1       3.888   5.427   1.189  0.00  0.00    +0.243 C 
ATOM      4  N   UNL     1       3.375   6.218   0.069  0.00  0.00    -0.264 N 
ATOM      5  C   UNL     1       2.602   5.668  -0.878  0.00  0.00    +0.302 C 
ATOM      6  O   UNL     1       2.211   6.367  -1.793  0.00  0.00    -0.253 OA
ATOM      7  N   UNL     1       2.241   4.376  -0.857  0.00  0.00    -0.292 N 
ATOM      8  H   UNL     1       3.600   7.160   0.011  0.00  0.00    +0.153 HD
ATOM      9  H   UNL     1       1.673   4.029  -1.562  0.00  0.00    +0.151 HD
ENDROOT
BRANCH   1  13
ATOM     10  C   UNL     1      -0.284   0.488   0.896  0.00  0.00    -0.048 A 
ATOM     11  C   UNL     1       1.055   0.176   1.036  0.00  0.00    +0.004 A 
ATOM     12  C   UNL     1       2.017   1.143   0.812  0.00  0.00    +0.006 A 
ATOM     13  C   UNL     1       1.640   2.424   0.454  0.00  0.00    -0.026 A 
ATOM     14  C   UNL     1       0.300   2.737   0.319  0.00  0.00    +0.006 A 
ATOM     15  C   UNL     1      -0.662   1.770   0.542  0.00  0.00    +0.004 A 
BRANCH  10  17
ATOM     16  C   UNL     1      -1.746  -0.553   2.607  0.00  0.00    +0.009 C 
ATOM     17  C   UNL     1      -1.333  -0.568   1.134  0.00  0.00    +0.032 C 
ENDBRANCH  10  17
ENDBRANCH   1  13
BRANCH   3  18
ATOM     18  C   UNL     1       4.032   6.320   2.422  0.00  0.00    +0.436 C 
ATOM     19  F   UNL     1       2.814   6.957   2.682  0.00  0.00    -0.166 F 
ATOM     20  F   UNL     1       4.393   5.538   3.525  0.00  0.00    -0.166 F 
ATOM     21  F   UNL     1       5.021   7.282   2.189  0.00  0.00    -0.166 F 
ENDBRANCH   3  18
BRANCH   3  22
ATOM     22  O   UNL     1       5.161   4.879   0.843  0.00  0.00    -0.364 OA
ATOM     23  H   UNL     1       5.832   5.543   0.633  0.00  0.00    +0.212 HD
ENDBRANCH   3  22
BRANCH   2  24
ATOM     24  C   UNL     1       1.593   4.866   1.955  0.00  0.00    +0.173 C 
ATOM     25  O   UNL     1       0.995   5.653   1.252  0.00  0.00    -0.292 OA
BRANCH  24  26
ATOM     26  C   UNL     1       1.036   4.474   3.259  0.00  0.00    +0.018 A 
ATOM     27  C   UNL     1       1.657   3.475   4.016  0.00  0.00    +0.011 A 
ATOM     28  C   UNL     1       1.132   3.117   5.240  0.00  0.00    +0.004 A 
ATOM     29  C   UNL     1      -0.011   3.736   5.715  0.00  0.00    -0.050 A 
ATOM     30  C   UNL     1      -0.634   4.721   4.970  0.00  0.00    +0.004 A 
ATOM     31  C   UNL     1      -0.119   5.095   3.746  0.00  0.00    +0.011 A 
ATOM     32  C   UNL     1      -0.581   3.333   7.051  0.00  0.00    +0.044 C 
ENDBRANCH  24  26
ENDBRANCH   2  24
TORSDOF 6
