REMARK  Name = ZINC54377971
REMARK  8 active torsions:
REMARK  status: ('A' for Active; 'I' for Inactive)
REMARK    1  A    between atoms: C_1  and  C_2
REMARK    2  A    between atoms: C_2  and  C_4
REMARK    3  A    between atoms: C_2  and  N_12
REMARK    4  A    between atoms: C_9  and  O_10
REMARK    5  A    between atoms: O_10  and  C_11
REMARK    6  A    between atoms: N_15  and  C_16
REMARK    7  A    between atoms: N_19  and  C_22
REMARK    8  A    between atoms: C_22  and  C_23
REMARK                            x       y       z     vdW  Elec       q    Type
REMARK                         _______ _______ _______ _____ _____    ______ ____
ROOT
ATOM      1  N   UNL     1      -1.372  -0.511   0.012  0.00  0.00    -0.293 N 
ATOM      2  C   UNL     1      -2.029  -0.655   1.181  0.00  0.00    +0.300 C 
ATOM      3  O   UNL     1      -1.480  -0.364   2.226  0.00  0.00    -0.253 OA
ATOM      4  N   UNL     1      -3.293  -1.122   1.190  0.00  0.00    -0.297 N 
ATOM      5  H   UNL     1      -1.810  -0.743  -0.822  0.00  0.00    +0.151 HD
ATOM      6  H   UNL     1      -3.731  -1.354   0.356  0.00  0.00    +0.151 HD
ENDROOT
BRANCH   4   7
ATOM      7  C   UNL     1      -4.006  -1.278   2.460  0.00  0.00    +0.071 C 
ATOM      8  C   UNL     1      -4.660   0.051   2.848  0.00  0.00    +0.004 C 
ATOM      9  C   UNL     1      -5.469  -0.140   4.133  0.00  0.00    -0.077 C 
ATOM     10  N   UNL     1      -6.508  -1.153   3.915  0.00  0.00    +0.382 N 
ATOM     11  C   UNL     1      -5.887  -2.447   3.613  0.00  0.00    -0.077 C 
ATOM     12  C   UNL     1      -5.094  -2.345   2.308  0.00  0.00    +0.004 C 
ATOM     13  H   UNL     1      -7.093  -0.873   3.141  0.00  0.00    -0.081 HD
BRANCH  10  14
ATOM     14  C   UNL     1      -7.331  -1.276   5.126  0.00  0.00    -0.043 C 
BRANCH  14  15
ATOM     15  C   UNL     1      -8.472  -2.224   4.863  0.00  0.00    -0.064 A 
ATOM     16  C   UNL     1      -9.671  -1.743   4.371  0.00  0.00    +0.003 A 
ATOM     17  C   UNL     1     -10.718  -2.612   4.130  0.00  0.00    +0.020 A 
ATOM     18  C   UNL     1     -10.567  -3.964   4.381  0.00  0.00    +0.041 A 
ATOM     19  C   UNL     1      -9.367  -4.445   4.874  0.00  0.00    +0.020 A 
ATOM     20  C   UNL     1      -8.318  -3.576   5.109  0.00  0.00    +0.003 A 
ATOM     21 CL   UNL     1     -11.882  -5.057   4.079  0.00  0.00    -0.084 Cl
ENDBRANCH  14  15
ENDBRANCH  10  14
ENDBRANCH   4   7
BRANCH   1  23
ATOM     22  C   UNL     1      -0.019   1.526   0.010  0.00  0.00    +0.033 C 
ATOM     23  C   UNL     1       0.002  -0.004   0.002  0.00  0.00    +0.105 C 
BRANCH  23  24
ATOM     24  C   UNL     1       0.707  -0.490  -1.238  0.00  0.00    +0.014 A 
ATOM     25  C   UNL     1      -0.022  -0.817  -2.365  0.00  0.00    +0.009 A 
ATOM     26  C   UNL     1       0.625  -1.264  -3.502  0.00  0.00    +0.001 A 
ATOM     27  C   UNL     1       2.002  -1.383  -3.516  0.00  0.00    +0.004 A 
ATOM     28  C   UNL     1       2.736  -1.057  -2.392  0.00  0.00    +0.046 A 
ATOM     29  C   UNL     1       2.090  -0.604  -1.250  0.00  0.00    +0.125 A 
BRANCH  29  30
ATOM     30  O   UNL     1       2.810  -0.277  -0.145  0.00  0.00    -0.495 OA
ATOM     31  C   UNL     1       4.229  -0.419  -0.230  0.00  0.00    +0.277 C 
ENDBRANCH  29  30
ENDBRANCH  23  24
ENDBRANCH   1  23
TORSDOF 6
