REMARK  Name = ZINC39955948
REMARK  3 active torsions:
REMARK  status: ('A' for Active; 'I' for Inactive)
REMARK    1  A    between atoms: C_1  and  C_2
REMARK    2  A    between atoms: C_2  and  C_3
REMARK    3  A    between atoms: C_10  and  C_14
REMARK                            x       y       z     vdW  Elec       q    Type
REMARK                         _______ _______ _______ _____ _____    ______ ____
ROOT
ATOM      1  C   UNL     1       0.731  -0.503   1.223  0.00  0.00    +0.015 A 
ATOM      2  C   UNL     1       2.082  -0.846   1.290  0.00  0.00    +0.140 A 
ATOM      3  N   UNL     1       2.355  -1.235   2.511  0.00  0.00    -0.170 NA
ATOM      4  N   UNL     1       1.183  -1.155   3.273  0.00  0.00    -0.180 N 
ATOM      5  C   UNL     1       0.189  -0.694   2.458  0.00  0.00    +0.141 A 
ATOM      6  N   UNL     1      -1.088  -0.511   2.954  0.00  0.00    -0.342 N 
ATOM      7  H   UNL     1      -1.792  -0.186   2.371  0.00  0.00    +0.167 HD
ATOM      8  C   UNL     1      -1.360  -0.787   4.260  0.00  0.00    +0.030 A 
ATOM      9  C   UNL     1      -0.379  -1.241   5.074  0.00  0.00    +0.093 A 
ATOM     10  C   UNL     1       0.921  -1.433   4.565  0.00  0.00    +0.275 A 
ATOM     11  O   UNL     1       1.808  -1.840   5.294  0.00  0.00    -0.266 OA
ENDROOT
BRANCH   8  12
ATOM     12  C   UNL     1      -2.754  -0.587   4.798  0.00  0.00    +0.058 C 
ATOM     13  C   UNL     1      -3.197   0.882   4.612  0.00  0.00    +0.018 C 
ATOM     14  C   UNL     1      -4.699   0.709   4.284  0.00  0.00    +0.028 C 
ATOM     15  C   UNL     1      -4.809  -0.686   3.716  0.00  0.00    -0.030 C 
ATOM     16  C   UNL     1      -3.748  -1.396   3.998  0.00  0.00    -0.022 C 
ENDBRANCH   8  12
BRANCH   1  18
ATOM     17  C   UNL     1      -0.019   1.526   0.010  0.00  0.00    +0.009 C 
ATOM     18  C   UNL     1       0.002  -0.004   0.002  0.00  0.00    +0.037 C 
ENDBRANCH   1  18
TORSDOF 2
