REMARK  Name = ZINC39897582
REMARK  8 active torsions:
REMARK  status: ('A' for Active; 'I' for Inactive)
REMARK    1  A    between atoms: C_1  and  C_2
REMARK    2  A    between atoms: C_2  and  C_3
REMARK    3  A    between atoms: C_10  and  N_17
REMARK    4  A    between atoms: C_11  and  C_12
REMARK    5  A    between atoms: C_12  and  O_14
REMARK    6  A    between atoms: O_14  and  C_15
REMARK    7  A    between atoms: C_15  and  C_16
REMARK    8  A    between atoms: C_18  and  C_20
REMARK                            x       y       z     vdW  Elec       q    Type
REMARK                         _______ _______ _______ _____ _____    ______ ____
ROOT
ATOM      1  C   UNL     1       0.718  -0.497  -1.257  0.00  0.00    -0.006 C 
ATOM      2  C   UNL     1       0.637  -2.025  -1.328  0.00  0.00    +0.008 C 
ATOM      3  C   UNL     1       1.128  -2.510  -2.693  0.00  0.00    +0.037 C 
ATOM      4  C   UNL     1       2.496  -1.900  -2.964  0.00  0.00    -0.021 A 
ATOM      5  C   UNL     1       2.931  -0.821  -2.279  0.00  0.00    -0.004 A 
ATOM      6  S   UNL     1       4.540  -0.491  -2.935  0.00  0.00    -0.077 S 
ATOM      7  C   UNL     1       4.646  -1.723  -4.071  0.00  0.00    +0.087 A 
ATOM      8  C   UNL     1       3.439  -2.397  -3.951  0.00  0.00    +0.091 A 
ATOM      9  C   UNL     1       2.195  -0.078  -1.207  0.00  0.00    +0.046 C 
ENDROOT
BRANCH   7  10
ATOM     10  N   UNL     1       5.695  -2.002  -4.929  0.00  0.00    -0.273 N 
ATOM     11  C   UNL     1       6.803  -1.235  -4.910  0.00  0.00    +0.284 C 
ATOM     12  O   UNL     1       6.882  -0.298  -4.138  0.00  0.00    -0.266 OA
ATOM     13  H   UNL     1       5.633  -2.749  -5.545  0.00  0.00    +0.156 HD
BRANCH  11  14
ATOM     14  C   UNL     1       7.917  -1.531  -5.821  0.00  0.00    +0.191 A 
ATOM     15  C   UNL     1       9.081  -0.833  -5.886  0.00  0.00    +0.063 A 
ATOM     16  C   UNL     1       9.883  -1.479  -6.924  0.00  0.00    +0.022 A 
ATOM     17  C   UNL     1      11.152  -1.246  -7.460  0.00  0.00    +0.031 A 
ATOM     18  C   UNL     1      11.628  -2.057  -8.452  0.00  0.00    +0.042 A 
ATOM     19  C   UNL     1      10.858  -3.110  -8.930  0.00  0.00    +0.023 A 
ATOM     20  C   UNL     1       9.604  -3.356  -8.414  0.00  0.00    +0.048 A 
ATOM     21  C   UNL     1       9.100  -2.545  -7.404  0.00  0.00    +0.136 A 
ATOM     22  O   UNL     1       7.941  -2.541  -6.716  0.00  0.00    -0.450 OA
ATOM     23 CL   UNL     1      13.205  -1.768  -9.120  0.00  0.00    -0.084 Cl
ENDBRANCH  11  14
ENDBRANCH   7  10
BRANCH   1  25
ATOM     24  C   UNL     1      -0.019   1.526   0.010  0.00  0.00    +0.004 C 
ATOM     25  C   UNL     1       0.002  -0.004   0.002  0.00  0.00    +0.000 C 
ENDBRANCH   1  25
BRANCH   8  26
ATOM     26  C   UNL     1       3.129  -3.561  -4.784  0.00  0.00    +0.342 C 
ATOM     27  O   UNL     1       2.574  -3.412  -5.856  0.00  0.00    -0.245 OA
BRANCH  26  28
ATOM     28  O   UNL     1       3.459  -4.799  -4.362  0.00  0.00    -0.461 OA
BRANCH  28  29
ATOM     29  C   UNL     1       3.127  -5.889  -5.225  0.00  0.00    +0.229 C 
ATOM     30  C   UNL     1       3.575  -7.203  -4.583  0.00  0.00    +0.048 C 
ENDBRANCH  28  29
ENDBRANCH  26  28
ENDBRANCH   8  26
TORSDOF 6
