REMARK  Name = ZINC02542258
REMARK  4 active torsions:
REMARK  status: ('A' for Active; 'I' for Inactive)
REMARK    1  A    between atoms: C_1  and  O_2
REMARK    2  A    between atoms: O_2  and  C_3
REMARK    3  A    between atoms: C_7  and  C_9
REMARK    4  A    between atoms: C_20  and  C_22
REMARK                            x       y       z     vdW  Elec       q    Type
REMARK                         _______ _______ _______ _____ _____    ______ ____
ROOT
ATOM      1  C   UNL     1      -2.540  -4.171   0.015  0.00  0.00    +0.159 C 
ATOM      2  C   UNL     1      -2.741  -4.634  -1.411  0.00  0.00    +0.027 C 
ATOM      3  C   UNL     1      -3.830  -5.380  -1.687  0.00  0.00    +0.083 C 
ATOM      4  C   UNL     1      -4.020  -5.819  -3.093  0.00  0.00    +0.042 A 
ATOM      5  C   UNL     1      -4.909  -6.834  -3.421  0.00  0.00    +0.013 A 
ATOM      6  C   UNL     1      -5.053  -7.213  -4.743  0.00  0.00    +0.001 A 
ATOM      7  C   UNL     1      -4.316  -6.585  -5.732  0.00  0.00    +0.004 A 
ATOM      8  C   UNL     1      -3.430  -5.573  -5.412  0.00  0.00    +0.046 A 
ATOM      9  C   UNL     1      -3.276  -5.182  -4.094  0.00  0.00    +0.131 A 
ATOM     10  O   UNL     1      -2.419  -4.187  -3.753  0.00  0.00    -0.479 OA
ATOM     11  C   UNL     1      -1.758  -4.286  -2.490  0.00  0.00    +0.234 C 
ATOM     12  N   UNL     1      -4.722  -5.718  -0.723  0.00  0.00    -0.213 NA
ATOM     13  C   UNL     1      -4.623  -5.359   0.535  0.00  0.00    +0.237 C 
ATOM     14  N   UNL     1      -3.569  -4.589   0.975  0.00  0.00    -0.208 N 
ATOM     15  N   UNL     1      -3.768  -4.386   2.342  0.00  0.00    -0.251 N 
ATOM     16  C   UNL     1      -4.919  -5.037   2.665  0.00  0.00    +0.203 C 
ATOM     17  N   UNL     1      -5.408  -5.603   1.608  0.00  0.00    -0.205 NA
ATOM     18  H   UNL     1      -3.197  -3.882   2.944  0.00  0.00    +0.171 HD
ENDROOT
BRANCH   1  23
ATOM     19  C   UNL     1      -1.200  -0.637   0.010  0.00  0.00    +0.120 A 
ATOM     20  C   UNL     1      -2.375   0.101   0.019  0.00  0.00    +0.045 A 
ATOM     21  C   UNL     1      -3.596  -0.545   0.027  0.00  0.00    +0.004 A 
ATOM     22  C   UNL     1      -3.648  -1.927   0.026  0.00  0.00    +0.006 A 
ATOM     23  C   UNL     1      -2.479  -2.665   0.017  0.00  0.00    -0.018 A 
ATOM     24  C   UNL     1      -1.255  -2.023   0.003  0.00  0.00    +0.051 A 
BRANCH  19  26
ATOM     25  C   UNL     1      -0.017   1.425   0.010  0.00  0.00    +0.277 C 
ATOM     26  O   UNL     1       0.002  -0.004   0.002  0.00  0.00    -0.495 OA
ENDBRANCH  19  26
ENDBRANCH   1  23
BRANCH  11  27
ATOM     27  C   UNL     1      -0.700  -5.357  -2.563  0.00  0.00    -0.003 A 
ATOM     28  C   UNL     1      -0.919  -6.494  -3.318  0.00  0.00    +0.007 A 
ATOM     29  C   UNL     1       0.052  -7.476  -3.385  0.00  0.00    +0.000 A 
ATOM     30  C   UNL     1       1.242  -7.320  -2.699  0.00  0.00    +0.000 A 
ATOM     31  C   UNL     1       1.461  -6.182  -1.946  0.00  0.00    +0.000 A 
ATOM     32  C   UNL     1       0.492  -5.198  -1.881  0.00  0.00    +0.007 A 
ENDBRANCH  11  27
TORSDOF 3
