REMARK  Name = ZINC14461537
REMARK  7 active torsions:
REMARK  status: ('A' for Active; 'I' for Inactive)
REMARK    1  A    between atoms: C_1  and  C_2
REMARK    2  A    between atoms: C_2  and  N_3
REMARK    3  A    between atoms: N_3  and  C_4
REMARK    4  A    between atoms: N_3  and  C_6
REMARK    5  A    between atoms: C_4  and  C_5
REMARK    6  A    between atoms: C_9  and  C_12
REMARK    7  A    between atoms: C_22  and  N_29
REMARK                            x       y       z     vdW  Elec       q    Type
REMARK                         _______ _______ _______ _____ _____    ______ ____
ROOT
ATOM      1  C   UNL     1      -1.562  -5.626   0.897  0.00  0.00    +0.105 C 
ATOM      2  C   UNL     1      -0.499  -5.903   1.946  0.00  0.00    +0.029 C 
ATOM      3  C   UNL     1       0.830  -5.147   1.813  0.00  0.00    +0.033 C 
ATOM      4  C   UNL     1       1.278  -5.054   3.272  0.00  0.00    -0.030 C 
ATOM      5  C   UNL     1       0.223  -5.105   4.076  0.00  0.00    -0.023 C 
ATOM      6  C   UNL     1      -1.018  -5.227   3.251  0.00  0.00    +0.051 C 
ATOM      7  C   UNL     1      -2.215  -5.970   3.701  0.00  0.00    +0.014 A 
ATOM      8  C   UNL     1      -2.511  -6.158   5.035  0.00  0.00    +0.132 A 
ATOM      9  C   UNL     1      -3.649  -6.848   5.407  0.00  0.00    +0.036 A 
ATOM     10  C   UNL     1      -4.498  -7.354   4.439  0.00  0.00    +0.042 A 
ATOM     11  C   UNL     1      -4.208  -7.176   3.100  0.00  0.00    +0.145 A 
ATOM     12  C   UNL     1      -3.061  -6.489   2.716  0.00  0.00    +0.069 A 
ATOM     13  N   UNL     1      -2.769  -6.351   1.349  0.00  0.00    -0.334 N 
ATOM     14  F   UNL     1      -5.042  -7.672   2.160  0.00  0.00    -0.204 F 
ATOM     15  H   UNL     1      -3.367  -6.738   0.690  0.00  0.00    +0.147 HD
ENDROOT
BRANCH   1  19
ATOM     16  C   UNL     1      -2.358  -1.435   0.669  0.00  0.00    +0.013 A 
ATOM     17  C   UNL     1      -1.345  -1.989  -0.092  0.00  0.00    +0.022 A 
ATOM     18  C   UNL     1      -1.088  -3.345  -0.018  0.00  0.00    +0.007 A 
ATOM     19  C   UNL     1      -1.842  -4.148   0.817  0.00  0.00    -0.027 A 
ATOM     20  C   UNL     1      -2.854  -3.594   1.579  0.00  0.00    +0.007 A 
ATOM     21  C   UNL     1      -3.108  -2.237   1.508  0.00  0.00    +0.022 A 
BRANCH  16  22
ATOM     22  N   UNL     1      -2.618  -0.064   0.594  0.00  0.00    -0.394 NA
ATOM     23  H   UNL     1      -3.380   0.168   1.214  0.00  0.00    +0.126 HD
BRANCH  22  25
ATOM     24  C   UNL     1      -1.122   0.426   2.470  0.00  0.00    +0.022 C 
ATOM     25  C   UNL     1      -1.419   0.685   0.991  0.00  0.00    +0.081 C 
ENDBRANCH  22  25
BRANCH  22  26
ATOM     26  C   UNL     1      -2.983   0.291  -0.784  0.00  0.00    +0.081 C 
ATOM     27  C   UNL     1      -4.307  -0.383  -1.151  0.00  0.00    +0.022 C 
ENDBRANCH  22  26
ENDBRANCH  16  22
ENDBRANCH   1  19
BRANCH   8  28
ATOM     28  N   UNL     1      -1.606  -5.617   6.073  0.00  0.00    +0.057 N 
ATOM     29  O   UNL     1      -1.180  -6.343   6.941  0.00  0.00    -0.126 OA
ATOM     30  O   UNL     1      -1.292  -4.450   6.053  0.00  0.00    -0.126 OA
ENDBRANCH   8  28
TORSDOF 5
