REMARK  Name = ZINC12910346
REMARK  9 active torsions:
REMARK  status: ('A' for Active; 'I' for Inactive)
REMARK    1  A    between atoms: C_1  and  C_2
REMARK    2  A    between atoms: C_4  and  C_30
REMARK    3  A    between atoms: C_6  and  C_27
REMARK    4  A    between atoms: C_10  and  C_11
REMARK    5  A    between atoms: N_13  and  C_14
REMARK    6  A    between atoms: C_14  and  C_16
REMARK    7  A    between atoms: C_14  and  C_17
REMARK    8  A    between atoms: C_20  and  S_23
REMARK    9  A    between atoms: S_23  and  N_26
REMARK                            x       y       z     vdW  Elec       q    Type
REMARK                         _______ _______ _______ _____ _____    ______ ____
ROOT
ATOM      1  C   UNL     1       1.233   3.361  -0.986  0.00  0.00    +0.251 C 
ATOM      2  O   UNL     1       0.264   4.094  -1.048  0.00  0.00    -0.270 OA
ATOM      3  N   UNL     1       2.468   3.858  -1.199  0.00  0.00    -0.304 N 
ATOM      4  H   UNL     1       3.241   3.274  -1.150  0.00  0.00    +0.150 HD
ENDROOT
BRANCH   1  14
ATOM      5  C   UNL     1      -1.417   1.978  -0.472  0.00  0.00    +0.046 C 
ATOM      6  C   UNL     1      -0.095   1.256  -0.437  0.00  0.00    -0.020 A 
ATOM      7  C   UNL     1      -0.051  -0.120  -0.161  0.00  0.00    +0.032 A 
ATOM      8  C   UNL     1      -1.115  -1.014   0.117  0.00  0.00    +0.050 A 
ATOM      9  N   UNL     1      -0.848  -2.280   0.351  0.00  0.00    -0.236 NA
ATOM     10  C   UNL     1       0.385  -2.759   0.337  0.00  0.00    +0.134 A 
ATOM     11  N   UNL     1       1.420  -1.982   0.086  0.00  0.00    -0.225 NA
ATOM     12  C   UNL     1       1.244  -0.702  -0.159  0.00  0.00    +0.113 A 
ATOM     13  S   UNL     1       2.307   0.668  -0.534  0.00  0.00    -0.064 S 
ATOM     14  C   UNL     1       1.058   1.935  -0.680  0.00  0.00    +0.079 A 
ATOM     15  C   UNL     1      -2.538  -0.519   0.145  0.00  0.00    +0.066 C 
BRANCH  10  16
ATOM     16  C   UNL     1       0.610  -4.223   0.614  0.00  0.00    +0.057 C 
ATOM     17  C   UNL     1       2.056  -4.694   0.788  0.00  0.00    +0.012 C 
ATOM     18  C   UNL     1       1.281  -5.054  -0.481  0.00  0.00    +0.012 C 
ENDBRANCH  10  16
ENDBRANCH   1  14
BRANCH   3  19
ATOM     19  C   UNL     1       2.642   5.280  -1.505  0.00  0.00    +0.100 C 
ATOM     20  C   UNL     1       2.452   5.507  -3.006  0.00  0.00    +0.033 C 
BRANCH  19  21
ATOM     21  C   UNL     1       4.029   5.714  -1.103  0.00  0.00    -0.027 A 
ATOM     22  C   UNL     1       5.106   4.877  -1.326  0.00  0.00    +0.007 A 
ATOM     23  C   UNL     1       6.378   5.277  -0.962  0.00  0.00    +0.029 A 
ATOM     24  C   UNL     1       6.572   6.509  -0.366  0.00  0.00    +0.105 A 
ATOM     25  C   UNL     1       5.494   7.344  -0.139  0.00  0.00    +0.029 A 
ATOM     26  C   UNL     1       4.222   6.946  -0.507  0.00  0.00    +0.007 A 
BRANCH  24  27
ATOM     27  S   UNL     1       8.193   7.015   0.104  0.00  0.00    +0.056 S 
ATOM     28  O   UNL     1       9.099   6.286  -0.711  0.00  0.00    -0.153 OA
ATOM     29  O   UNL     1       8.179   8.436   0.145  0.00  0.00    -0.153 OA
BRANCH  27  30
ATOM     30  N   UNL     1       8.435   6.499   1.659  0.00  0.00    -0.204 NA
ATOM     31  H   UNL     1       7.735   6.015   2.124  0.00  0.00    +0.144 HD
ATOM     32  H   UNL     1       9.277   6.682   2.105  0.00  0.00    +0.144 HD
ENDBRANCH  27  30
ENDBRANCH  24  27
ENDBRANCH  19  21
ENDBRANCH   3  19
TORSDOF 6
