REMARK  Name = ZINC63527332
REMARK  10 active torsions:
REMARK  status: ('A' for Active; 'I' for Inactive)
REMARK    1  A    between atoms: C_1  and  C_2
REMARK    2  A    between atoms: C_2  and  C_3
REMARK    3  A    between atoms: C_3  and  C_4
REMARK    4  A    between atoms: C_4  and  C_5
REMARK    5  A    between atoms: C_5  and  C_6
REMARK    6  A    between atoms: C_7  and  C_31
REMARK    7  A    between atoms: C_10  and  C_12
REMARK    8  A    between atoms: C_15  and  C_18
REMARK    9  A    between atoms: C_18  and  C_19
REMARK   10  A    between atoms: N_21  and  C_22
REMARK                            x       y       z     vdW  Elec       q    Type
REMARK                         _______ _______ _______ _____ _____    ______ ____
ROOT
ATOM      1  C   UNL     1       1.523  -4.054   2.464  0.00  0.00    -0.030 C 
ATOM      2  C   UNL     1       2.494  -4.817   2.008  0.00  0.00    +0.020 C 
ATOM      3  N   UNL     1       2.203  -6.160   2.147  0.00  0.00    -0.266 N 
ATOM      4  N   UNL     1       0.944  -6.326   2.741  0.00  0.00    -0.224 N 
ATOM      5  C   UNL     1       0.435  -4.966   2.986  0.00  0.00    +0.121 C 
ATOM      6  C   UNL     1      -0.867  -4.739   2.214  0.00  0.00    +0.035 C 
ATOM      7  C   UNL     1       0.312  -7.523   3.041  0.00  0.00    +0.178 A 
ATOM      8  N   UNL     1       0.746  -8.749   2.844  0.00  0.00    -0.228 NA
ATOM      9  C   UNL     1       0.016  -9.795   3.190  0.00  0.00    +0.059 A 
ATOM     10  C   UNL     1      -1.191  -9.545   3.751  0.00  0.00    +0.072 A 
ATOM     11  S   UNL     1      -1.195  -7.760   3.752  0.00  0.00    -0.059 S 
ATOM     12  C   UNL     1       3.770  -4.288   1.405  0.00  0.00    +0.062 C 
ATOM     13  H   UNL     1       2.786  -6.885   1.872  0.00  0.00    +0.170 HD
ENDROOT
BRANCH   1  14
ATOM     14  C   UNL     1       1.503  -2.548   2.473  0.00  0.00    +0.034 C 
BRANCH  14  15
ATOM     15  C   UNL     1       0.763  -2.041   1.233  0.00  0.00    +0.004 C 
BRANCH  15  16
ATOM     16  C   UNL     1       0.742  -0.511   1.242  0.00  0.00    +0.000 C 
BRANCH  16  18
ATOM     17  C   UNL     1      -0.019   1.526   0.010  0.00  0.00    +0.004 C 
ATOM     18  C   UNL     1       0.002  -0.004   0.002  0.00  0.00    -0.003 C 
ENDBRANCH  16  18
ENDBRANCH  15  16
ENDBRANCH  14  15
ENDBRANCH   1  14
BRANCH   9  19
ATOM     19  C   UNL     1       0.505 -11.204   2.968  0.00  0.00    +0.151 C 
BRANCH  19  20
ATOM     20  C   UNL     1      -0.036 -11.723   1.661  0.00  0.00    +0.222 C 
ATOM     21  O   UNL     1      -0.748 -11.019   0.976  0.00  0.00    -0.275 OA
ATOM     22  N   UNL     1       0.272 -12.970   1.252  0.00  0.00    -0.278 N 
ATOM     23  H   UNL     1       0.841 -13.533   1.800  0.00  0.00    +0.152 HD
BRANCH  22  24
ATOM     24  C   UNL     1      -0.254 -13.475  -0.019  0.00  0.00    +0.269 C 
ATOM     25  N   UNL     1      -1.657 -13.878   0.140  0.00  0.00    -0.348 N 
ATOM     26  C   UNL     1      -1.732 -15.148  -0.135  0.00  0.00    +0.061 A 
ATOM     27  C   UNL     1      -2.849 -16.102  -0.153  0.00  0.00    +0.027 A 
ATOM     28  C   UNL     1      -2.620 -17.388  -0.486  0.00  0.00    +0.002 A 
ATOM     29  C   UNL     1      -1.342 -17.868  -0.823  0.00  0.00    +0.002 A 
ATOM     30  C   UNL     1      -0.250 -17.078  -0.839  0.00  0.00    +0.027 A 
ATOM     31  C   UNL     1      -0.379 -15.656  -0.493  0.00  0.00    +0.061 A 
ATOM     32  N   UNL     1       0.480 -14.680  -0.424  0.00  0.00    -0.348 N 
ATOM     33  H   UNL     1      -2.393 -13.303   0.403  0.00  0.00    +0.163 HD
ATOM     34  H   UNL     1       1.431 -14.739  -0.608  0.00  0.00    +0.163 HD
ENDBRANCH  22  24
ENDBRANCH  19  20
ENDBRANCH   9  19
TORSDOF 7
