REMARK  Name = ZINC08789358
REMARK  22 active torsions:
REMARK  status: ('A' for Active; 'I' for Inactive)
REMARK    1  A    between atoms: C_1  and  C_2
REMARK    2  A    between atoms: C_1  and  C_13
REMARK    3  A    between atoms: C_2  and  C_3
REMARK    4  A    between atoms: C_3  and  N_4
REMARK    5  A    between atoms: C_3  and  P_5
REMARK    6  A    between atoms: C_3  and  P_9
REMARK    7  A    between atoms: P_5  and  O_7
REMARK    8  A    between atoms: P_5  and  O_8
REMARK    9  A    between atoms: P_9  and  O_11
REMARK   10  A    between atoms: P_9  and  O_12
REMARK   11  A    between atoms: C_13  and  C_14
REMARK   12  A    between atoms: C_13  and  C_26
REMARK   13  A    between atoms: C_14  and  C_15
REMARK   14  A    between atoms: C_15  and  C_16
REMARK   15  A    between atoms: C_16  and  N_17
REMARK   16  A    between atoms: C_16  and  P_18
REMARK   17  A    between atoms: C_16  and  P_22
REMARK   18  A    between atoms: P_18  and  O_20
REMARK   19  A    between atoms: P_18  and  O_21
REMARK   20  A    between atoms: P_22  and  O_24
REMARK   21  A    between atoms: P_22  and  O_25
REMARK   22  A    between atoms: C_26  and  O_28
REMARK                            x       y       z     vdW  Elec       q    Type
REMARK                         _______ _______ _______ _____ _____    ______ ____
ROOT
ATOM      1  C   UNL     1       2.019   0.866  -3.688  0.00  0.00    +0.098 C 
ENDROOT
BRANCH   1   2
ATOM      2  C   UNL     1       2.029  -0.637  -3.584  0.00  0.00    +0.308 C 
ATOM      3  O   UNL     1       1.544  -1.179  -2.619  0.00  0.00    -0.251 OA
BRANCH   2   4
ATOM      4  O   UNL     1       2.575  -1.374  -4.563  0.00  0.00    -0.480 OA
ATOM      5  H   UNL     1       2.558  -2.335  -4.452  0.00  0.00    +0.295 HD
ENDBRANCH   2   4
ENDBRANCH   1   2
BRANCH   1   6
ATOM      6  C   UNL     1       3.458   1.380  -3.778  0.00  0.00    +0.018 C 
BRANCH   6   7
ATOM      7  C   UNL     1       4.094   0.888  -5.079  0.00  0.00    +0.048 C 
BRANCH   7   8
ATOM      8  C   UNL     1       5.533   1.402  -5.169  0.00  0.00    +0.220 C 
BRANCH   8   9
ATOM      9  N   UNL     1       5.530   2.871  -5.150  0.00  0.00    -0.305 NA
ATOM     10  H   UNL     1       5.005   3.242  -5.927  0.00  0.00    +0.120 HD
ATOM     11  H   UNL     1       5.174   3.220  -4.273  0.00  0.00    +0.120 HD
ENDBRANCH   8   9
BRANCH   8  12
ATOM     12  P   UNL     1       6.491   0.777  -3.750  0.00  0.00    +0.359 P 
ATOM     13  O   UNL     1       7.883   1.274  -3.837  0.00  0.00    -0.256 OA
BRANCH  12  14
ATOM     14  O   UNL     1       5.821   1.294  -2.380  0.00  0.00    -0.322 OA
ATOM     15  H   UNL     1       6.280   0.999  -1.582  0.00  0.00    +0.220 HD
ENDBRANCH  12  14
BRANCH  12  16
ATOM     16  O   UNL     1       6.494  -0.833  -3.771  0.00  0.00    -0.322 OA
ATOM     17  H   UNL     1       5.613  -1.228  -3.717  0.00  0.00    +0.220 HD
ENDBRANCH  12  16
ENDBRANCH   8  12
BRANCH   8  18
ATOM     18  P   UNL     1       6.291   0.816  -6.720  0.00  0.00    +0.359 P 
ATOM     19  O   UNL     1       6.404  -0.659  -6.687  0.00  0.00    -0.256 OA
BRANCH  18  20
ATOM     20  O   UNL     1       5.373   1.257  -7.967  0.00  0.00    -0.322 OA
ATOM     21  H   UNL     1       5.255   2.213  -8.050  0.00  0.00    +0.220 HD
ENDBRANCH  18  20
BRANCH  18  22
ATOM     22  O   UNL     1       7.757   1.462  -6.878  0.00  0.00    -0.322 OA
ATOM     23  H   UNL     1       8.221   1.194  -7.683  0.00  0.00    +0.220 HD
ENDBRANCH  18  22
ENDBRANCH   8  18
ENDBRANCH   7   8
ENDBRANCH   6   7
ENDBRANCH   1   6
BRANCH   1  24
ATOM     24  C   UNL     1       1.343   1.459  -2.450  0.00  0.00    +0.018 C 
BRANCH  24  25
ATOM     25  C   UNL     1      -0.130   1.046  -2.427  0.00  0.00    +0.048 C 
BRANCH  25  26
ATOM     26  C   UNL     1      -0.775   1.528  -1.126  0.00  0.00    +0.220 C 
BRANCH  26  27
ATOM     27  N   UNL     1       0.000   1.032   0.018  0.00  0.00    -0.305 NA
ATOM     28  H   UNL     1       0.028   0.023   0.026  0.00  0.00    +0.120 HD
ATOM     29  H   UNL     1       0.932   1.419   0.020  0.00  0.00    +0.120 HD
ENDBRANCH  26  27
BRANCH  26  30
ATOM     30  P   UNL     1      -0.798   3.351  -1.100  0.00  0.00    +0.359 P 
ATOM     31  O   UNL     1       0.588   3.861  -1.008  0.00  0.00    -0.256 OA
BRANCH  30  32
ATOM     32  O   UNL     1      -1.484   3.899  -2.449  0.00  0.00    -0.322 OA
ATOM     33  H   UNL     1      -2.419   3.669  -2.537  0.00  0.00    +0.220 HD
ENDBRANCH  30  32
BRANCH  30  34
ATOM     34  O   UNL     1      -1.641   3.858   0.175  0.00  0.00    -0.322 OA
ATOM     35  H   UNL     1      -1.696   4.821   0.253  0.00  0.00    +0.220 HD
ENDBRANCH  30  34
ENDBRANCH  26  30
BRANCH  26  36
ATOM     36  P   UNL     1      -2.482   0.897  -1.024  0.00  0.00    +0.359 P 
ATOM     37  O   UNL     1      -3.146   1.462   0.173  0.00  0.00    -0.256 OA
BRANCH  36  38
ATOM     38  O   UNL     1      -2.455  -0.709  -0.915  0.00  0.00    -0.322 OA
ATOM     39  H   UNL     1      -2.034  -1.147  -1.667  0.00  0.00    +0.220 HD
ENDBRANCH  36  38
BRANCH  36  40
ATOM     40  O   UNL     1      -3.296   1.332  -2.343  0.00  0.00    -0.322 OA
ATOM     41  H   UNL     1      -4.214   1.030  -2.357  0.00  0.00    +0.220 HD
ENDBRANCH  36  40
ENDBRANCH  26  36
ENDBRANCH  25  26
ENDBRANCH  24  25
ENDBRANCH   1  24
TORSDOF 22
