REMARK  Name = ZINC39595738
REMARK  7 active torsions:
REMARK  status: ('A' for Active; 'I' for Inactive)
REMARK    1  A    between atoms: C_1  and  C_2
REMARK    2  A    between atoms: C_2  and  C_4
REMARK    3  A    between atoms: C_2  and  O_29
REMARK    4  A    between atoms: C_4  and  N_5
REMARK    5  A    between atoms: C_6  and  C_8
REMARK    6  A    between atoms: C_19  and  C_21
REMARK    7  A    between atoms: O_29  and  C_30
REMARK                            x       y       z     vdW  Elec       q    Type
REMARK                         _______ _______ _______ _____ _____    ______ ____
ROOT
ATOM      1  C   UNL     1       2.239  -3.043   2.652  0.00  0.00    +0.100 C 
ATOM      2  C   UNL     1       0.836  -3.690   2.661  0.00  0.00    +0.121 C 
ATOM      3  N   UNL     1       0.937  -4.789   3.649  0.00  0.00    -0.296 N 
ATOM      4  C   UNL     1       1.767  -4.228   4.742  0.00  0.00    +0.115 C 
ATOM      5  C   UNL     1       2.846  -3.398   4.019  0.00  0.00    -0.004 C 
ATOM      6  C   UNL     1       3.150  -2.128   4.808  0.00  0.00    -0.010 C 
ATOM      7  C   UNL     1       3.807  -2.504   6.139  0.00  0.00    -0.082 C 
ATOM      8  N   UNL     1       5.043  -3.252   5.883  0.00  0.00    +0.379 N 
ATOM      9  C   UNL     1       4.732  -4.517   5.206  0.00  0.00    -0.082 C 
ATOM     10  C   UNL     1       4.114  -4.226   3.835  0.00  0.00    -0.010 C 
ATOM     11  C   UNL     1       0.396  -6.022   3.572  0.00  0.00    +0.247 C 
ATOM     12  O   UNL     1      -0.172  -6.373   2.557  0.00  0.00    -0.270 OA
ATOM     13  H   UNL     1       5.654  -2.701   5.298  0.00  0.00    -0.086 HD
ATOM     14  H   UNL     1       5.506  -3.446   6.759  0.00  0.00    -0.086 HD
ENDROOT
BRANCH  11  15
ATOM     15  C   UNL     1       0.495  -6.946   4.722  0.00  0.00    +0.040 A 
ATOM     16  C   UNL     1       0.691  -6.444   6.009  0.00  0.00    +0.033 A 
ATOM     17  C   UNL     1       0.783  -7.312   7.079  0.00  0.00    +0.043 A 
ATOM     18  C   UNL     1       0.681  -8.678   6.877  0.00  0.00    +0.040 A 
ATOM     19  C   UNL     1       0.487  -9.182   5.602  0.00  0.00    +0.043 A 
ATOM     20  C   UNL     1       0.387  -8.323   4.525  0.00  0.00    +0.033 A 
ATOM     21 CL   UNL     1       0.361 -10.896   5.358  0.00  0.00    -0.083 Cl
ATOM     22 CL   UNL     1       1.027  -6.689   8.681  0.00  0.00    -0.083 Cl
ENDBRANCH  11  15
BRANCH   1  24
ATOM     23  N   UNL     1       3.104  -0.858   1.879  0.00  0.00    -0.312 N 
ATOM     24  C   UNL     1       2.126  -1.548   2.500  0.00  0.00    +0.218 C 
ATOM     25  O   UNL     1       1.157  -0.965   2.936  0.00  0.00    -0.275 OA
ATOM     26  H   UNL     1       3.880  -1.324   1.530  0.00  0.00    +0.149 HD
BRANCH  23  27
ATOM     27  C   UNL     1       2.995   0.595   1.731  0.00  0.00    +0.148 C 
BRANCH  27  29
ATOM     28  C   UNL     1       4.113   2.645   0.841  0.00  0.00    +0.053 C 
ATOM     29  C   UNL     1       4.227   1.127   0.996  0.00  0.00    +0.187 C 
BRANCH  29  30
ATOM     30  O   UNL     1       5.402   0.811   1.746  0.00  0.00    -0.488 OA
BRANCH  30  31
ATOM     31  C   UNL     1       6.535   0.556   1.039  0.00  0.00    +0.121 A 
ATOM     32  C   UNL     1       7.673   0.107   1.691  0.00  0.00    +0.048 A 
ATOM     33  C   UNL     1       8.824  -0.152   0.972  0.00  0.00    +0.042 A 
ATOM     34  C   UNL     1       8.841   0.037  -0.400  0.00  0.00    +0.124 A 
ATOM     35  C   UNL     1       7.705   0.486  -1.052  0.00  0.00    +0.042 A 
ATOM     36  C   UNL     1       6.551   0.739  -0.336  0.00  0.00    +0.048 A 
ATOM     37  F   UNL     1       9.967  -0.216  -1.102  0.00  0.00    -0.205 F 
ENDBRANCH  30  31
ENDBRANCH  29  30
ENDBRANCH  27  29
ENDBRANCH  23  27
ENDBRANCH   1  24
TORSDOF 6
