REMARK  Name = ZINC43746604
REMARK  11 active torsions:
REMARK  status: ('A' for Active; 'I' for Inactive)
REMARK    1  A    between atoms: C_1  and  C_2
REMARK    2  A    between atoms: C_2  and  C_3
REMARK    3  A    between atoms: C_3  and  C_4
REMARK    4  A    between atoms: C_4  and  N_5
REMARK    5  A    between atoms: C_6  and  C_8
REMARK    6  A    between atoms: C_8  and  C_10
REMARK    7  A    between atoms: C_8  and  N_15
REMARK    8  A    between atoms: C_10  and  C_12
REMARK    9  A    between atoms: C_10  and  C_13
REMARK   10  A    between atoms: C_13  and  C_14
REMARK   11  A    between atoms: C_16  and  C_18
REMARK                            x       y       z     vdW  Elec       q    Type
REMARK                         _______ _______ _______ _____ _____    ______ ____
ROOT
ATOM      1  C   UNL     1       3.274  -8.520   5.043  0.00  0.00    +0.167 C 
ATOM      2  C   UNL     1       4.719  -8.873   5.425  0.00  0.00    +0.069 C 
ATOM      3  C   UNL     1       4.801 -10.306   5.884  0.00  0.00    -0.015 A 
ATOM      4  C   UNL     1       5.998 -11.117   6.024  0.00  0.00    +0.003 A 
ATOM      5  C   UNL     1       7.350 -10.852   5.783  0.00  0.00    +0.010 A 
ATOM      6  C   UNL     1       8.234 -11.874   6.029  0.00  0.00    +0.001 A 
ATOM      7  C   UNL     1       7.819 -13.111   6.495  0.00  0.00    +0.002 A 
ATOM      8  C   UNL     1       6.488 -13.399   6.741  0.00  0.00    +0.026 A 
ATOM      9  C   UNL     1       5.567 -12.381   6.498  0.00  0.00    +0.047 A 
ATOM     10  N   UNL     1       4.210 -12.325   6.626  0.00  0.00    -0.356 N 
ATOM     11  H   UNL     1       3.648 -13.052   6.938  0.00  0.00    +0.166 HD
ATOM     12  C   UNL     1       3.761 -11.088   6.250  0.00  0.00    +0.046 A 
ATOM     13  C   UNL     1       2.326 -10.621   6.207  0.00  0.00    +0.155 C 
ATOM     14  N   UNL     1       2.382  -9.152   6.020  0.00  0.00    -0.273 N 
ATOM     15  C   UNL     1       1.541  -8.581   6.893  0.00  0.00    +0.248 C 
ATOM     16  O   UNL     1       1.175  -7.423   6.859  0.00  0.00    -0.270 OA
ATOM     17  C   UNL     1       1.130  -9.569   7.896  0.00  0.00    +0.042 A 
ATOM     18  C   UNL     1       1.609 -10.856   7.493  0.00  0.00    -0.009 A 
ATOM     19  C   UNL     1       1.389 -11.996   8.233  0.00  0.00    +0.006 A 
ATOM     20  C   UNL     1       0.650 -11.857   9.405  0.00  0.00    +0.000 A 
ATOM     21  C   UNL     1       0.154 -10.635   9.812  0.00  0.00    +0.001 A 
ATOM     22  C   UNL     1       0.384  -9.425   9.068  0.00  0.00    +0.013 A 
ENDROOT
BRANCH   1  24
ATOM     23  N   UNL     1       2.916  -6.342   3.926  0.00  0.00    -0.302 N 
ATOM     24  C   UNL     1       3.088  -7.025   5.075  0.00  0.00    +0.235 C 
ATOM     25  O   UNL     1       3.095  -6.436   6.136  0.00  0.00    -0.274 OA
ATOM     26  H   UNL     1       2.910  -6.813   3.078  0.00  0.00    +0.150 HD
BRANCH  23  27
ATOM     27  C   UNL     1       2.735  -4.889   3.958  0.00  0.00    +0.162 C 
BRANCH  27  29
ATOM     28  N   UNL     1       1.391  -3.238   2.699  0.00  0.00    -0.314 N 
ATOM     29  C   UNL     1       1.980  -4.449   2.730  0.00  0.00    +0.234 C 
ATOM     30  O   UNL     1       1.902  -5.186   1.770  0.00  0.00    -0.274 OA
ATOM     31  H   UNL     1       1.394  -2.676   3.490  0.00  0.00    +0.149 HD
BRANCH  28  32
ATOM     32  C   UNL     1       0.747  -2.768   1.470  0.00  0.00    +0.104 C 
BRANCH  32  33
ATOM     33  C   UNL     1       0.161  -1.374   1.702  0.00  0.00    +0.018 C 
BRANCH  33  35
ATOM     34  C   UNL     1      -1.099   0.511   0.650  0.00  0.00    +0.004 C 
ATOM     35  C   UNL     1      -0.513  -0.883   0.418  0.00  0.00    -0.002 C 
ENDBRANCH  33  35
ENDBRANCH  32  33
ENDBRANCH  28  32
ENDBRANCH  27  29
BRANCH  27  36
ATOM     36  C   UNL     1       4.104  -4.206   3.986  0.00  0.00    +0.015 C 
ATOM     37  C   UNL     1       4.961  -4.732   2.833  0.00  0.00    +0.010 C 
BRANCH  36  38
ATOM     38  C   UNL     1       4.797  -4.508   5.316  0.00  0.00    +0.002 C 
ATOM     39  C   UNL     1       4.027  -3.838   6.456  0.00  0.00    +0.004 C 
ENDBRANCH  36  38
ENDBRANCH  27  36
ENDBRANCH  23  27
ENDBRANCH   1  24
TORSDOF 8
