REMARK  Name = ZINC09956678
REMARK  7 active torsions:
REMARK  status: ('A' for Active; 'I' for Inactive)
REMARK    1  A    between atoms: C_1  and  C_2
REMARK    2  A    between atoms: C_2  and  C_26
REMARK    3  A    between atoms: N_5  and  C_9
REMARK    4  A    between atoms: C_9  and  C_10
REMARK    5  A    between atoms: N_12  and  N_13
REMARK    6  A    between atoms: N_13  and  C_14
REMARK    7  A    between atoms: N_13  and  C_20
REMARK                            x       y       z     vdW  Elec       q    Type
REMARK                         _______ _______ _______ _____ _____    ______ ____
ROOT
ATOM      1  C   UNL     1      -1.233   2.223   0.454  0.00  0.00    +0.215 C 
ENDROOT
BRANCH   1   6
ATOM      2  C   UNL     1      -4.120  -1.334  -0.597  0.00  0.00    +0.047 C 
ATOM      3  C   UNL     1      -4.227   0.075  -0.008  0.00  0.00    +0.135 C 
ATOM      4  C   UNL     1      -3.132   0.972  -0.550  0.00  0.00    +0.251 C 
ATOM      5  O   UNL     1      -2.948   1.286  -1.706  0.00  0.00    -0.272 OA
ATOM      6  N   UNL     1      -2.404   1.346   0.521  0.00  0.00    -0.215 N 
ATOM      7  C   UNL     1      -2.887   0.821   1.653  0.00  0.00    +0.310 C 
ATOM      8  O   UNL     1      -2.402   1.018   2.750  0.00  0.00    -0.252 OA
ATOM      9  N   UNL     1      -3.970   0.051   1.442  0.00  0.00    -0.281 N 
ATOM     10  H   UNL     1      -4.481  -0.426   2.114  0.00  0.00    +0.152 HD
BRANCH   3  11
ATOM     11  C   UNL     1      -5.583   0.667  -0.296  0.00  0.00    -0.014 A 
ATOM     12  C   UNL     1      -6.615   0.503   0.609  0.00  0.00    +0.006 A 
ATOM     13  C   UNL     1      -7.858   1.046   0.345  0.00  0.00    +0.001 A 
ATOM     14  C   UNL     1      -8.070   1.754  -0.823  0.00  0.00    +0.015 A 
ATOM     15  C   UNL     1      -7.038   1.918  -1.729  0.00  0.00    +0.018 A 
ATOM     16  C   UNL     1      -5.792   1.378  -1.462  0.00  0.00    +0.021 A 
ATOM     17 BR   UNL     1      -7.327   2.885  -3.328  0.00  0.00    -0.050 Br
ENDBRANCH   3  11
ENDBRANCH   1   6
BRANCH   1  18
ATOM     18  C   UNL     1       0.008   1.391   0.264  0.00  0.00    +0.247 C 
ATOM     19  O   UNL     1      -0.077   0.183   0.191  0.00  0.00    -0.273 OA
ATOM     20  N   UNL     1       1.213   1.988   0.169  0.00  0.00    -0.228 N 
ATOM     21  H   UNL     1       1.281   2.954   0.227  0.00  0.00    +0.173 HD
BRANCH  20  22
ATOM     22  N   UNL     1       2.366   1.214  -0.014  0.00  0.00    -0.220 N 
BRANCH  22  23
ATOM     23  C   UNL     1       2.985   1.168  -1.266  0.00  0.00    +0.053 A 
ATOM     24  C   UNL     1       3.287   2.346  -1.937  0.00  0.00    +0.025 A 
ATOM     25  C   UNL     1       3.903   2.297  -3.172  0.00  0.00    +0.002 A 
ATOM     26  C   UNL     1       4.210   1.076  -3.745  0.00  0.00    +0.000 A 
ATOM     27  C   UNL     1       3.906  -0.099  -3.082  0.00  0.00    +0.002 A 
ATOM     28  C   UNL     1       3.295  -0.057  -1.844  0.00  0.00    +0.025 A 
ENDBRANCH  22  23
BRANCH  22  29
ATOM     29  C   UNL     1       2.898   0.489   1.055  0.00  0.00    +0.053 A 
ATOM     30  C   UNL     1       4.122  -0.153   0.921  0.00  0.00    +0.025 A 
ATOM     31  C   UNL     1       4.647  -0.865   1.981  0.00  0.00    +0.002 A 
ATOM     32  C   UNL     1       3.950  -0.948   3.173  0.00  0.00    +0.000 A 
ATOM     33  C   UNL     1       2.728  -0.314   3.309  0.00  0.00    +0.002 A 
ATOM     34  C   UNL     1       2.200   0.404   2.254  0.00  0.00    +0.025 A 
ENDBRANCH  22  29
ENDBRANCH  20  22
ENDBRANCH   1  18
TORSDOF 6
