REMARK  Name = ZINC13815412
REMARK  11 active torsions:
REMARK  status: ('A' for Active; 'I' for Inactive)
REMARK    1  A    between atoms: C_1  and  C_2
REMARK    2  A    between atoms: C_2  and  O_3
REMARK    3  A    between atoms: O_3  and  C_4
REMARK    4  A    between atoms: C_9  and  C_10
REMARK    5  A    between atoms: C_18  and  O_38
REMARK    6  A    between atoms: C_21  and  C_22
REMARK    7  A    between atoms: C_21  and  N_75
REMARK    8  A    between atoms: N_24  and  C_25
REMARK    9  A    between atoms: C_26  and  C_34
REMARK   10  A    between atoms: C_34  and  O_36
REMARK   11  A    between atoms: O_36  and  C_37
REMARK                            x       y       z     vdW  Elec       q    Type
REMARK                         _______ _______ _______ _____ _____    ______ ____
ROOT
ATOM      1  C   UNL     1       1.008   2.185   0.238  0.00  0.00    -0.028 C 
ATOM      2  C   UNL     1       0.714   3.688   0.199  0.00  0.00    +0.011 C 
ATOM      3  C   UNL     1       0.049   4.034  -1.135  0.00  0.00    +0.005 C 
ATOM      4  C   UNL     1      -0.288   5.526  -1.169  0.00  0.00    +0.000 C 
ATOM      5  C   UNL     1      -1.235   5.870  -0.017  0.00  0.00    +0.003 C 
ATOM      6  C   UNL     1      -0.559   5.532   1.314  0.00  0.00    +0.035 C 
ATOM      7  C   UNL     1      -0.225   4.042   1.356  0.00  0.00    +0.066 C 
ATOM      8  C   UNL     1      -1.510   3.220   1.230  0.00  0.00    +0.016 C 
ATOM      9  C   UNL     1      -1.157   1.730   1.230  0.00  0.00    -0.075 C 
ATOM     10  N   UNL     1      -0.264   1.447   0.086  0.00  0.00    +0.390 N 
ATOM     11  H   UNL     1      -0.725   1.752  -0.779  0.00  0.00    -0.080 HD
ENDROOT
BRANCH   1  17
ATOM     12  C   UNL     1       3.297   1.958  -0.760  0.00  0.00    +0.122 A 
ATOM     13  C   UNL     1       4.137   1.623  -1.812  0.00  0.00    +0.046 A 
ATOM     14  C   UNL     1       3.605   1.155  -2.998  0.00  0.00    +0.004 A 
ATOM     15  C   UNL     1       2.236   1.022  -3.138  0.00  0.00    +0.000 A 
ATOM     16  C   UNL     1       1.397   1.350  -2.089  0.00  0.00    +0.005 A 
ATOM     17  C   UNL     1       1.924   1.823  -0.903  0.00  0.00    -0.019 A 
BRANCH  12  18
ATOM     18  O   UNL     1       3.818   2.417   0.407  0.00  0.00    -0.492 OA
BRANCH  18  20
ATOM     19  C   UNL     1       5.638   3.060   1.862  0.00  0.00    +0.048 C 
ATOM     20  C   UNL     1       5.241   2.531   0.482  0.00  0.00    +0.225 C 
ENDBRANCH  18  20
ENDBRANCH  12  18
ENDBRANCH   1  17
BRANCH   7  21
ATOM     21  O   UNL     1       0.415   3.736   2.597  0.00  0.00    -0.388 OA
ATOM     22  H   UNL     1      -0.123   3.935   3.376  0.00  0.00    +0.210 HD
ENDBRANCH   7  21
BRANCH  10  23
ATOM     23  C   UNL     1       0.002  -0.004   0.002  0.00  0.00    +0.020 C 
BRANCH  23  24
ATOM     24  C   UNL     1       0.622  -0.505   1.281  0.00  0.00    +0.201 C 
ATOM     25  O   UNL     1       0.925   0.279   2.155  0.00  0.00    -0.278 OA
ATOM     26  N   UNL     1       0.838  -1.824   1.454  0.00  0.00    -0.281 N 
ATOM     27  H   UNL     1       0.595  -2.451   0.754  0.00  0.00    +0.155 HD
BRANCH  26  28
ATOM     28  C   UNL     1       1.408  -2.285   2.630  0.00  0.00    +0.086 A 
ATOM     29  C   UNL     1       1.701  -3.593   2.992  0.00  0.00    +0.091 A 
ATOM     30  C   UNL     1       2.307  -3.809   4.296  0.00  0.00    -0.021 A 
ATOM     31  C   UNL     1       2.511  -2.692   5.027  0.00  0.00    -0.004 A 
ATOM     32  S   UNL     1       1.920  -1.369   4.009  0.00  0.00    -0.077 S 
ATOM     33  C   UNL     1       3.107  -2.607   6.399  0.00  0.00    +0.043 C 
ATOM     34  C   UNL     1       3.111  -4.014   7.012  0.00  0.00    +0.005 C 
ATOM     35  C   UNL     1       3.682  -4.998   5.987  0.00  0.00    +0.005 C 
ATOM     36  C   UNL     1       2.692  -5.181   4.835  0.00  0.00    +0.037 C 
BRANCH  29  37
ATOM     37  C   UNL     1       1.415  -4.713   2.093  0.00  0.00    +0.342 C 
ATOM     38  O   UNL     1       2.254  -5.081   1.294  0.00  0.00    -0.245 OA
BRANCH  37  39
ATOM     39  O   UNL     1       0.220  -5.336   2.151  0.00  0.00    -0.464 OA
ATOM     40  C   UNL     1       0.005  -6.437   1.230  0.00  0.00    +0.280 C 
ENDBRANCH  37  39
ENDBRANCH  29  37
ENDBRANCH  26  28
ENDBRANCH  23  24
ENDBRANCH  10  23
TORSDOF 9
