REMARK  Name = ZINC59459131
REMARK  5 active torsions:
REMARK  status: ('A' for Active; 'I' for Inactive)
REMARK    1  A    between atoms: C_10  and  C_11
REMARK    2  A    between atoms: C_11  and  C_12
REMARK    3  A    between atoms: N_14  and  N_15
REMARK    4  A    between atoms: C_16  and  C_17
REMARK    5  A    between atoms: C_20  and  O_27
REMARK                            x       y       z     vdW  Elec       q    Type
REMARK                         _______ _______ _______ _____ _____    ______ ____
ROOT
ATOM      1  C   UNL     1       5.349   0.505   1.369  0.00  0.00    +0.237 C 
ATOM      2  O   UNL     1       4.645   0.158   2.293  0.00  0.00    -0.274 OA
ATOM      3  N   UNL     1       6.473   1.211   1.605  0.00  0.00    -0.207 N 
ATOM      4  H   UNL     1       7.036   1.488   0.866  0.00  0.00    +0.177 HD
ENDROOT
BRANCH   3   5
ATOM      5  N   UNL     1       6.827   1.544   2.920  0.00  0.00    -0.188 NA
ATOM      6  C   UNL     1       7.911   2.224   3.148  0.00  0.00    +0.139 C 
BRANCH   6   7
ATOM      7  C   UNL     1       8.283   2.573   4.527  0.00  0.00    +0.005 A 
ATOM      8  C   UNL     1       9.493   3.203   4.796  0.00  0.00    +0.033 A 
ATOM      9  C   UNL     1       9.842   3.532   6.097  0.00  0.00    +0.085 A 
ATOM     10  C   UNL     1       9.014   3.251   7.162  0.00  0.00    +0.161 A 
ATOM     11  C   UNL     1       7.773   2.614   6.955  0.00  0.00    +0.114 A 
ATOM     12  C   UNL     1       7.384   2.271   5.638  0.00  0.00    +0.013 A 
ATOM     13  C   UNL     1       6.148   1.642   5.431  0.00  0.00    +0.012 A 
ATOM     14  C   UNL     1       5.362   1.391   6.522  0.00  0.00    +0.020 A 
ATOM     15  C   UNL     1       5.799   1.759   7.792  0.00  0.00    +0.111 A 
ATOM     16  N   UNL     1       6.962   2.336   7.980  0.00  0.00    -0.251 NA
ATOM     17 CL   UNL     1      11.363   4.316   6.392  0.00  0.00    -0.080 Cl
BRANCH  10  18
ATOM     18  O   UNL     1       9.396   3.591   8.420  0.00  0.00    -0.503 OA
ATOM     19  H   UNL     1       9.118   4.477   8.690  0.00  0.00    +0.292 HD
ENDBRANCH  10  18
ENDBRANCH   6   7
ENDBRANCH   3   5
BRANCH   1  20
ATOM     20  C   UNL     1       4.968   0.147  -0.045  0.00  0.00    +0.133 C 
BRANCH  20  30
ATOM     21  C   UNL     1      -0.016   1.311   0.021  0.00  0.00    +0.001 A 
ATOM     22  C   UNL     1       1.164   2.053   0.013  0.00  0.00    +0.001 A 
ATOM     23  C   UNL     1       2.378   1.438  -0.006  0.00  0.00    +0.009 A 
ATOM     24  C   UNL     1       2.447   0.034  -0.016  0.00  0.00    -0.014 A 
ATOM     25  C   UNL     1       1.246  -0.720  -0.008  0.00  0.00    -0.018 A 
ATOM     26  C   UNL     1       0.011  -0.049   0.011  0.00  0.00    +0.008 A 
ATOM     27  C   UNL     1       1.315  -2.123  -0.018  0.00  0.00    +0.008 A 
ATOM     28  C   UNL     1       2.529  -2.739  -0.036  0.00  0.00    +0.001 A 
ATOM     29  C   UNL     1       3.708  -1.997  -0.044  0.00  0.00    +0.005 A 
ATOM     30  C   UNL     1       3.681  -0.636  -0.035  0.00  0.00    -0.031 A 
ENDBRANCH  20  30
ENDBRANCH   1  20
TORSDOF 5
