REMARK  Name = ZINC16516498
REMARK  10 active torsions:
REMARK  status: ('A' for Active; 'I' for Inactive)
REMARK    1  A    between atoms: C_1  and  C_2
REMARK    2  A    between atoms: C_5  and  C_8
REMARK    3  A    between atoms: C_8  and  C_9
REMARK    4  A    between atoms: N_14  and  C_15
REMARK    5  A    between atoms: N_14  and  C_36
REMARK    6  A    between atoms: C_15  and  C_16
REMARK    7  A    between atoms: C_16  and  C_17
REMARK    8  A    between atoms: C_22  and  N_25
REMARK    9  A    between atoms: C_36  and  C_37
REMARK   10  A    between atoms: C_36  and  C_38
REMARK                            x       y       z     vdW  Elec       q    Type
REMARK                         _______ _______ _______ _____ _____    ______ ____
ROOT
ATOM      1  C   UNL     1      -5.057  -0.322  -2.173  0.00  0.00    +0.115 C 
ENDROOT
BRANCH   1   2
ATOM      2  C   UNL     1      -5.622  -1.659  -1.768  0.00  0.00    +0.217 C 
ATOM      3  O   UNL     1      -5.148  -2.680  -2.221  0.00  0.00    -0.276 OA
ATOM      4  N   UNL     1      -6.653  -1.721  -0.903  0.00  0.00    -0.301 N 
ATOM      5  C   UNL     1      -7.234  -0.494  -0.342  0.00  0.00    +0.110 C 
ATOM      6  C   UNL     1      -7.245  -0.601   1.182  0.00  0.00    +0.044 C 
ATOM      7  C   UNL     1      -7.967  -1.885   1.596  0.00  0.00    +0.095 C 
ATOM      8  C   UNL     1      -7.222  -3.097   1.031  0.00  0.00    +0.044 C 
ATOM      9  C   UNL     1      -7.214  -3.018  -0.499  0.00  0.00    +0.110 C 
BRANCH   7  10
ATOM     10  N   UNL     1      -8.004  -1.975   3.058  0.00  0.00    -0.289 N 
ATOM     11  C   UNL     1      -9.154  -2.032   3.842  0.00  0.00    +0.070 A 
ATOM     12  C   UNL     1     -10.508  -2.026   3.547  0.00  0.00    +0.028 A 
ATOM     13  C   UNL     1     -11.435  -2.095   4.568  0.00  0.00    +0.002 A 
ATOM     14  C   UNL     1     -11.018  -2.173   5.886  0.00  0.00    +0.002 A 
ATOM     15  C   UNL     1      -9.671  -2.180   6.190  0.00  0.00    +0.028 A 
ATOM     16  C   UNL     1      -8.732  -2.110   5.171  0.00  0.00    +0.067 A 
ATOM     17  N   UNL     1      -7.340  -2.097   5.153  0.00  0.00    -0.306 N 
ATOM     18  H   UNL     1      -6.762  -2.140   5.931  0.00  0.00    +0.170 HD
ATOM     19  C   UNL     1      -6.933  -2.021   3.872  0.00  0.00    +0.328 A 
ATOM     20  O   UNL     1      -5.772  -1.994   3.506  0.00  0.00    -0.247 OA
ENDBRANCH   7  10
ENDBRANCH   1   2
BRANCH   1  21
ATOM     21  C   UNL     1      -3.903  -0.532  -3.156  0.00  0.00    +0.116 C 
BRANCH  21  27
ATOM     22  C   UNL     1      -0.742   1.585  -1.213  0.00  0.00    +0.145 A 
ATOM     23  N   UNL     1      -1.699   0.865  -1.748  0.00  0.00    -0.208 NA
ATOM     24  C   UNL     1      -2.325   1.334  -2.819  0.00  0.00    +0.181 A 
ATOM     25  S   UNL     1      -1.503   2.842  -3.066  0.00  0.00    +0.049 S 
ATOM     26  N   UNL     1      -0.417   2.738  -1.747  0.00  0.00    -0.192 NA
ATOM     27  N   UNL     1      -3.354   0.768  -3.549  0.00  0.00    -0.305 N 
BRANCH  27  28
ATOM     28  C   UNL     1      -3.897   1.470  -4.716  0.00  0.00    +0.069 C 
ATOM     29  C   UNL     1      -4.453   2.827  -4.282  0.00  0.00    +0.028 C 
ATOM     30  C   UNL     1      -2.785   1.680  -5.746  0.00  0.00    +0.028 C 
ENDBRANCH  27  28
BRANCH  22  31
ATOM     31  C   UNL     1      -0.013   1.086   0.008  0.00  0.00    +0.112 C 
BRANCH  31  36
ATOM     32  C   UNL     1      -2.718   2.950   4.762  0.00  0.00    +0.044 C 
ATOM     33  C   UNL     1      -2.012   2.463   3.523  0.00  0.00    -0.050 A 
ATOM     34  C   UNL     1      -2.366   1.254   2.955  0.00  0.00    +0.003 A 
ATOM     35  C   UNL     1      -1.719   0.808   1.818  0.00  0.00    +0.004 A 
ATOM     36  C   UNL     1      -0.718   1.572   1.248  0.00  0.00    -0.040 A 
ATOM     37  C   UNL     1      -0.360   2.779   1.819  0.00  0.00    +0.004 A 
ATOM     38  C   UNL     1      -1.010   3.227   2.953  0.00  0.00    +0.003 A 
ENDBRANCH  31  36
ENDBRANCH  22  31
ENDBRANCH  21  27
ENDBRANCH   1  21
TORSDOF 7
