REMARK  Name = ZINC10042532
REMARK  7 active torsions:
REMARK  status: ('A' for Active; 'I' for Inactive)
REMARK    1  A    between atoms: C_1  and  C_2
REMARK    2  A    between atoms: C_5  and  N_9
REMARK    3  A    between atoms: N_9  and  S_10
REMARK    4  A    between atoms: S_10  and  C_13
REMARK    5  A    between atoms: C_16  and  N_19
REMARK    6  A    between atoms: C_20  and  C_22
REMARK    7  A    between atoms: C_23  and  C_24
REMARK                            x       y       z     vdW  Elec       q    Type
REMARK                         _______ _______ _______ _____ _____    ______ ____
ROOT
ATOM      1  C   UNL     1       0.940  -0.215   1.476  0.00  0.00    +0.109 A 
ATOM      2  C   UNL     1       2.309  -0.395   1.408  0.00  0.00    +0.030 A 
ATOM      3  C   UNL     1       3.032  -0.640   2.559  0.00  0.00    +0.025 A 
ATOM      4  C   UNL     1       2.381  -0.716   3.784  0.00  0.00    +0.034 A 
ATOM      5  C   UNL     1       1.005  -0.540   3.847  0.00  0.00    +0.025 A 
ATOM      6  C   UNL     1       0.288  -0.290   2.693  0.00  0.00    +0.030 A 
ENDROOT
BRANCH   4   7
ATOM      7  N   UNL     1       3.109  -0.970   4.950  0.00  0.00    -0.282 N 
ATOM      8  C   UNL     1       4.368  -0.503   5.073  0.00  0.00    +0.241 C 
ATOM      9  O   UNL     1       4.837   0.218   4.212  0.00  0.00    -0.270 OA
ATOM     10  H   UNL     1       2.709  -1.482   5.670  0.00  0.00    +0.155 HD
BRANCH   8  11
ATOM     11  C   UNL     1       5.170  -0.863   6.242  0.00  0.00    +0.068 C 
ATOM     12  C   UNL     1       6.430  -0.396   6.366  0.00  0.00    +0.013 C 
BRANCH  12  13
ATOM     13  C   UNL     1       7.236  -0.757   7.540  0.00  0.00    -0.021 A 
ATOM     14  C   UNL     1       6.699  -1.586   8.532  0.00  0.00    +0.012 A 
ATOM     15  C   UNL     1       7.457  -1.924   9.632  0.00  0.00    +0.050 A 
ATOM     16  C   UNL     1       8.754  -1.444   9.761  0.00  0.00    +0.166 A 
ATOM     17  C   UNL     1       9.296  -0.617   8.776  0.00  0.00    +0.167 A 
ATOM     18  C   UNL     1       8.545  -0.279   7.668  0.00  0.00    +0.057 A 
ATOM     19  O   UNL     1      10.571  -0.288   9.138  0.00  0.00    -0.453 OA
ATOM     20  C   UNL     1      10.944  -1.248  10.144  0.00  0.00    +0.466 C 
ATOM     21  O   UNL     1       9.689  -1.630  10.736  0.00  0.00    -0.453 OA
ENDBRANCH  12  13
ENDBRANCH   8  11
ENDBRANCH   4   7
BRANCH   1  22
ATOM     22  S   UNL     1       0.022   0.104   0.006  0.00  0.00    +0.072 S 
ATOM     23  O   UNL     1      -1.336  -0.193   0.302  0.00  0.00    -0.150 OA
ATOM     24  O   UNL     1       0.725  -0.524  -1.057  0.00  0.00    -0.150 OA
BRANCH  22  25
ATOM     25  N   UNL     1       0.099   1.735  -0.275  0.00  0.00    -0.216 N 
ATOM     26  H   UNL     1       0.528   2.069  -1.078  0.00  0.00    +0.174 HD
BRANCH  25  31
ATOM     27  C   UNL     1      -2.133   5.364   3.468  0.00  0.00    +0.045 C 
ATOM     28  C   UNL     1      -1.540   4.400   2.473  0.00  0.00    -0.032 A 
ATOM     29  C   UNL     1      -2.250   3.275   2.095  0.00  0.00    +0.006 A 
ATOM     30  C   UNL     1      -1.712   2.392   1.179  0.00  0.00    +0.025 A 
ATOM     31  C   UNL     1      -0.451   2.629   0.646  0.00  0.00    +0.049 A 
ATOM     32  C   UNL     1       0.261   3.759   1.028  0.00  0.00    +0.044 A 
ATOM     33  C   UNL     1      -0.286   4.642   1.940  0.00  0.00    +0.046 A 
ATOM     34 CL   UNL     1       0.602   6.055   2.419  0.00  0.00    -0.083 Cl
ENDBRANCH  25  31
ENDBRANCH  22  25
ENDBRANCH   1  22
TORSDOF 6
