REMARK  Name = ZINC40448472
REMARK  2 active torsions:
REMARK  status: ('A' for Active; 'I' for Inactive)
REMARK    1  A    between atoms: C_1  and  C_2
REMARK    2  A    between atoms: C_4  and  C_9
REMARK                            x       y       z     vdW  Elec       q    Type
REMARK                         _______ _______ _______ _____ _____    ______ ____
ROOT
ATOM      1  C   UNL     1      -0.019   1.526   0.010  0.00  0.00    +0.033 C 
ATOM      2  C   UNL     1       0.002  -0.004   0.002  0.00  0.00    +0.133 C 
ATOM      3  C   UNL     1      -1.407  -0.553   0.058  0.00  0.00    +0.054 C 
ATOM      4  N   UNL     1      -1.507  -1.241   1.127  0.00  0.00    -0.179 NA
ATOM      5  N   UNL     1      -0.323  -1.256   1.861  0.00  0.00    -0.189 N 
ATOM      6  N   UNL     1       0.644  -0.519   1.229  0.00  0.00    -0.137 NA
ATOM      7  S   UNL     1       1.204   0.805   2.254  0.00  0.00    +0.030 SA
ATOM      8  C   UNL     1      -2.493  -0.327  -0.963  0.00  0.00    +0.064 C 
ATOM      9  H   UNL     1      -0.200  -1.723   2.702  0.00  0.00    +0.190 HD
ENDROOT
TORSDOF 0
