REMARK  Name = ZINC40720007
REMARK  11 active torsions:
REMARK  status: ('A' for Active; 'I' for Inactive)
REMARK    1  A    between atoms: C_1  and  C_2
REMARK    2  A    between atoms: C_2  and  N_3
REMARK    3  A    between atoms: C_7  and  C_9
REMARK    4  A    between atoms: C_9  and  N_10
REMARK    5  A    between atoms: N_10  and  C_11
REMARK    6  A    between atoms: C_11  and  C_12
REMARK    7  A    between atoms: C_14  and  O_29
REMARK    8  A    between atoms: C_15  and  O_19
REMARK    9  A    between atoms: O_19  and  C_20
REMARK   10  A    between atoms: C_20  and  C_21
REMARK   11  A    between atoms: O_29  and  C_30
REMARK                            x       y       z     vdW  Elec       q    Type
REMARK                         _______ _______ _______ _____ _____    ______ ____
ROOT
ATOM      1  C   UNL     1      -3.455  -1.019  -4.042  0.00  0.00    -0.060 A 
ATOM      2  C   UNL     1      -4.607  -1.600  -3.546  0.00  0.00    +0.051 A 
ATOM      3  C   UNL     1      -5.806  -0.907  -3.584  0.00  0.00    +0.163 A 
ATOM      4  C   UNL     1      -5.848   0.375  -4.123  0.00  0.00    +0.176 A 
ATOM      5  C   UNL     1      -4.689   0.953  -4.619  0.00  0.00    +0.063 A 
ATOM      6  C   UNL     1      -3.495   0.257  -4.573  0.00  0.00    +0.021 A 
ATOM      7 BR   UNL     1      -4.741   2.695  -5.353  0.00  0.00    -0.046 Br
ENDROOT
BRANCH   3   8
ATOM      8  O   UNL     1      -6.940  -1.478  -3.097  0.00  0.00    -0.491 OA
ATOM      9  C   UNL     1      -6.822  -2.797  -2.559  0.00  0.00    +0.277 C 
ENDBRANCH   3   8
BRANCH   1  10
ATOM     10  C   UNL     1      -2.153  -1.775  -3.999  0.00  0.00    -0.047 C 
BRANCH  10  11
ATOM     11  N   UNL     1      -1.464  -1.492  -2.733  0.00  0.00    +0.383 N 
ATOM     12  H   UNL     1      -2.046  -1.780  -1.961  0.00  0.00    -0.085 HD
ATOM     13  H   UNL     1      -1.280  -0.502  -2.664  0.00  0.00    -0.085 HD
BRANCH  11  14
ATOM     14  C   UNL     1      -0.194  -2.229  -2.691  0.00  0.00    -0.063 C 
BRANCH  14  19
ATOM     15  N   UNL     1       0.690  -0.478  -1.207  0.00  0.00    -0.301 NA
ATOM     16  C   UNL     1       2.135  -0.172  -1.148  0.00  0.00    +0.084 C 
ATOM     17  C   UNL     1       2.799  -1.487  -0.669  0.00  0.00    +0.017 C 
ATOM     18  C   UNL     1       1.936  -2.555  -1.393  0.00  0.00    +0.018 C 
ATOM     19  C   UNL     1       0.524  -1.933  -1.373  0.00  0.00    +0.040 C 
BRANCH  15  21
ATOM     20  C   UNL     1      -0.019   1.526   0.010  0.00  0.00    +0.020 C 
ATOM     21  C   UNL     1       0.002  -0.004   0.002  0.00  0.00    +0.081 C 
ENDBRANCH  15  21
ENDBRANCH  14  19
ENDBRANCH  11  14
ENDBRANCH  10  11
ENDBRANCH   1  10
BRANCH   4  22
ATOM     22  O   UNL     1      -7.022   1.060  -4.164  0.00  0.00    -0.483 OA
BRANCH  22  23
ATOM     23  C   UNL     1      -7.336   1.877  -3.035  0.00  0.00    +0.267 C 
BRANCH  23  24
ATOM     24  C   UNL     1      -8.665   2.553  -3.257  0.00  0.00    +0.026 A 
ATOM     25  C   UNL     1      -8.717   3.787  -3.881  0.00  0.00    +0.049 A 
ATOM     26  C   UNL     1      -9.937   4.407  -4.085  0.00  0.00    +0.020 A 
ATOM     27  C   UNL     1     -11.103   3.794  -3.666  0.00  0.00    +0.003 A 
ATOM     28  C   UNL     1     -11.051   2.561  -3.043  0.00  0.00    +0.020 A 
ATOM     29  C   UNL     1      -9.832   1.937  -2.844  0.00  0.00    +0.049 A 
ATOM     30 CL   UNL     1      -9.768   0.385  -2.069  0.00  0.00    -0.083 Cl
ATOM     31 CL   UNL     1      -7.253   4.558  -4.405  0.00  0.00    -0.083 Cl
ENDBRANCH  23  24
ENDBRANCH  22  23
ENDBRANCH   4  22
TORSDOF 9
