REMARK  Name = ZINC39442014
REMARK  9 active torsions:
REMARK  status: ('A' for Active; 'I' for Inactive)
REMARK    1  A    between atoms: C_1  and  C_2
REMARK    2  A    between atoms: C_2  and  C_3
REMARK    3  A    between atoms: C_4  and  C_32
REMARK    4  A    between atoms: C_5  and  C_9
REMARK    5  A    between atoms: N_11  and  C_12
REMARK    6  A    between atoms: C_12  and  C_14
REMARK    7  A    between atoms: C_12  and  C_15
REMARK    8  A    between atoms: N_18  and  C_22
REMARK    9  A    between atoms: C_19  and  C_21
REMARK                            x       y       z     vdW  Elec       q    Type
REMARK                         _______ _______ _______ _____ _____    ______ ____
ROOT
ATOM      1  C   UNL     1      -1.137  -4.860   5.615  0.00  0.00    -0.013 C 
ATOM      2  C   UNL     1      -1.933  -5.839   5.240  0.00  0.00    +0.091 C 
ATOM      3  N   UNL     1      -3.080  -5.893   6.008  0.00  0.00    -0.271 N 
ATOM      4  N   UNL     1      -3.066  -4.878   6.976  0.00  0.00    -0.246 N 
ATOM      5  C   UNL     1      -1.799  -4.154   6.777  0.00  0.00    +0.120 C 
ATOM      6  C   UNL     1      -2.073  -2.690   6.426  0.00  0.00    +0.035 C 
ATOM      7  H   UNL     1      -3.793  -6.540   5.894  0.00  0.00    +0.169 HD
ENDROOT
BRANCH   4   8
ATOM      8  C   UNL     1      -4.046  -4.613   7.930  0.00  0.00    +0.056 A 
ATOM      9  C   UNL     1      -3.716  -4.555   9.268  0.00  0.00    +0.025 A 
ATOM     10  C   UNL     1      -4.687  -4.290  10.229  0.00  0.00    +0.002 A 
ATOM     11  C   UNL     1      -5.986  -4.082   9.877  0.00  0.00    +0.008 A 
ATOM     12  C   UNL     1      -6.364  -4.133   8.525  0.00  0.00    -0.016 A 
ATOM     13  C   UNL     1      -5.384  -4.396   7.536  0.00  0.00    +0.005 A 
ATOM     14  C   UNL     1      -5.762  -4.442   6.185  0.00  0.00    +0.010 A 
ATOM     15  C   UNL     1      -7.062  -4.228   5.842  0.00  0.00    +0.001 A 
ATOM     16  C   UNL     1      -8.026  -3.963   6.813  0.00  0.00    +0.001 A 
ATOM     17  C   UNL     1      -7.697  -3.922   8.133  0.00  0.00    +0.008 A 
ENDBRANCH   4   8
BRANCH   1  18
ATOM     18  C   UNL     1       0.195  -4.511   5.003  0.00  0.00    +0.099 C 
ATOM     19  C   UNL     1       0.555  -5.549   3.938  0.00  0.00    +0.033 C 
BRANCH  18  22
ATOM     20  C   UNL     1       2.327  -3.742   5.897  0.00  0.00    +0.244 C 
ATOM     21  O   UNL     1       2.466  -3.063   4.902  0.00  0.00    -0.273 OA
ATOM     22  N   UNL     1       1.225  -4.503   6.044  0.00  0.00    -0.307 N 
ATOM     23  H   UNL     1       1.114  -5.046   6.840  0.00  0.00    +0.149 HD
BRANCH  20  26
ATOM     24  C   UNL     1       3.935  -1.894   8.142  0.00  0.00    +0.064 C 
ATOM     25  C   UNL     1       2.982  -2.828   8.118  0.00  0.00    -0.015 C 
ATOM     26  C   UNL     1       3.387  -3.734   6.968  0.00  0.00    +0.241 C 
ATOM     27  N   UNL     1       4.627  -3.110   6.476  0.00  0.00    -0.170 NA
ATOM     28  N   UNL     1       4.846  -2.113   7.168  0.00  0.00    -0.158 NA
ATOM     29  C   UNL     1       1.782  -2.954   9.021  0.00  0.00    +0.044 C 
BRANCH  24  31
ATOM     30  C   UNL     1       4.882  -1.125  10.301  0.00  0.00    +0.010 C 
ATOM     31  C   UNL     1       3.986  -0.748   9.119  0.00  0.00    +0.054 C 
ENDBRANCH  24  31
ENDBRANCH  20  26
ENDBRANCH  18  22
ENDBRANCH   1  18
TORSDOF 5
