REMARK  Name = ZINC20610817
REMARK  6 active torsions:
REMARK  status: ('A' for Active; 'I' for Inactive)
REMARK    1  A    between atoms: C_1  and  C_2
REMARK    2  A    between atoms: C_5  and  N_9
REMARK    3  A    between atoms: C_7  and  C_8
REMARK    4  A    between atoms: C_12  and  C_19
REMARK    5  A    between atoms: C_25  and  O_31
REMARK    6  A    between atoms: O_31  and  C_32
REMARK                            x       y       z     vdW  Elec       q    Type
REMARK                         _______ _______ _______ _____ _____    ______ ____
ROOT
ATOM      1  N   UNL     1       0.059  -4.172  -0.021  0.00  0.00    -0.229 N 
ATOM      2  C   UNL     1      -0.035  -4.835  -1.190  0.00  0.00    +0.267 A 
ATOM      3  O   UNL     1      -0.136  -4.221  -2.238  0.00  0.00    -0.267 OA
ATOM      4  C   UNL     1      -0.016  -6.241  -1.193  0.00  0.00    +0.073 A 
ATOM      5  C   UNL     1       0.098  -6.905  -0.007  0.00  0.00    +0.260 A 
ATOM      6  N   UNL     1       0.191  -6.190   1.160  0.00  0.00    -0.274 N 
ATOM      7  H   UNL     1       0.273  -6.657   2.006  0.00  0.00    +0.173 HD
ATOM      8  C   UNL     1       0.175  -4.844   1.139  0.00  0.00    +0.337 A 
ATOM      9  O   UNL     1       0.264  -4.228   2.183  0.00  0.00    -0.246 OA
ATOM     10  O   UNL     1       0.119  -8.254   0.018  0.00  0.00    -0.267 OA
ENDROOT
BRANCH   4  11
ATOM     11  C   UNL     1      -0.119  -7.004  -2.488  0.00  0.00    +0.018 C 
ATOM     12  C   UNL     1       1.091  -6.718  -3.344  0.00  0.00    +0.011 A 
ATOM     13  C   UNL     1       1.014  -6.490  -4.676  0.00  0.00    -0.022 A 
ATOM     14  C   UNL     1       2.358  -6.253  -5.149  0.00  0.00    +0.006 A 
ATOM     15  C   UNL     1       2.885  -5.967  -6.413  0.00  0.00    +0.056 A 
ATOM     16  C   UNL     1       4.259  -5.797  -6.495  0.00  0.00    +0.121 A 
ATOM     17  C   UNL     1       5.078  -5.904  -5.377  0.00  0.00    +0.047 A 
ATOM     18  C   UNL     1       4.575  -6.186  -4.120  0.00  0.00    +0.030 A 
ATOM     19  C   UNL     1       3.198  -6.362  -4.010  0.00  0.00    +0.047 A 
ATOM     20  N   UNL     1       2.396  -6.645  -2.938  0.00  0.00    -0.359 N 
ATOM     21  H   UNL     1       2.705  -6.774  -2.028  0.00  0.00    +0.166 HD
ATOM     22  C   UNL     1      -0.285  -6.505  -5.441  0.00  0.00    +0.018 C 
ATOM     23  C   UNL     1      -1.344  -7.179  -4.557  0.00  0.00    -0.076 C 
ATOM     24  N   UNL     1      -1.325  -6.579  -3.217  0.00  0.00    +0.388 N 
ATOM     25  H   UNL     1      -2.145  -6.869  -2.705  0.00  0.00    -0.084 HD
ATOM     26  H   UNL     1      -1.326  -5.573  -3.303  0.00  0.00    -0.084 HD
BRANCH  16  27
ATOM     27  O   UNL     1       4.820  -5.518  -7.701  0.00  0.00    -0.495 OA
ATOM     28  C   UNL     1       6.239  -5.351  -7.734  0.00  0.00    +0.277 C 
ENDBRANCH  16  27
ENDBRANCH   4  11
BRANCH   1  33
ATOM     29  C   UNL     1      -0.017   1.503   0.008  0.00  0.00    +0.044 C 
ATOM     30  C   UNL     1       0.003  -0.004   0.001  0.00  0.00    -0.047 A 
ATOM     31  C   UNL     1       1.206  -0.678  -0.110  0.00  0.00    +0.005 A 
ATOM     32  C   UNL     1       1.228  -2.058  -0.118  0.00  0.00    +0.027 A 
ATOM     33  C   UNL     1       0.040  -2.771  -0.013  0.00  0.00    +0.055 A 
ATOM     34  C   UNL     1      -1.166  -2.091   0.099  0.00  0.00    +0.030 A 
ATOM     35  C   UNL     1      -1.180  -0.710   0.110  0.00  0.00    -0.046 A 
ATOM     36  C   UNL     1      -2.488   0.028   0.237  0.00  0.00    +0.044 C 
ENDBRANCH   1  33
TORSDOF 3
