REMARK  Name = ZINC39599398
REMARK  11 active torsions:
REMARK  status: ('A' for Active; 'I' for Inactive)
REMARK    1  A    between atoms: C_1  and  C_2
REMARK    2  A    between atoms: C_2  and  C_3
REMARK    3  A    between atoms: C_3  and  C_5
REMARK    4  A    between atoms: C_3  and  C_6
REMARK    5  A    between atoms: C_6  and  C_7
REMARK    6  A    between atoms: C_11  and  C_20
REMARK    7  A    between atoms: N_22  and  C_23
REMARK    8  A    between atoms: C_23  and  C_24
REMARK    9  A    between atoms: C_24  and  C_25
REMARK   10  A    between atoms: C_28  and  O_34
REMARK   11  A    between atoms: O_34  and  C_35
REMARK                            x       y       z     vdW  Elec       q    Type
REMARK                         _______ _______ _______ _____ _____    ______ ____
ROOT
ATOM      1  C   UNL     1      -2.987  -2.586  -0.278  0.00  0.00    +0.216 C 
ATOM      2  O   UNL     1      -3.938  -1.837  -0.202  0.00  0.00    -0.276 OA
ATOM      3  N   UNL     1      -3.183  -3.916  -0.370  0.00  0.00    -0.300 N 
ATOM      4  C   UNL     1      -2.157  -4.981  -0.464  0.00  0.00    +0.121 C 
ATOM      5  C   UNL     1      -2.705  -6.129   0.413  0.00  0.00    +0.100 C 
ATOM      6  C   UNL     1      -4.226  -5.904   0.450  0.00  0.00    -0.004 C 
ATOM      7  C   UNL     1      -4.474  -4.645  -0.394  0.00  0.00    +0.115 C 
ATOM      8  C   UNL     1      -4.691  -5.671   1.884  0.00  0.00    -0.010 C 
ATOM      9  C   UNL     1      -6.213  -5.506   1.901  0.00  0.00    -0.082 C 
ATOM     10  N   UNL     1      -6.844  -6.712   1.350  0.00  0.00    +0.379 N 
ATOM     11  C   UNL     1      -6.464  -6.877  -0.058  0.00  0.00    -0.082 C 
ATOM     12  C   UNL     1      -4.952  -7.100  -0.158  0.00  0.00    -0.010 C 
ATOM     13  H   UNL     1      -6.541  -7.519   1.875  0.00  0.00    -0.086 HD
ATOM     14  H   UNL     1      -7.847  -6.627   1.419  0.00  0.00    -0.086 HD
ENDROOT
BRANCH   5  15
ATOM     15  C   UNL     1      -2.385  -7.464  -0.210  0.00  0.00    +0.218 C 
ATOM     16  O   UNL     1      -2.305  -7.566  -1.416  0.00  0.00    -0.275 OA
ATOM     17  N   UNL     1      -2.188  -8.543   0.573  0.00  0.00    -0.315 N 
ATOM     18  H   UNL     1      -2.252  -8.461   1.537  0.00  0.00    +0.149 HD
BRANCH  17  19
ATOM     19  C   UNL     1      -1.876  -9.840  -0.033  0.00  0.00    +0.109 C 
BRANCH  19  20
ATOM     20  C   UNL     1      -1.701 -10.888   1.068  0.00  0.00    +0.056 C 
BRANCH  20  21
ATOM     21  C   UNL     1      -1.381 -12.222   0.446  0.00  0.00    -0.021 A 
ATOM     22  C   UNL     1      -0.056 -12.702   0.047  0.00  0.00    +0.006 A 
ATOM     23  C   UNL     1       1.228 -12.156   0.098  0.00  0.00    +0.056 A 
ATOM     24  C   UNL     1       2.300 -12.888  -0.372  0.00  0.00    +0.121 A 
ATOM     25  C   UNL     1       2.104 -14.164  -0.895  0.00  0.00    +0.047 A 
ATOM     26  C   UNL     1       0.842 -14.712  -0.951  0.00  0.00    +0.030 A 
ATOM     27  C   UNL     1      -0.251 -13.991  -0.482  0.00  0.00    +0.047 A 
ATOM     28  N   UNL     1      -1.601 -14.261  -0.404  0.00  0.00    -0.360 N 
ATOM     29  C   UNL     1      -2.256 -13.199   0.156  0.00  0.00    +0.087 A 
ATOM     30  H   UNL     1      -2.023 -15.084  -0.699  0.00  0.00    +0.165 HD
BRANCH  24  31
ATOM     31  O   UNL     1       3.553 -12.361  -0.325  0.00  0.00    -0.495 OA
ATOM     32  C   UNL     1       4.617 -13.172  -0.828  0.00  0.00    +0.277 C 
ENDBRANCH  24  31
ENDBRANCH  20  21
ENDBRANCH  19  20
ENDBRANCH  17  19
ENDBRANCH   5  15
BRANCH   1  33
ATOM     33  C   UNL     1      -1.587  -2.029  -0.270  0.00  0.00    +0.099 C 
BRANCH  33  34
ATOM     34  C   UNL     1      -1.644  -0.505  -0.158  0.00  0.00    -0.006 C 
ATOM     35  C   UNL     1      -2.243  -0.115   1.195  0.00  0.00    +0.008 C 
BRANCH  34  37
ATOM     36  C   UNL     1      -0.300   1.597  -0.288  0.00  0.00    +0.004 C 
ATOM     37  C   UNL     1      -0.231   0.069  -0.274  0.00  0.00    +0.000 C 
ENDBRANCH  34  37
ENDBRANCH  33  34
ENDBRANCH   1  33
TORSDOF 8
