REMARK  Name = ZINC34971419
REMARK  8 active torsions:
REMARK  status: ('A' for Active; 'I' for Inactive)
REMARK    1  A    between atoms: C_1  and  C_2
REMARK    2  A    between atoms: C_2  and  C_3
REMARK    3  A    between atoms: C_2  and  C_4
REMARK    4  A    between atoms: C_2  and  C_5
REMARK    5  A    between atoms: C_5  and  C_6
REMARK    6  A    between atoms: N_8  and  C_9
REMARK    7  A    between atoms: C_9  and  C_10
REMARK    8  A    between atoms: C_25  and  C_27
REMARK                            x       y       z     vdW  Elec       q    Type
REMARK                         _______ _______ _______ _____ _____    ______ ____
ROOT
ATOM      1  C   UNL     1       5.056  -0.238  -3.514  0.00  0.00    +0.234 C 
ATOM      2  O   UNL     1       4.455  -0.946  -4.294  0.00  0.00    -0.274 OA
ATOM      3  N   UNL     1       6.338   0.098  -3.758  0.00  0.00    -0.287 N 
ATOM      4  C   UNL     1       7.086   0.949  -2.821  0.00  0.00    +0.113 C 
ATOM      5  C   UNL     1       7.442   2.266  -3.522  0.00  0.00    +0.056 C 
ATOM      6  C   UNL     1       7.965   1.962  -4.902  0.00  0.00    -0.015 A 
ATOM      7  C   UNL     1       8.736   2.820  -5.779  0.00  0.00    +0.003 A 
ATOM      8  C   UNL     1       9.220   4.125  -5.643  0.00  0.00    +0.010 A 
ATOM      9  C   UNL     1       9.931   4.636  -6.700  0.00  0.00    +0.001 A 
ATOM     10  C   UNL     1      10.165   3.904  -7.853  0.00  0.00    +0.002 A 
ATOM     11  C   UNL     1       9.698   2.611  -8.014  0.00  0.00    +0.026 A 
ATOM     12  C   UNL     1       8.972   2.066  -6.957  0.00  0.00    +0.047 A 
ATOM     13  N   UNL     1       8.379   0.848  -6.786  0.00  0.00    -0.356 N 
ATOM     14  H   UNL     1       8.381   0.129  -7.437  0.00  0.00    +0.166 HD
ATOM     15  C   UNL     1       7.782   0.794  -5.555  0.00  0.00    +0.046 A 
ATOM     16  C   UNL     1       7.028  -0.384  -4.967  0.00  0.00    +0.153 C 
ENDROOT
BRANCH  16  17
ATOM     17  C   UNL     1       7.991  -1.484  -4.603  0.00  0.00    -0.021 A 
ATOM     18  C   UNL     1       7.801  -2.761  -5.098  0.00  0.00    +0.006 A 
ATOM     19  C   UNL     1       8.684  -3.770  -4.764  0.00  0.00    +0.000 A 
ATOM     20  C   UNL     1       9.759  -3.502  -3.936  0.00  0.00    +0.000 A 
ATOM     21  C   UNL     1       9.950  -2.225  -3.443  0.00  0.00    +0.000 A 
ATOM     22  C   UNL     1       9.068  -1.215  -3.780  0.00  0.00    +0.006 A 
ENDBRANCH  16  17
BRANCH   1  23
ATOM     23  C   UNL     1       4.369   0.265  -2.270  0.00  0.00    +0.200 C 
BRANCH  23  26
ATOM     24  C   UNL     1       2.183   0.088  -1.209  0.00  0.00    +0.214 C 
ATOM     25  O   UNL     1       2.594   0.794  -0.312  0.00  0.00    -0.276 OA
ATOM     26  N   UNL     1       2.993  -0.236  -2.236  0.00  0.00    -0.307 N 
ATOM     27  H   UNL     1       2.664  -0.801  -2.953  0.00  0.00    +0.149 HD
BRANCH  24  28
ATOM     28  C   UNL     1       0.767  -0.427  -1.173  0.00  0.00    +0.102 C 
BRANCH  28  30
ATOM     29  C   UNL     1       0.056   1.614   0.080  0.00  0.00    +0.011 C 
ATOM     30  C   UNL     1       0.070   0.084   0.089  0.00  0.00    -0.029 C 
ATOM     31  C   UNL     1       0.824  -0.412   1.325  0.00  0.00    +0.011 C 
ATOM     32  C   UNL     1      -1.368  -0.439   0.125  0.00  0.00    +0.011 C 
ENDBRANCH  28  30
ENDBRANCH  24  28
ENDBRANCH  23  26
ENDBRANCH   1  23
TORSDOF 5
