REMARK  Name = ZINC10033937
REMARK  8 active torsions:
REMARK  status: ('A' for Active; 'I' for Inactive)
REMARK    1  A    between atoms: C_1  and  C_2
REMARK    2  A    between atoms: C_5  and  N_8
REMARK    3  A    between atoms: C_9  and  N_18
REMARK    4  A    between atoms: C_19  and  C_21
REMARK    5  A    between atoms: N_23  and  C_24
REMARK    6  A    between atoms: C_27  and  C_34
REMARK    7  A    between atoms: C_30  and  C_32
REMARK    8  A    between atoms: C_30  and  C_33
REMARK                            x       y       z     vdW  Elec       q    Type
REMARK                         _______ _______ _______ _____ _____    ______ ____
ROOT
ATOM      1  N   UNL     1      -0.090   1.927   0.194  0.00  0.00    -0.218 N 
ATOM      2  C   UNL     1      -1.056   2.764  -0.260  0.00  0.00    +0.134 A 
ATOM      3  C   UNL     1      -0.434   3.891  -0.749  0.00  0.00    +0.038 A 
ATOM      4  C   UNL     1       0.931   3.723  -0.593  0.00  0.00    +0.091 A 
ATOM      5  N   UNL     1       1.143   2.543  -0.026  0.00  0.00    -0.168 NA
ATOM      6  C   UNL     1       1.824   4.863  -1.078  0.00  0.00    +0.223 C 
ATOM      7  S   UNL     1       0.664   5.828  -2.131  0.00  0.00    -0.021 S 
ATOM      8  O   UNL     1       0.763   5.378  -3.475  0.00  0.00    -0.174 OA
ATOM      9  O   UNL     1       0.800   7.212  -1.839  0.00  0.00    -0.174 OA
ATOM     10  C   UNL     1      -0.897   5.198  -1.389  0.00  0.00    +0.206 C 
ENDROOT
BRANCH   1  15
ATOM     11  C   UNL     1      -0.910  -3.171   2.548  0.00  0.00    +0.044 C 
ATOM     12  C   UNL     1      -0.693  -1.817   1.923  0.00  0.00    -0.050 A 
ATOM     13  C   UNL     1       0.336  -1.633   1.017  0.00  0.00    +0.005 A 
ATOM     14  C   UNL     1       0.538  -0.394   0.442  0.00  0.00    +0.028 A 
ATOM     15  C   UNL     1      -0.293   0.668   0.775  0.00  0.00    +0.067 A 
ATOM     16  C   UNL     1      -1.321   0.481   1.688  0.00  0.00    +0.028 A 
ATOM     17  C   UNL     1      -1.522  -0.762   2.256  0.00  0.00    +0.005 A 
ENDBRANCH   1  15
BRANCH   2  18
ATOM     18  N   UNL     1      -2.427   2.527  -0.235  0.00  0.00    -0.262 N 
ATOM     19  C   UNL     1      -3.288   3.561  -0.158  0.00  0.00    +0.304 C 
ATOM     20  O   UNL     1      -2.871   4.701  -0.175  0.00  0.00    -0.265 OA
ATOM     21  H   UNL     1      -2.763   1.618  -0.272  0.00  0.00    +0.157 HD
BRANCH  19  22
ATOM     22  C   UNL     1      -4.755   3.305  -0.052  0.00  0.00    +0.300 C 
ATOM     23  O   UNL     1      -5.173   2.166  -0.035  0.00  0.00    -0.265 OA
ATOM     24  N   UNL     1      -5.616   4.339   0.024  0.00  0.00    -0.305 N 
ATOM     25  H   UNL     1      -5.283   5.250   0.011  0.00  0.00    +0.149 HD
BRANCH  24  26
ATOM     26  C   UNL     1      -7.056   4.088   0.128  0.00  0.00    +0.074 C 
ATOM     27  C   UNL     1      -7.772   5.380   0.526  0.00  0.00    +0.025 C 
ATOM     28  C   UNL     1      -7.517   6.452  -0.535  0.00  0.00    -0.012 C 
ATOM     29  C   UNL     1      -8.049   5.969  -1.886  0.00  0.00    +0.009 C 
ATOM     30  C   UNL     1      -7.333   4.677  -2.284  0.00  0.00    -0.033 C 
ATOM     31  C   UNL     1      -7.588   3.605  -1.222  0.00  0.00    +0.028 C 
ATOM     32  C   UNL     1      -7.865   4.194  -3.635  0.00  0.00    +0.011 C 
ATOM     33  C   UNL     1      -5.829   4.940  -2.392  0.00  0.00    +0.011 C 
ATOM     34  C   UNL     1      -8.233   7.744  -0.137  0.00  0.00    +0.007 C 
ENDBRANCH  24  26
ENDBRANCH  19  22
ENDBRANCH   2  18
TORSDOF 4
