REMARK  Name = ZINC26915695
REMARK  8 active torsions:
REMARK  status: ('A' for Active; 'I' for Inactive)
REMARK    1  A    between atoms: C_1  and  C_2
REMARK    2  A    between atoms: C_2  and  C_3
REMARK    3  A    between atoms: C_3  and  C_26
REMARK    4  A    between atoms: N_6  and  N_10
REMARK    5  A    between atoms: C_11  and  C_13
REMARK    6  A    between atoms: C_13  and  N_14
REMARK    7  A    between atoms: N_14  and  C_15
REMARK    8  A    between atoms: N_14  and  C_16
REMARK                            x       y       z     vdW  Elec       q    Type
REMARK                         _______ _______ _______ _____ _____    ______ ____
ROOT
ATOM      1  N   UNL     1       1.921  -1.867  -2.584  0.00  0.00    -0.225 N 
ATOM      2  C   UNL     1       1.769  -3.202  -2.688  0.00  0.00    +0.213 C 
ATOM      3  O   UNL     1       1.187  -3.816  -1.818  0.00  0.00    -0.276 OA
ATOM      4  H   UNL     1       2.449  -1.310  -3.372  0.00  0.00    +0.173 HD
ENDROOT
BRANCH   1   8
ATOM      5  C   UNL     1       0.128   0.102  -0.086  0.00  0.00    +0.139 C 
ATOM      6  C   UNL     1       0.296  -0.425  -1.497  0.00  0.00    +0.268 C 
ATOM      7  O   UNL     1      -0.420  -0.206  -2.451  0.00  0.00    -0.271 OA
ATOM      8  N   UNL     1       1.407  -1.188  -1.471  0.00  0.00    -0.137 N 
ATOM      9  C   UNL     1       1.957  -1.216  -0.252  0.00  0.00    +0.327 C 
ATOM     10  O   UNL     1       2.966  -1.837   0.019  0.00  0.00    -0.251 OA
ATOM     11  N   UNL     1       1.270  -0.480   0.639  0.00  0.00    -0.280 N 
ATOM     12  H   UNL     1       1.409  -0.266   1.709  0.00  0.00    +0.152 HD
BRANCH   5  13
ATOM     13  C   UNL     1       0.200   1.607  -0.070  0.00  0.00    -0.015 A 
ATOM     14  C   UNL     1      -0.960   2.356  -0.124  0.00  0.00    +0.006 A 
ATOM     15  C   UNL     1      -0.894   3.736  -0.104  0.00  0.00    +0.000 A 
ATOM     16  C   UNL     1       0.334   4.368  -0.040  0.00  0.00    +0.000 A 
ATOM     17  C   UNL     1       1.495   3.620   0.010  0.00  0.00    +0.000 A 
ATOM     18  C   UNL     1       1.428   2.239  -0.005  0.00  0.00    +0.006 A 
ENDBRANCH   5  13
BRANCH   5  20
ATOM     19  C   UNL     1      -1.190  -1.906   0.603  0.00  0.00    +0.007 C 
ATOM     20  C   UNL     1      -1.194  -0.378   0.517  0.00  0.00    +0.037 C 
ENDBRANCH   5  20
ENDBRANCH   1   8
BRANCH   2  21
ATOM     21  C   UNL     1       2.323  -3.932  -3.884  0.00  0.00    +0.021 C 
BRANCH  21  22
ATOM     22  N   UNL     1       2.028  -5.366  -3.761  0.00  0.00    +0.388 N 
ATOM     23  C   UNL     1       2.862  -5.988  -2.724  0.00  0.00    -0.095 C 
ATOM     24  H   UNL     1       0.977  -5.471  -3.457  0.00  0.00    -0.081 HD
BRANCH  22  25
ATOM     25  C   UNL     1       2.195  -6.050  -5.051  0.00  0.00    -0.037 C 
ATOM     26  C   UNL     1       3.615  -5.807  -5.606  0.00  0.00    -0.006 C 
ATOM     27  C   UNL     1       3.368  -5.740  -7.128  0.00  0.00    +0.034 C 
ATOM     28  C   UNL     1       1.933  -5.282  -7.277  0.00  0.00    -0.046 A 
ATOM     29  C   UNL     1       1.258  -5.461  -6.083  0.00  0.00    -0.058 A 
ATOM     30  C   UNL     1      -0.076  -5.105  -5.986  0.00  0.00    +0.002 A 
ATOM     31  C   UNL     1      -0.735  -4.575  -7.078  0.00  0.00    +0.000 A 
ATOM     32  C   UNL     1      -0.062  -4.397  -8.271  0.00  0.00    +0.000 A 
ATOM     33  C   UNL     1       1.270  -4.750  -8.370  0.00  0.00    +0.004 A 
ENDBRANCH  22  25
ENDBRANCH  21  22
ENDBRANCH   2  21
TORSDOF 6
