REMARK  Name = ZINC09728340
REMARK  6 active torsions:
REMARK  status: ('A' for Active; 'I' for Inactive)
REMARK    1  A    between atoms: C_1  and  C_2
REMARK    2  A    between atoms: C_5  and  N_8
REMARK    3  A    between atoms: N_8  and  S_9
REMARK    4  A    between atoms: S_9  and  C_12
REMARK    5  A    between atoms: C_15  and  N_18
REMARK    6  A    between atoms: C_19  and  C_21
REMARK                            x       y       z     vdW  Elec       q    Type
REMARK                         _______ _______ _______ _____ _____    ______ ____
ROOT
ATOM      1  C   UNL     1       1.236   2.461  -0.089  0.00  0.00    +0.109 A 
ATOM      2  C   UNL     1       1.903   2.773   1.082  0.00  0.00    +0.030 A 
ATOM      3  C   UNL     1       3.110   3.443   1.033  0.00  0.00    +0.025 A 
ATOM      4  C   UNL     1       3.649   3.812  -0.193  0.00  0.00    +0.034 A 
ATOM      5  C   UNL     1       2.974   3.501  -1.366  0.00  0.00    +0.025 A 
ATOM      6  C   UNL     1       1.770   2.827  -1.311  0.00  0.00    +0.030 A 
ENDROOT
BRANCH   4   7
ATOM      7  N   UNL     1       4.868   4.494  -0.245  0.00  0.00    -0.280 N 
ATOM      8  C   UNL     1       5.088   5.409  -1.210  0.00  0.00    +0.269 C 
ATOM      9  O   UNL     1       4.194   5.709  -1.978  0.00  0.00    -0.268 OA
ATOM     10  H   UNL     1       5.556   4.309   0.413  0.00  0.00    +0.155 HD
BRANCH   8  11
ATOM     11  C   UNL     1       6.415   6.046  -1.336  0.00  0.00    +0.151 A 
ATOM     12  C   UNL     1       6.789   7.004  -2.280  0.00  0.00    +0.010 A 
ATOM     13  C   UNL     1       8.103   7.306  -2.002  0.00  0.00    +0.070 A 
ATOM     14  N   UNL     1       8.472   6.542  -0.955  0.00  0.00    -0.276 N 
ATOM     15  H   UNL     1       9.381   6.535  -0.539  0.00  0.00    +0.189 HD
ATOM     16  N   UNL     1       7.472   5.821  -0.571  0.00  0.00    -0.168 NA
ATOM     17  C   UNL     1       8.823   8.315  -2.803  0.00  0.00    +0.003 A 
ATOM     18  C   UNL     1      10.206   8.427  -2.773  0.00  0.00    +0.010 A 
ATOM     19  C   UNL     1      10.836   9.333  -3.605  0.00  0.00    +0.001 A 
ATOM     20  C   UNL     1      10.085  10.121  -4.459  0.00  0.00    +0.000 A 
ATOM     21  C   UNL     1       8.706  10.024  -4.478  0.00  0.00    +0.004 A 
ATOM     22  C   UNL     1       8.059   9.133  -3.643  0.00  0.00    -0.038 A 
ATOM     23  C   UNL     1       6.557   9.059  -3.643  0.00  0.00    +0.040 C 
ATOM     24  C   UNL     1       6.038   7.640  -3.413  0.00  0.00    +0.044 C 
ENDBRANCH   8  11
ENDBRANCH   4   7
BRANCH   1  25
ATOM     25  S   UNL     1      -0.300   1.601  -0.023  0.00  0.00    +0.072 S 
ATOM     26  O   UNL     1      -0.947   1.829  -1.268  0.00  0.00    -0.150 OA
ATOM     27  O   UNL     1      -0.901   1.937   1.220  0.00  0.00    -0.150 OA
BRANCH  25  28
ATOM     28  N   UNL     1       0.047  -0.017   0.041  0.00  0.00    -0.216 N 
ATOM     29  H   UNL     1      -0.209  -0.597  -0.693  0.00  0.00    +0.174 HD
BRANCH  28  34
ATOM     30  C   UNL     1       2.728  -2.167   4.552  0.00  0.00    +0.044 C 
ATOM     31  C   UNL     1       2.015  -1.596   3.353  0.00  0.00    -0.050 A 
ATOM     32  C   UNL     1       0.682  -1.242   3.447  0.00  0.00    +0.005 A 
ATOM     33  C   UNL     1       0.026  -0.718   2.350  0.00  0.00    +0.025 A 
ATOM     34  C   UNL     1       0.707  -0.546   1.152  0.00  0.00    +0.048 A 
ATOM     35  C   UNL     1       2.045  -0.907   1.060  0.00  0.00    +0.025 A 
ATOM     36  C   UNL     1       2.697  -1.426   2.162  0.00  0.00    +0.005 A 
ENDBRANCH  28  34
ENDBRANCH  25  28
ENDBRANCH   1  25
TORSDOF 5
