REMARK  Name = ZINC66452711
REMARK  7 active torsions:
REMARK  status: ('A' for Active; 'I' for Inactive)
REMARK    1  A    between atoms: N_9  and  C_11
REMARK    2  A    between atoms: C_11  and  C_12
REMARK    3  A    between atoms: C_12  and  C_14
REMARK    4  A    between atoms: C_12  and  O_30
REMARK    5  A    between atoms: C_14  and  N_15
REMARK    6  A    between atoms: C_20  and  O_22
REMARK    7  A    between atoms: O_22  and  C_23
REMARK                            x       y       z     vdW  Elec       q    Type
REMARK                         _______ _______ _______ _____ _____    ______ ____
ROOT
ATOM      1  C   UNL     1       7.362  -2.501   0.593  0.00  0.00    +0.133 C 
ENDROOT
BRANCH   1   2
ATOM      2  N   UNL     1       8.355  -1.984   1.538  0.00  0.00    -0.311 N 
ATOM      3  C   UNL     1       9.650  -2.473   1.517  0.00  0.00    +0.218 A 
ATOM      4  N   UNL     1       9.975  -3.404   0.632  0.00  0.00    -0.223 NA
ATOM      5  C   UNL     1      11.204  -3.895   0.583  0.00  0.00    +0.119 A 
ATOM      6  C   UNL     1      12.156  -3.425   1.468  0.00  0.00    +0.087 A 
ATOM      7  C   UNL     1      11.784  -2.445   2.387  0.00  0.00    +0.225 A 
ATOM      8  N   UNL     1      10.535  -1.993   2.378  0.00  0.00    -0.179 NA
ATOM      9  H   UNL     1       8.106  -1.299   2.177  0.00  0.00    +0.149 HD
BRANCH   7  10
ATOM     10  O   UNL     1      12.685  -1.956   3.273  0.00  0.00    -0.438 OA
BRANCH  10  11
ATOM     11  C   UNL     1      12.242  -1.085   4.218  0.00  0.00    +0.131 A 
ATOM     12  C   UNL     1      11.392  -1.524   5.222  0.00  0.00    +0.049 A 
ATOM     13  C   UNL     1      10.944  -0.638   6.183  0.00  0.00    +0.042 A 
ATOM     14  C   UNL     1      11.342   0.688   6.143  0.00  0.00    +0.124 A 
ATOM     15  C   UNL     1      12.191   1.127   5.141  0.00  0.00    +0.042 A 
ATOM     16  C   UNL     1      12.646   0.242   4.183  0.00  0.00    +0.049 A 
ATOM     17  F   UNL     1      10.902   1.553   7.082  0.00  0.00    -0.205 F 
ENDBRANCH  10  11
ENDBRANCH   7  10
ENDBRANCH   1   2
BRANCH   1  18
ATOM     18  C   UNL     1       6.023  -1.799   0.826  0.00  0.00    +0.115 C 
BRANCH  18  19
ATOM     19  O   UNL     1       6.152  -0.410   0.515  0.00  0.00    -0.392 OA
ATOM     20  H   UNL     1       6.412  -0.234  -0.400  0.00  0.00    +0.210 HD
ENDBRANCH  18  19
BRANCH  18  21
ATOM     21  C   UNL     1       4.955  -2.425  -0.073  0.00  0.00    -0.045 C 
BRANCH  21  30
ATOM     22  C   UNL     1      -1.226  -0.709   0.003  0.00  0.00    +0.000 A 
ATOM     23  C   UNL     1      -0.920  -1.232  -1.240  0.00  0.00    +0.000 A 
ATOM     24  C   UNL     1       0.345  -1.726  -1.486  0.00  0.00    +0.002 A 
ATOM     25  C   UNL     1       1.313  -1.700  -0.493  0.00  0.00    -0.061 A 
ATOM     26  C   UNL     1       1.008  -1.175   0.745  0.00  0.00    -0.048 A 
ATOM     27  C   UNL     1      -0.263  -0.681   0.992  0.00  0.00    +0.004 A 
ATOM     28  C   UNL     1       2.033  -1.120   1.849  0.00  0.00    +0.017 C 
ATOM     29  C   UNL     1       3.198  -2.054   1.521  0.00  0.00    -0.074 C 
ATOM     30  N   UNL     1       3.667  -1.758   0.158  0.00  0.00    +0.384 N 
ATOM     31  C   UNL     1       2.679  -2.253  -0.804  0.00  0.00    -0.043 C 
ATOM     32  H   UNL     1       3.776  -0.762   0.048  0.00  0.00    -0.081 HD
ENDBRANCH  21  30
ENDBRANCH  18  21
ENDBRANCH   1  18
TORSDOF 7
