REMARK  Name = ZINC10338913
REMARK  5 active torsions:
REMARK  status: ('A' for Active; 'I' for Inactive)
REMARK    1  A    between atoms: C_1  and  C_2
REMARK    2  A    between atoms: C_3  and  C_24
REMARK    3  A    between atoms: C_7  and  C_13
REMARK    4  A    between atoms: C_13  and  S_14
REMARK    5  A    between atoms: S_14  and  C_15
REMARK                            x       y       z     vdW  Elec       q    Type
REMARK                         _______ _______ _______ _____ _____    ______ ____
ROOT
ATOM      1  C   UNL     1       5.910  10.013  -2.268  0.00  0.00    +0.068 C 
ATOM      2  C   UNL     1       5.534   8.737  -1.560  0.00  0.00    +0.070 A 
ATOM      3  C   UNL     1       4.852   7.649  -2.135  0.00  0.00    +0.047 A 
ATOM      4  C   UNL     1       4.708   6.687  -1.151  0.00  0.00    +0.146 A 
ATOM      5  N   UNL     1       4.127   5.437  -1.149  0.00  0.00    -0.342 N 
ATOM      6  H   UNL     1       3.718   5.092  -1.958  0.00  0.00    +0.167 HD
ATOM      7  C   UNL     1       4.127   4.684  -0.013  0.00  0.00    +0.033 A 
ATOM      8  C   UNL     1       4.693   5.167   1.116  0.00  0.00    +0.094 A 
ATOM      9  C   UNL     1       5.292   6.443   1.110  0.00  0.00    +0.275 A 
ATOM     10  O   UNL     1       5.808   6.880   2.123  0.00  0.00    -0.266 OA
ATOM     11  N   UNL     1       5.286   7.181  -0.018  0.00  0.00    -0.179 N 
ATOM     12  N   UNL     1       5.788   8.454  -0.310  0.00  0.00    -0.166 NA
ENDROOT
BRANCH   3  13
ATOM     13  C   UNL     1       4.375   7.552  -3.536  0.00  0.00    -0.013 A 
ATOM     14  C   UNL     1       4.923   6.602  -4.397  0.00  0.00    +0.010 A 
ATOM     15  C   UNL     1       4.472   6.513  -5.698  0.00  0.00    +0.020 A 
ATOM     16  C   UNL     1       3.486   7.371  -6.152  0.00  0.00    +0.041 A 
ATOM     17  C   UNL     1       2.942   8.320  -5.303  0.00  0.00    +0.020 A 
ATOM     18  C   UNL     1       3.382   8.414  -3.999  0.00  0.00    +0.010 A 
ATOM     19 CL   UNL     1       2.928   7.257  -7.792  0.00  0.00    -0.084 Cl
ENDBRANCH   3  13
BRANCH   7  20
ATOM     20  C   UNL     1       3.490   3.318  -0.014  0.00  0.00    +0.132 C 
BRANCH  20  21
ATOM     21  S   UNL     1       1.689   3.491   0.004  0.00  0.00    -0.061 S 
BRANCH  21  22
ATOM     22  C   UNL     1       1.218   1.793   0.000  0.00  0.00    +0.258 A 
ATOM     23  N   UNL     1      -0.016   1.357   0.009  0.00  0.00    -0.203 NA
ATOM     24  C   UNL     1       0.002  -0.004   0.002  0.00  0.00    +0.110 A 
ATOM     25  C   UNL     1      -0.994  -0.981   0.006  0.00  0.00    +0.031 A 
ATOM     26  C   UNL     1      -0.645  -2.314  -0.005  0.00  0.00    +0.002 A 
ATOM     27  C   UNL     1       0.690  -2.689  -0.020  0.00  0.00    +0.004 A 
ATOM     28  C   UNL     1       1.685  -1.732  -0.023  0.00  0.00    +0.048 A 
ATOM     29  C   UNL     1       1.351  -0.388  -0.013  0.00  0.00    +0.156 A 
ATOM     30  O   UNL     1       2.074   0.756  -0.014  0.00  0.00    -0.431 OA
ENDBRANCH  21  22
ENDBRANCH  20  21
ENDBRANCH   7  20
TORSDOF 4
