REMARK  Name = ZINC54550879
REMARK  9 active torsions:
REMARK  status: ('A' for Active; 'I' for Inactive)
REMARK    1  A    between atoms: C_1  and  C_2
REMARK    2  A    between atoms: C_5  and  S_8
REMARK    3  A    between atoms: S_8  and  N_11
REMARK    4  A    between atoms: N_11  and  N_12
REMARK    5  A    between atoms: C_14  and  N_33
REMARK    6  A    between atoms: C_15  and  N_19
REMARK    7  A    between atoms: N_22  and  C_25
REMARK    8  A    between atoms: C_29  and  C_32
REMARK    9  A    between atoms: C_30  and  C_31
REMARK                            x       y       z     vdW  Elec       q    Type
REMARK                         _______ _______ _______ _____ _____    ______ ____
ROOT
ATOM      1  N   UNL     1       4.727  -6.559  -0.212  0.00  0.00    -0.244 N 
ATOM      2  C   UNL     1       4.308  -6.549   1.113  0.00  0.00    +0.159 A 
ATOM      3  C   UNL     1       5.209  -6.260   2.140  0.00  0.00    +0.107 A 
ATOM      4  C   UNL     1       4.735  -6.263   3.453  0.00  0.00    +0.147 A 
ATOM      5  N   UNL     1       3.452  -6.539   3.675  0.00  0.00    -0.219 NA
ATOM      6  C   UNL     1       2.635  -6.807   2.677  0.00  0.00    +0.225 A 
ATOM      7  N   UNL     1       3.040  -6.810   1.423  0.00  0.00    -0.218 NA
ATOM      8  H   UNL     1       5.653  -6.368  -0.429  0.00  0.00    +0.169 HD
ENDROOT
BRANCH   4   9
ATOM      9  N   UNL     1       5.590  -5.981   4.512  0.00  0.00    -0.311 N 
ATOM     10  C   UNL     1       5.706  -4.614   5.037  0.00  0.00    +0.125 C 
ATOM     11  C   UNL     1       5.414  -4.640   6.542  0.00  0.00    +0.124 C 
ATOM     12  N   UNL     1       6.218  -5.705   7.158  0.00  0.00    -0.327 N 
ATOM     13  C   UNL     1       6.102  -7.073   6.633  0.00  0.00    +0.124 C 
ATOM     14  C   UNL     1       6.389  -7.048   5.131  0.00  0.00    +0.125 C 
BRANCH  12  15
ATOM     15  C   UNL     1       7.077  -5.422   8.222  0.00  0.00    +0.033 A 
ATOM     16  C   UNL     1       6.617  -5.509   9.530  0.00  0.00    +0.023 A 
ATOM     17  C   UNL     1       7.469  -5.230  10.580  0.00  0.00    +0.002 A 
ATOM     18  C   UNL     1       8.779  -4.863  10.331  0.00  0.00    +0.004 A 
ATOM     19  C   UNL     1       9.240  -4.775   9.030  0.00  0.00    -0.046 A 
ATOM     20  C   UNL     1       8.395  -5.059   7.976  0.00  0.00    -0.027 A 
ATOM     21  C   UNL     1       8.900  -4.970   6.559  0.00  0.00    +0.046 C 
ATOM     22  C   UNL     1      10.668  -4.374   8.764  0.00  0.00    +0.044 C 
ENDBRANCH  12  15
ENDBRANCH   4   9
BRANCH   3  23
ATOM     23  N   UNL     1       6.555  -5.974   1.859  0.00  0.00    -0.353 N 
ATOM     24  H   UNL     1       6.891  -6.064   0.954  0.00  0.00    +0.143 HD
ATOM     25  H   UNL     1       7.149  -5.687   2.571  0.00  0.00    +0.143 HD
ENDBRANCH   3  23
BRANCH   1  26
ATOM     26  N   UNL     1       3.813  -6.846  -1.234  0.00  0.00    -0.109 NA
ATOM     27  H   UNL     1       3.297  -7.667  -1.207  0.00  0.00    +0.172 HD
BRANCH  26  28
ATOM     28  S   UNL     1       3.612  -5.782  -2.487  0.00  0.00    +0.074 S 
ATOM     29  O   UNL     1       3.320  -4.519  -1.905  0.00  0.00    -0.152 OA
ATOM     30  O   UNL     1       2.742  -6.411  -3.418  0.00  0.00    -0.152 OA
BRANCH  28  35
ATOM     31  C   UNL     1       8.957  -5.222  -5.230  0.00  0.00    +0.044 C 
ATOM     32  C   UNL     1       7.622  -5.362  -4.545  0.00  0.00    -0.050 A 
ATOM     33  C   UNL     1       6.732  -6.336  -4.957  0.00  0.00    +0.005 A 
ATOM     34  C   UNL     1       5.507  -6.465  -4.329  0.00  0.00    +0.029 A 
ATOM     35  C   UNL     1       5.173  -5.619  -3.287  0.00  0.00    +0.107 A 
ATOM     36  C   UNL     1       6.063  -4.646  -2.874  0.00  0.00    +0.029 A 
ATOM     37  C   UNL     1       7.289  -4.520  -3.500  0.00  0.00    +0.005 A 
ENDBRANCH  28  35
ENDBRANCH  26  28
ENDBRANCH   1  26
TORSDOF 6
