REMARK  Name = ZINC26962537
REMARK  3 active torsions:
REMARK  status: ('A' for Active; 'I' for Inactive)
REMARK    1  A    between atoms: C_6  and  C_7
REMARK    2  A    between atoms: N_9  and  N_10
REMARK    3  A    between atoms: C_11  and  C_13
REMARK                            x       y       z     vdW  Elec       q    Type
REMARK                         _______ _______ _______ _____ _____    ______ ____
ROOT
ATOM      1  C   UNL     1       1.243  -2.036  -0.021  0.00  0.00    +0.260 C 
ATOM      2  O   UNL     1       0.199  -2.658  -0.014  0.00  0.00    -0.269 OA
ATOM      3  N   UNL     1       1.225  -0.688  -0.013  0.00  0.00    -0.230 N 
ATOM      4  H   UNL     1       2.170  -0.125  -0.019  0.00  0.00    +0.173 HD
ENDROOT
BRANCH   1  10
ATOM      5  C   UNL     1       3.735  -2.038  -0.050  0.00  0.00    +0.015 A 
ATOM      6  C   UNL     1       4.933  -2.690  -0.060  0.00  0.00    +0.027 A 
ATOM      7  C   UNL     1       4.975  -4.082  -0.067  0.00  0.00    +0.047 A 
ATOM      8  C   UNL     1       3.771  -4.817  -0.060  0.00  0.00    +0.004 A 
ATOM      9  C   UNL     1       2.550  -4.148  -0.045  0.00  0.00    +0.023 A 
ATOM     10  C   UNL     1       2.531  -2.756  -0.037  0.00  0.00    +0.039 A 
ATOM     11  C   UNL     1       4.162  -6.224  -0.072  0.00  0.00    -0.019 A 
ATOM     12  C   UNL     1       5.508  -6.265  -0.082  0.00  0.00    +0.020 A 
ATOM     13  N   UNL     1       6.006  -4.992  -0.080  0.00  0.00    -0.358 N 
ATOM     14  H   UNL     1       7.049  -4.642  -0.086  0.00  0.00    +0.166 HD
ATOM     15  C   UNL     1       6.306  -7.549  -0.095  0.00  0.00    +0.053 C 
ATOM     16  C   UNL     1       5.386  -8.699   0.327  0.00  0.00    +0.006 C 
ATOM     17  C   UNL     1       4.097  -8.652  -0.500  0.00  0.00    +0.005 C 
ATOM     18  C   UNL     1       3.266  -7.435  -0.075  0.00  0.00    +0.037 C 
ENDBRANCH   1  10
BRANCH   3  19
ATOM     19  N   UNL     1       0.002  -0.004   0.002  0.00  0.00    -0.230 N 
ATOM     20  C   UNL     1      -0.016   1.344   0.009  0.00  0.00    +0.260 C 
ATOM     21  O   UNL     1       1.028   1.966   0.003  0.00  0.00    -0.269 OA
ATOM     22  H   UNL     1      -0.943  -0.567   0.008  0.00  0.00    +0.173 HD
BRANCH  20  23
ATOM     23  C   UNL     1      -1.304   2.064   0.019  0.00  0.00    +0.042 A 
ATOM     24  C   UNL     1      -2.506   1.351   0.015  0.00  0.00    +0.017 A 
ATOM     25  C   UNL     1      -3.707   2.025   0.031  0.00  0.00    +0.050 A 
ATOM     26  C   UNL     1      -3.729   3.413   0.039  0.00  0.00    +0.166 A 
ATOM     27  C   UNL     1      -2.533   4.132   0.037  0.00  0.00    +0.167 A 
ATOM     28  C   UNL     1      -1.325   3.461   0.027  0.00  0.00    +0.062 A 
ATOM     29  O   UNL     1      -2.826   5.465   0.044  0.00  0.00    -0.453 OA
ATOM     30  C   UNL     1      -4.204   5.558  -0.361  0.00  0.00    +0.466 C 
ATOM     31  O   UNL     1      -4.767   4.298   0.048  0.00  0.00    -0.453 OA
ENDBRANCH  20  23
ENDBRANCH   3  19
TORSDOF 3
