REMARK  Name = ZINC59170384
REMARK  10 active torsions:
REMARK  status: ('A' for Active; 'I' for Inactive)
REMARK    1  A    between atoms: C_1  and  C_2
REMARK    2  A    between atoms: C_2  and  N_3
REMARK    3  A    between atoms: N_3  and  C_4
REMARK    4  A    between atoms: N_3  and  C_6
REMARK    5  A    between atoms: C_4  and  C_5
REMARK    6  A    between atoms: C_11  and  C_27
REMARK    7  A    between atoms: N_13  and  C_14
REMARK    8  A    between atoms: C_17  and  S_20
REMARK    9  A    between atoms: S_20  and  N_23
REMARK   10  A    between atoms: N_29  and  C_30
REMARK                            x       y       z     vdW  Elec       q    Type
REMARK                         _______ _______ _______ _____ _____    ______ ____
ROOT
ATOM      1  C   UNL     1       0.331  -0.807  -2.397  0.00  0.00    +0.033 A 
ATOM      2  C   UNL     1      -0.668   0.138  -2.641  0.00  0.00    +0.024 A 
ATOM      3  C   UNL     1      -1.238   0.237  -3.875  0.00  0.00    +0.013 A 
ATOM      4  C   UNL     1      -0.827  -0.620  -4.907  0.00  0.00    +0.018 A 
ATOM      5  C   UNL     1      -1.437  -0.549  -6.184  0.00  0.00    +0.030 A 
ATOM      6  C   UNL     1      -1.142  -1.543  -7.109  0.00  0.00    +0.098 A 
ATOM      7  C   UNL     1      -0.234  -2.622  -6.677  0.00  0.00    +0.212 A 
ATOM      8  N   UNL     1      -0.275  -3.812  -7.236  0.00  0.00    -0.325 N 
ATOM      9  O   UNL     1       0.647  -2.344  -5.681  0.00  0.00    -0.438 OA
ATOM     10  C   UNL     1       0.203  -1.554  -4.673  0.00  0.00    +0.139 A 
ATOM     11  C   UNL     1       0.770  -1.645  -3.414  0.00  0.00    +0.070 A 
ATOM     12  H   UNL     1      -0.974  -4.024  -7.875  0.00  0.00    +0.169 HD
ENDROOT
BRANCH   8  13
ATOM     13  C   UNL     1       0.666  -4.751  -6.917  0.00  0.00    +0.042 A 
ATOM     14  C   UNL     1       2.016  -4.397  -6.849  0.00  0.00    +0.027 A 
ATOM     15  C   UNL     1       2.960  -5.349  -6.527  0.00  0.00    +0.030 A 
ATOM     16  C   UNL     1       2.574  -6.653  -6.272  0.00  0.00    +0.105 A 
ATOM     17  C   UNL     1       1.239  -7.011  -6.337  0.00  0.00    +0.030 A 
ATOM     18  C   UNL     1       0.283  -6.068  -6.652  0.00  0.00    +0.027 A 
BRANCH  16  19
ATOM     19  S   UNL     1       3.787  -7.863  -5.862  0.00  0.00    +0.056 S 
ATOM     20  O   UNL     1       3.233  -9.126  -6.203  0.00  0.00    -0.153 OA
ATOM     21  O   UNL     1       5.019  -7.401  -6.400  0.00  0.00    -0.153 OA
BRANCH  19  22
ATOM     22  N   UNL     1       3.956  -7.849  -4.215  0.00  0.00    -0.204 NA
ATOM     23  H   UNL     1       4.205  -8.661  -3.746  0.00  0.00    +0.144 HD
ATOM     24  H   UNL     1       3.805  -7.029  -3.719  0.00  0.00    +0.144 HD
ENDBRANCH  19  22
ENDBRANCH  16  19
ENDBRANCH   8  13
BRANCH   6  25
ATOM     25  C   UNL     1      -1.714  -1.520  -8.464  0.00  0.00    +0.253 C 
ATOM     26  O   UNL     1      -2.568  -0.703  -8.751  0.00  0.00    -0.270 OA
ATOM     27  N   UNL     1      -1.290  -2.405  -9.388  0.00  0.00    -0.281 N 
ATOM     28  H   UNL     1      -0.662  -3.101  -9.141  0.00  0.00    +0.155 HD
BRANCH  27  29
ATOM     29  C   UNL     1      -1.756  -2.318 -10.704  0.00  0.00    +0.034 A 
ATOM     30  C   UNL     1      -3.043  -1.861 -10.958  0.00  0.00    +0.023 A 
ATOM     31  C   UNL     1      -3.501  -1.777 -12.258  0.00  0.00    +0.002 A 
ATOM     32  C   UNL     1      -2.679  -2.147 -13.307  0.00  0.00    +0.000 A 
ATOM     33  C   UNL     1      -1.397  -2.602 -13.058  0.00  0.00    +0.002 A 
ATOM     34  C   UNL     1      -0.932  -2.683 -11.760  0.00  0.00    +0.023 A 
ENDBRANCH  27  29
ENDBRANCH   6  25
BRANCH   1  35
ATOM     35  N   UNL     1       0.893  -0.906  -1.130  0.00  0.00    -0.330 N 
BRANCH  35  37
ATOM     36  C   UNL     1       1.274   1.254  -0.047  0.00  0.00    +0.024 C 
ATOM     37  C   UNL     1       0.433  -0.025  -0.053  0.00  0.00    +0.102 C 
ENDBRANCH  35  37
BRANCH  35  38
ATOM     38  C   UNL     1       1.946  -1.891  -0.871  0.00  0.00    +0.102 C 
ATOM     39  C   UNL     1       1.312  -3.206  -0.412  0.00  0.00    +0.024 C 
ENDBRANCH  35  38
ENDBRANCH   1  35
TORSDOF 8
