REMARK  Name = ZINC01111813
REMARK  4 active torsions:
REMARK  status: ('A' for Active; 'I' for Inactive)
REMARK    1  A    between atoms: C_1  and  C_2
REMARK    2  A    between atoms: C_4  and  C_24
REMARK    3  A    between atoms: C_12  and  C_14
REMARK    4  A    between atoms: C_15  and  C_16
REMARK                            x       y       z     vdW  Elec       q    Type
REMARK                         _______ _______ _______ _____ _____    ______ ____
ROOT
ATOM      1  C   UNL     1      -0.013   1.086   0.008  0.00  0.00    +0.061 C 
ATOM      2  C   UNL     1      -0.742   1.585  -1.213  0.00  0.00    +0.022 C 
ATOM      3  C   UNL     1      -0.877   3.068  -1.413  0.00  0.00    +0.082 C 
ATOM      4  C   UNL     1      -0.878   3.430  -2.902  0.00  0.00    +0.146 C 
ATOM      5  N   UNL     1      -1.704   2.449  -3.606  0.00  0.00    -0.220 N 
ATOM      6  C   UNL     1      -1.838   1.164  -3.178  0.00  0.00    +0.251 A 
ATOM      7  N   UNL     1      -2.621   0.542  -4.022  0.00  0.00    -0.176 NA
ATOM      8  C   UNL     1      -3.008   1.389  -4.983  0.00  0.00    +0.243 A 
ATOM      9  N   UNL     1      -2.469   2.571  -4.761  0.00  0.00    -0.131 NA
ATOM     10  N   UNL     1      -3.851   1.072  -6.051  0.00  0.00    -0.250 N 
ATOM     11  C   UNL     1      -4.344  -0.177  -6.173  0.00  0.00    +0.243 C 
ATOM     12  O   UNL     1      -4.056  -1.028  -5.351  0.00  0.00    -0.270 OA
ATOM     13  N   UNL     1      -1.218   0.719  -2.046  0.00  0.00    -0.220 NA
ATOM     14  H   UNL     1      -4.081   1.750  -6.706  0.00  0.00    +0.158 HD
ENDROOT
BRANCH   4  15
ATOM     15  C   UNL     1       0.531   3.388  -3.437  0.00  0.00    -0.023 A 
ATOM     16  C   UNL     1       1.254   2.211  -3.389  0.00  0.00    +0.006 A 
ATOM     17  C   UNL     1       2.546   2.173  -3.879  0.00  0.00    +0.000 A 
ATOM     18  C   UNL     1       3.114   3.312  -4.418  0.00  0.00    +0.000 A 
ATOM     19  C   UNL     1       2.391   4.489  -4.467  0.00  0.00    +0.000 A 
ATOM     20  C   UNL     1       1.098   4.526  -3.981  0.00  0.00    +0.006 A 
ENDBRANCH   4  15
BRANCH  11  21
ATOM     21  C   UNL     1      -5.227  -0.509  -7.291  0.00  0.00    +0.068 C 
ATOM     22  C   UNL     1      -5.721  -1.759  -7.412  0.00  0.00    +0.013 C 
BRANCH  22  23
ATOM     23  C   UNL     1      -6.608  -2.093  -8.537  0.00  0.00    -0.025 A 
ATOM     24  C   UNL     1      -6.938  -1.119  -9.486  0.00  0.00    +0.009 A 
ATOM     25  C   UNL     1      -7.769  -1.440 -10.537  0.00  0.00    +0.020 A 
ATOM     26  C   UNL     1      -8.279  -2.723 -10.656  0.00  0.00    +0.041 A 
ATOM     27  C   UNL     1      -7.957  -3.692  -9.720  0.00  0.00    +0.020 A 
ATOM     28  C   UNL     1      -7.122  -3.388  -8.666  0.00  0.00    +0.009 A 
ATOM     29 CL   UNL     1      -9.326  -3.117 -11.983  0.00  0.00    -0.084 Cl
ENDBRANCH  22  23
ENDBRANCH  11  21
TORSDOF 3
