REMARK  Name = ZINC65946826
REMARK  2 active torsions:
REMARK  status: ('A' for Active; 'I' for Inactive)
REMARK    1  A    between atoms: C_5  and  N_10
REMARK    2  A    between atoms: C_6  and  N_7
REMARK                            x       y       z     vdW  Elec       q    Type
REMARK                         _______ _______ _______ _____ _____    ______ ____
ROOT
ATOM      1  C   UNL     1      -0.016   1.361   0.009  0.00  0.00    +0.050 A 
ATOM      2  C   UNL     1       1.185   2.069   0.002  0.00  0.00    +0.067 A 
ATOM      3  C   UNL     1       2.419   1.377  -0.014  0.00  0.00    +0.080 A 
ATOM      4  C   UNL     1       2.419  -0.017  -0.021  0.00  0.00    +0.054 A 
ATOM      5  C   UNL     1       1.213  -0.699  -0.013  0.00  0.00    +0.063 A 
ATOM      6  C   UNL     1       0.002  -0.004   0.002  0.00  0.00    +0.148 A 
ATOM      7  N   UNL     1       3.574   2.089  -0.021  0.00  0.00    -0.237 NA
ATOM      8  C   UNL     1       3.572   3.387  -0.015  0.00  0.00    +0.199 A 
ATOM      9  N   UNL     1       2.435   4.132   0.000  0.00  0.00    -0.313 N 
ATOM     10  H   UNL     1       2.496   5.100   0.004  0.00  0.00    +0.170 HD
ATOM     11  C   UNL     1       1.220   3.537   0.009  0.00  0.00    +0.259 A 
ATOM     12  O   UNL     1       0.195   4.193   0.023  0.00  0.00    -0.267 OA
ENDROOT
BRANCH   5  13
ATOM     13  N   UNL     1       1.209  -2.091  -0.021  0.00  0.00    -0.325 N 
ATOM     14  C   UNL     1       1.201  -2.767  -1.287  0.00  0.00    +0.109 C 
ATOM     15  C   UNL     1       1.967  -4.054  -1.269  0.00  0.00    +0.007 C 
ATOM     16  C   UNL     1       3.320  -3.928  -0.590  0.00  0.00    +0.008 C 
ATOM     17  C   UNL     1       3.289  -4.148   0.909  0.00  0.00    -0.009 C 
ATOM     18  C   UNL     1       2.541  -5.438   1.259  0.00  0.00    +0.007 C 
ATOM     19  C   UNL     1       1.118  -5.298   0.714  0.00  0.00    -0.009 C 
ATOM     20  C   UNL     1       1.191  -5.258  -0.813  0.00  0.00    +0.008 C 
ATOM     21  C   UNL     1       0.428  -4.072   1.263  0.00  0.00    +0.026 C 
ATOM     22  C   UNL     1       1.220  -2.789   1.252  0.00  0.00    +0.074 C 
ATOM     23  C   UNL     1       2.667  -2.994   1.683  0.00  0.00    +0.026 C 
ENDBRANCH   5  13
BRANCH   6  24
ATOM     24  N   UNL     1      -1.274  -0.755   0.011  0.00  0.00    +0.058 N 
ATOM     25  O   UNL     1      -2.326  -0.159   0.024  0.00  0.00    -0.126 OA
ATOM     26  O   UNL     1      -1.264  -1.964   0.004  0.00  0.00    -0.126 OA
ENDBRANCH   6  24
TORSDOF 2
