REMARK  Name = ZINC33932204
REMARK  17 active torsions:
REMARK  status: ('A' for Active; 'I' for Inactive)
REMARK    1  A    between atoms: C_1  and  C_2
REMARK    2  A    between atoms: C_2  and  C_3
REMARK    3  A    between atoms: C_3  and  C_5
REMARK    4  A    between atoms: C_3  and  O_6
REMARK    5  A    between atoms: O_6  and  C_7
REMARK    6  A    between atoms: C_7  and  C_9
REMARK    7  A    between atoms: C_10  and  C_42
REMARK    8  A    between atoms: C_14  and  C_16
REMARK    9  A    between atoms: C_19  and  O_25
REMARK   10  A    between atoms: C_20  and  O_22
REMARK   11  A    between atoms: O_22  and  C_23
REMARK   12  A    between atoms: C_23  and  C_24
REMARK   13  A    between atoms: C_29  and  C_32
REMARK   14  A    between atoms: C_35  and  O_40
REMARK   15  A    between atoms: C_36  and  O_38
REMARK   16  A    between atoms: O_38  and  C_39
REMARK   17  A    between atoms: O_40  and  C_41
REMARK                            x       y       z     vdW  Elec       q    Type
REMARK                         _______ _______ _______ _____ _____    ______ ____
ROOT
ATOM      1  C   UNL     1      -4.134   0.576  -2.266  0.00  0.00    +0.065 C 
ATOM      2  C   UNL     1      -5.476   0.502  -2.254  0.00  0.00    +0.016 C 
ATOM      3  N   UNL     1      -6.190   0.683  -3.406  0.00  0.00    -0.321 N 
ATOM      4  C   UNL     1      -5.588   0.549  -4.628  0.00  0.00    +0.016 C 
ATOM      5  C   UNL     1      -4.245   0.620  -4.743  0.00  0.00    +0.024 C 
ATOM      6  C   UNL     1      -3.381   0.870  -3.530  0.00  0.00    +0.092 C 
ATOM      7  C   UNL     1      -3.614   0.467  -5.990  0.00  0.00    +0.162 C 
ATOM      8  O   UNL     1      -2.403   0.544  -6.059  0.00  0.00    -0.292 OA
ATOM      9  C   UNL     1      -4.410   0.209  -7.240  0.00  0.00    +0.088 C 
ATOM     10  C   UNL     1      -5.703  -0.522  -6.866  0.00  0.00    +0.032 C 
ATOM     11  C   UNL     1      -6.460   0.323  -5.839  0.00  0.00    +0.059 C 
ATOM     12  C   UNL     1      -6.199   0.217  -0.963  0.00  0.00    +0.061 C 
ATOM     13  H   UNL     1      -7.132   0.910  -3.357  0.00  0.00    +0.152 HD
ENDROOT
BRANCH   6  14
ATOM     14  C   UNL     1      -2.941   2.312  -3.519  0.00  0.00    -0.032 A 
ATOM     15  C   UNL     1      -3.882   3.320  -3.436  0.00  0.00    +0.008 A 
ATOM     16  C   UNL     1      -3.483   4.644  -3.426  0.00  0.00    +0.049 A 
ATOM     17  C   UNL     1      -2.136   4.962  -3.498  0.00  0.00    +0.158 A 
ATOM     18  C   UNL     1      -1.188   3.946  -3.580  0.00  0.00    +0.162 A 
ATOM     19  C   UNL     1      -1.595   2.622  -3.586  0.00  0.00    +0.054 A 
BRANCH  17  20
ATOM     20  O   UNL     1      -1.742   6.263  -3.488  0.00  0.00    -0.503 OA
ATOM     21  H   UNL     1      -1.575   6.617  -2.603  0.00  0.00    +0.292 HD
ENDBRANCH  17  20
BRANCH  18  22
ATOM     22  O   UNL     1       0.135   4.253  -3.651  0.00  0.00    -0.489 OA
BRANCH  22  23
ATOM     23  C   UNL     1       1.051   3.160  -3.735  0.00  0.00    +0.226 C 
ATOM     24  C   UNL     1       2.481   3.698  -3.806  0.00  0.00    +0.048 C 
ENDBRANCH  22  23
ENDBRANCH  18  22
ENDBRANCH   6  14
BRANCH  10  25
ATOM     25  C   UNL     1      -6.552  -0.710  -8.097  0.00  0.00    -0.040 A 
ATOM     26  C   UNL     1      -6.983   0.391  -8.813  0.00  0.00    +0.008 A 
ATOM     27  C   UNL     1      -7.762   0.224  -9.943  0.00  0.00    +0.049 A 
ATOM     28  C   UNL     1      -8.112  -1.050 -10.360  0.00  0.00    +0.161 A 
ATOM     29  C   UNL     1      -7.679  -2.159  -9.639  0.00  0.00    +0.162 A 
ATOM     30  C   UNL     1      -6.894  -1.984  -8.511  0.00  0.00    +0.053 A 
BRANCH  29  31
ATOM     31  O   UNL     1      -8.021  -3.411 -10.045  0.00  0.00    -0.491 OA
ATOM     32  C   UNL     1      -7.540  -4.502  -9.257  0.00  0.00    +0.277 C 
ENDBRANCH  29  31
BRANCH  28  33
ATOM     33  O   UNL     1      -8.879  -1.216 -11.471  0.00  0.00    -0.491 OA
ATOM     34  C   UNL     1      -9.288  -0.033 -12.160  0.00  0.00    +0.277 C 
ENDBRANCH  28  33
ENDBRANCH  10  25
BRANCH   1  35
ATOM     35  C   UNL     1      -3.418   0.377  -1.062  0.00  0.00    +0.338 C 
ATOM     36  O   UNL     1      -2.816  -0.664  -0.877  0.00  0.00    -0.245 OA
BRANCH  35  37
ATOM     37  O   UNL     1      -3.403   1.342  -0.119  0.00  0.00    -0.458 OA
BRANCH  37  38
ATOM     38  C   UNL     1      -2.660   1.074   1.072  0.00  0.00    +0.173 C 
ATOM     39  C   UNL     1      -1.218   1.552   0.891  0.00  0.00    +0.052 C 
BRANCH  38  41
ATOM     40  C   UNL     1      -4.696   1.248   2.508  0.00  0.00    +0.007 C 
ATOM     41  C   UNL     1      -3.299   1.813   2.249  0.00  0.00    +0.041 C 
ENDBRANCH  38  41
ENDBRANCH  37  38
ENDBRANCH  35  37
ENDBRANCH   1  35
TORSDOF 11
