REMARK  Name = ZINC20462900
REMARK  18 active torsions:
REMARK  status: ('A' for Active; 'I' for Inactive)
REMARK    1  A    between atoms: C_1  and  C_2
REMARK    2  A    between atoms: C_2  and  C_3
REMARK    3  A    between atoms: C_2  and  C_4
REMARK    4  A    between atoms: C_2  and  C_5
REMARK    5  A    between atoms: C_5  and  C_6
REMARK    6  A    between atoms: C_11  and  C_32
REMARK    7  A    between atoms: C_13  and  C_16
REMARK    8  A    between atoms: C_16  and  C_17
REMARK    9  A    between atoms: C_17  and  N_18
REMARK   10  A    between atoms: N_21  and  C_24
REMARK   11  A    between atoms: C_29  and  O_30
REMARK   12  A    between atoms: O_30  and  C_31
REMARK   13  A    between atoms: C_32  and  C_33
REMARK   14  A    between atoms: C_33  and  O_35
REMARK   15  A    between atoms: O_35  and  C_36
REMARK   16  A    between atoms: C_36  and  C_37
REMARK   17  A    between atoms: C_36  and  C_38
REMARK   18  A    between atoms: C_36  and  C_39
REMARK                            x       y       z     vdW  Elec       q    Type
REMARK                         _______ _______ _______ _____ _____    ______ ____
ROOT
ATOM      1  C   UNL     1      -3.785   8.963   0.324  0.00  0.00    +0.216 C 
ATOM      2  O   UNL     1      -3.501   8.679  -0.820  0.00  0.00    -0.276 OA
ATOM      3  N   UNL     1      -2.908   9.646   1.086  0.00  0.00    -0.301 N 
ATOM      4  C   UNL     1      -3.237   9.998   2.474  0.00  0.00    +0.108 C 
ATOM      5  C   UNL     1      -2.116   9.495   3.389  0.00  0.00    +0.023 C 
ATOM      6  C   UNL     1      -0.776  10.051   2.901  0.00  0.00    +0.006 C 
ATOM      7  C   UNL     1      -0.501   9.551   1.480  0.00  0.00    +0.008 C 
ATOM      8  C   UNL     1      -1.604  10.054   0.543  0.00  0.00    +0.111 C 
ENDROOT
BRANCH   1   9
ATOM      9  C   UNL     1      -5.118   8.552   0.894  0.00  0.00    +0.102 C 
BRANCH   9  11
ATOM     10  C   UNL     1      -5.140   6.550  -0.600  0.00  0.00    +0.011 C 
ATOM     11  C   UNL     1      -5.917   7.796  -0.169  0.00  0.00    -0.029 C 
ATOM     12  C   UNL     1      -7.270   7.379   0.410  0.00  0.00    +0.011 C 
ATOM     13  C   UNL     1      -6.138   8.703  -1.381  0.00  0.00    +0.011 C 
ENDBRANCH   9  11
ENDBRANCH   1   9
BRANCH   7  14
ATOM     14  C   UNL     1      -0.484   8.021   1.473  0.00  0.00    -0.013 C 
BRANCH  14  15
ATOM     15  C   UNL     1      -0.088   7.522   0.081  0.00  0.00    -0.078 C 
BRANCH  15  16
ATOM     16  N   UNL     1      -0.071   6.054   0.073  0.00  0.00    +0.382 N 
ATOM     17  C   UNL     1       0.529   5.540  -1.166  0.00  0.00    -0.060 C 
ATOM     18  C   UNL     1       0.456   4.012  -1.170  0.00  0.00    +0.086 C 
ATOM     19  N   UNL     1       1.159   3.487   0.009  0.00  0.00    -0.331 N 
ATOM     20  C   UNL     1       0.559   4.000   1.248  0.00  0.00    +0.086 C 
ATOM     21  C   UNL     1       0.632   5.529   1.252  0.00  0.00    -0.060 C 
ATOM     22  H   UNL     1      -1.113   5.705   0.116  0.00  0.00    -0.082 HD
BRANCH  19  23
ATOM     23  C   UNL     1       1.175   2.087   0.002  0.00  0.00    +0.072 A 
ATOM     24  C   UNL     1      -0.017   1.378   0.010  0.00  0.00    +0.027 A 
ATOM     25  C   UNL     1       0.002  -0.004   0.002  0.00  0.00    +0.002 A 
ATOM     26  C   UNL     1       1.207  -0.682  -0.014  0.00  0.00    +0.004 A 
ATOM     27  C   UNL     1       2.399   0.018  -0.021  0.00  0.00    +0.047 A 
ATOM     28  C   UNL     1       2.389   1.403  -0.014  0.00  0.00    +0.141 A 
BRANCH  28  29
ATOM     29  O   UNL     1       3.561   2.094  -0.022  0.00  0.00    -0.493 OA
ATOM     30  C   UNL     1       4.766   1.326  -0.038  0.00  0.00    +0.277 C 
ENDBRANCH  28  29
ENDBRANCH  19  23
ENDBRANCH  15  16
ENDBRANCH  14  15
ENDBRANCH   7  14
BRANCH   6  31
ATOM     31  C   UNL     1       0.342   9.579   3.832  0.00  0.00    +0.124 C 
BRANCH  31  32
ATOM     32  C   UNL     1       0.138  10.173   5.202  0.00  0.00    +0.308 C 
ATOM     33  O   UNL     1      -0.805  10.899   5.412  0.00  0.00    -0.251 OA
BRANCH  32  34
ATOM     34  O   UNL     1       1.004   9.895   6.190  0.00  0.00    -0.459 OA
BRANCH  34  35
ATOM     35  C   UNL     1       0.745  10.501   7.483  0.00  0.00    +0.105 C 
ATOM     36  C   UNL     1      -0.623  10.046   7.996  0.00  0.00    +0.055 C 
ATOM     37  C   UNL     1       1.829  10.072   8.474  0.00  0.00    +0.055 C 
ATOM     38  C   UNL     1       0.756  12.025   7.344  0.00  0.00    +0.055 C 
ENDBRANCH  34  35
ENDBRANCH  32  34
ENDBRANCH  31  32
ENDBRANCH   6  31
TORSDOF 11
