REMARK  Name = ZINC59418035
REMARK  5 active torsions:
REMARK  status: ('A' for Active; 'I' for Inactive)
REMARK    1  A    between atoms: C_4  and  N_7
REMARK    2  A    between atoms: C_13  and  C_14
REMARK    3  A    between atoms: C_19  and  O_20
REMARK    4  A    between atoms: O_20  and  C_21
REMARK    5  A    between atoms: C_21  and  C_22
REMARK                            x       y       z     vdW  Elec       q    Type
REMARK                         _______ _______ _______ _____ _____    ______ ____
ROOT
ATOM      1  C   UNL     1       4.541  -5.517   3.876  0.00  0.00    +0.019 A 
ATOM      2  C   UNL     1       3.225  -5.159   4.191  0.00  0.00    +0.026 A 
ATOM      3  C   UNL     1       2.561  -5.811   5.208  0.00  0.00    +0.019 A 
ATOM      4  C   UNL     1       3.191  -6.818   5.922  0.00  0.00    +0.019 A 
ATOM      5  C   UNL     1       4.491  -7.181   5.622  0.00  0.00    +0.047 A 
ATOM      6  C   UNL     1       5.172  -6.542   4.599  0.00  0.00    +0.128 A 
ATOM      7 BR   UNL     1       0.783  -5.327   5.632  0.00  0.00    -0.050 Br
ENDROOT
BRANCH   1  14
ATOM      8  N   UNL     1       3.488  -3.229  -1.970  0.00  0.00    -0.226 NA
ATOM      9  C   UNL     1       3.713  -3.732  -0.777  0.00  0.00    +0.166 C 
ATOM     10  N   UNL     1       2.883  -4.521  -0.010  0.00  0.00    -0.260 N 
ATOM     11  C   UNL     1       3.270  -4.947   1.180  0.00  0.00    +0.256 C 
ATOM     12  O   UNL     1       2.550  -5.645   1.871  0.00  0.00    -0.269 OA
ATOM     13  C   UNL     1       4.613  -4.540   1.633  0.00  0.00    +0.078 C 
ATOM     14  C   UNL     1       5.255  -4.829   2.794  0.00  0.00    +0.032 C 
ATOM     15  S   UNL     1       5.170  -3.568   0.241  0.00  0.00    -0.049 S 
ATOM     16  H   UNL     1       2.007  -4.766  -0.347  0.00  0.00    +0.157 HD
BRANCH   8  20
ATOM     17  C   UNL     1      -0.113  -3.949  -3.876  0.00  0.00    +0.000 A 
ATOM     18  C   UNL     1       0.417  -2.671  -3.866  0.00  0.00    +0.002 A 
ATOM     19  C   UNL     1       1.617  -2.423  -3.233  0.00  0.00    +0.028 A 
ATOM     20  C   UNL     1       2.297  -3.467  -2.600  0.00  0.00    +0.067 A 
ATOM     21  C   UNL     1       1.756  -4.754  -2.614  0.00  0.00    +0.028 A 
ATOM     22  C   UNL     1       0.555  -4.987  -3.252  0.00  0.00    +0.002 A 
ENDBRANCH   8  20
ENDBRANCH   1  14
BRANCH   6  23
ATOM     23  O   UNL     1       6.447  -6.902   4.301  0.00  0.00    -0.487 OA
BRANCH  23  24
ATOM     24  C   UNL     1       7.023  -7.953   5.079  0.00  0.00    +0.264 C 
BRANCH  24  25
ATOM     25  C   UNL     1       8.431  -8.213   4.607  0.00  0.00    -0.010 A 
ATOM     26  C   UNL     1       8.665  -9.134   3.603  0.00  0.00    +0.010 A 
ATOM     27  C   UNL     1       9.955  -9.372   3.170  0.00  0.00    +0.039 A 
ATOM     28  C   UNL     1      11.014  -8.688   3.742  0.00  0.00    +0.123 A 
ATOM     29  C   UNL     1      10.779  -7.766   4.748  0.00  0.00    +0.039 A 
ATOM     30  C   UNL     1       9.487  -7.526   5.176  0.00  0.00    +0.010 A 
ATOM     31  F   UNL     1      12.276  -8.921   3.320  0.00  0.00    -0.205 F 
ENDBRANCH  24  25
ENDBRANCH  23  24
ENDBRANCH   6  23
TORSDOF 5
