REMARK  Name = ZINC39662736
REMARK  11 active torsions:
REMARK  status: ('A' for Active; 'I' for Inactive)
REMARK    1  A    between atoms: C_1  and  O_2
REMARK    2  A    between atoms: O_2  and  C_3
REMARK    3  A    between atoms: C_5  and  C_13
REMARK    4  A    between atoms: C_7  and  O_11
REMARK    5  A    between atoms: C_8  and  O_9
REMARK    6  A    between atoms: O_9  and  C_10
REMARK    7  A    between atoms: O_11  and  C_12
REMARK    8  A    between atoms: C_17  and  C_26
REMARK    9  A    between atoms: N_28  and  C_29
REMARK   10  A    between atoms: C_29  and  C_30
REMARK   11  A    between atoms: C_33  and  C_36
REMARK                            x       y       z     vdW  Elec       q    Type
REMARK                         _______ _______ _______ _____ _____    ______ ____
ROOT
ATOM      1  C   UNL     1      -4.854   0.231   0.038  0.00  0.00    +0.247 C 
ATOM      2  O   UNL     1      -4.811   1.442   0.148  0.00  0.00    -0.270 OA
ATOM      3  N   UNL     1      -6.044  -0.394  -0.056  0.00  0.00    -0.296 N 
ATOM      4  C   UNL     1      -6.305  -1.853  -0.067  0.00  0.00    +0.121 C 
ATOM      5  C   UNL     1      -7.587  -2.026   0.777  0.00  0.00    +0.100 C 
ATOM      6  C   UNL     1      -8.294  -0.662   0.703  0.00  0.00    -0.004 C 
ATOM      7  C   UNL     1      -7.388   0.222  -0.166  0.00  0.00    +0.115 C 
ATOM      8  C   UNL     1      -8.428  -0.060   2.098  0.00  0.00    -0.010 C 
ATOM      9  C   UNL     1      -9.184   1.269   2.004  0.00  0.00    -0.082 C 
ATOM     10  N   UNL     1     -10.511   1.038   1.420  0.00  0.00    +0.379 N 
ATOM     11  C   UNL     1     -10.373   0.546   0.044  0.00  0.00    -0.082 C 
ATOM     12  C   UNL     1      -9.667  -0.813   0.054  0.00  0.00    -0.010 C 
ATOM     13  H   UNL     1     -11.006   0.355   1.972  0.00  0.00    -0.086 HD
ATOM     14  H   UNL     1     -11.030   1.904   1.415  0.00  0.00    -0.086 HD
ENDROOT
BRANCH   1  17
ATOM     15  C   UNL     1      -1.275  -0.779   0.570  0.00  0.00    +0.166 A 
ATOM     16  C   UNL     1      -2.444  -0.043   0.598  0.00  0.00    +0.062 A 
ATOM     17  C   UNL     1      -3.604  -0.553   0.009  0.00  0.00    +0.044 A 
ATOM     18  C   UNL     1      -3.578  -1.806  -0.608  0.00  0.00    +0.062 A 
ATOM     19  C   UNL     1      -2.406  -2.538  -0.634  0.00  0.00    +0.166 A 
ATOM     20  C   UNL     1      -1.251  -2.026  -0.051  0.00  0.00    +0.204 A 
BRANCH  15  22
ATOM     21  C   UNL     1      -0.242   1.001   1.762  0.00  0.00    +0.277 C 
ATOM     22  O   UNL     1      -0.146  -0.284   1.143  0.00  0.00    -0.491 OA
ENDBRANCH  15  22
BRANCH  20  23
ATOM     23  O   UNL     1      -0.098  -2.745  -0.082  0.00  0.00    -0.488 OA
ATOM     24  C   UNL     1       0.135  -3.644   1.004  0.00  0.00    +0.277 C 
ENDBRANCH  20  23
BRANCH  19  25
ATOM     25  O   UNL     1      -2.381  -3.758  -1.235  0.00  0.00    -0.491 OA
ATOM     26  C   UNL     1      -3.601  -4.220  -1.817  0.00  0.00    +0.277 C 
ENDBRANCH  19  25
ENDBRANCH   1  17
BRANCH   5  27
ATOM     27  C   UNL     1      -8.461  -3.105   0.190  0.00  0.00    +0.218 C 
ATOM     28  O   UNL     1      -8.381  -3.374  -0.990  0.00  0.00    -0.275 OA
ATOM     29  N   UNL     1      -9.330  -3.771   0.976  0.00  0.00    -0.315 N 
ATOM     30  H   UNL     1      -9.393  -3.555   1.920  0.00  0.00    +0.149 HD
BRANCH  29  31
ATOM     31  C   UNL     1     -10.179  -4.819   0.405  0.00  0.00    +0.107 C 
BRANCH  31  32
ATOM     32  C   UNL     1     -11.066  -5.411   1.502  0.00  0.00    +0.006 C 
ATOM     33  C   UNL     1     -12.033  -4.339   2.010  0.00  0.00    +0.006 C 
ATOM     34  C   UNL     1     -12.920  -4.931   3.107  0.00  0.00    +0.015 C 
ATOM     35  C   UNL     1     -13.716  -6.108   2.540  0.00  0.00    +0.102 C 
ATOM     36  C   UNL     1     -12.749  -7.180   2.033  0.00  0.00    +0.015 C 
ATOM     37  C   UNL     1     -11.862  -6.588   0.935  0.00  0.00    +0.006 C 
BRANCH  35  38
ATOM     38  C   UNL     1     -14.590  -6.691   3.621  0.00  0.00    +0.359 C 
ATOM     39  O   UNL     1     -15.724  -7.053   3.358  0.00  0.00    -0.246 OA
ATOM     40  O   UNL     1     -14.162  -6.800   4.757  0.00  0.00    -0.246 OA
ENDBRANCH  35  38
ENDBRANCH  31  32
ENDBRANCH  29  31
ENDBRANCH   5  27
TORSDOF 8
