REMARK  Name = ZINC40342046
REMARK  5 active torsions:
REMARK  status: ('A' for Active; 'I' for Inactive)
REMARK    1  A    between atoms: C_4  and  C_7
REMARK    2  A    between atoms: C_7  and  N_8
REMARK    3  A    between atoms: C_9  and  C_26
REMARK    4  A    between atoms: C_12  and  C_19
REMARK    5  A    between atoms: C_29  and  N_32
REMARK                            x       y       z     vdW  Elec       q    Type
REMARK                         _______ _______ _______ _____ _____    ______ ____
ROOT
ATOM      1  N   UNL     1       4.152  -0.952   1.338  0.00  0.00    -0.281 N 
ATOM      2  C   UNL     1       4.987  -0.055   2.147  0.00  0.00    +0.142 C 
ATOM      3  C   UNL     1       5.166  -0.737   3.475  0.00  0.00    +0.035 A 
ATOM      4  C   UNL     1       5.726  -0.695   4.757  0.00  0.00    +0.099 A 
ATOM      5  N   UNL     1       5.373  -1.804   5.378  0.00  0.00    -0.173 NA
ATOM      6  N   UNL     1       4.646  -2.541   4.616  0.00  0.00    -0.272 N 
ATOM      7  H   UNL     1       4.274  -3.401   4.864  0.00  0.00    +0.189 HD
ATOM      8  C   UNL     1       4.475  -1.932   3.405  0.00  0.00    +0.126 A 
ATOM      9  C   UNL     1       3.856  -2.036   2.079  0.00  0.00    +0.266 C 
ATOM     10  O   UNL     1       3.175  -2.970   1.702  0.00  0.00    -0.268 OA
ENDROOT
BRANCH   4  11
ATOM     11  C   UNL     1       6.563   0.396   5.314  0.00  0.00    +0.003 A 
ATOM     12  C   UNL     1       7.440   1.096   4.489  0.00  0.00    +0.011 A 
ATOM     13  C   UNL     1       8.216   2.110   5.012  0.00  0.00    +0.020 A 
ATOM     14  C   UNL     1       8.125   2.432   6.355  0.00  0.00    +0.041 A 
ATOM     15  C   UNL     1       7.255   1.739   7.180  0.00  0.00    +0.020 A 
ATOM     16  C   UNL     1       6.470   0.728   6.665  0.00  0.00    +0.011 A 
ATOM     17 CL   UNL     1       9.104   3.708   7.007  0.00  0.00    -0.084 Cl
ENDBRANCH   4  11
BRANCH   2  18
ATOM     18  C   UNL     1       4.295   1.271   2.332  0.00  0.00    -0.022 A 
ATOM     19  C   UNL     1       2.928   1.315   2.536  0.00  0.00    +0.008 A 
ATOM     20  C   UNL     1       2.293   2.531   2.706  0.00  0.00    +0.033 A 
ATOM     21  C   UNL     1       3.025   3.703   2.672  0.00  0.00    +0.126 A 
ATOM     22  C   UNL     1       4.392   3.659   2.469  0.00  0.00    +0.033 A 
ATOM     23  C   UNL     1       5.027   2.443   2.304  0.00  0.00    +0.008 A 
BRANCH  21  24
ATOM     24  N   UNL     1       2.345   5.005   2.853  0.00  0.00    +0.056 N 
ATOM     25  O   UNL     1       1.150   5.044   3.030  0.00  0.00    -0.126 OA
ATOM     26  O   UNL     1       2.985   6.031   2.824  0.00  0.00    -0.126 OA
ENDBRANCH  21  24
ENDBRANCH   2  18
BRANCH   1  27
ATOM     27  C   UNL     1       3.711  -0.707  -0.038  0.00  0.00    +0.144 C 
BRANCH  27  31
ATOM     28  C   UNL     1      -0.017   1.378   0.010  0.00  0.00    +0.000 A 
ATOM     29  C   UNL     1       1.171   2.086   0.002  0.00  0.00    +0.000 A 
ATOM     30  C   UNL     1       2.377   1.411  -0.013  0.00  0.00    +0.005 A 
ATOM     31  C   UNL     1       2.396   0.029  -0.020  0.00  0.00    -0.030 A 
ATOM     32  C   UNL     1       1.208  -0.679  -0.012  0.00  0.00    +0.005 A 
ATOM     33  C   UNL     1       0.002  -0.004   0.002  0.00  0.00    +0.000 A 
ENDBRANCH  27  31
ENDBRANCH   1  27
TORSDOF 5
