REMARK  Name = ZINC33059078
REMARK  9 active torsions:
REMARK  status: ('A' for Active; 'I' for Inactive)
REMARK    1  A    between atoms: C_1  and  C_2
REMARK    2  A    between atoms: C_3  and  S_17
REMARK    3  A    between atoms: C_4  and  C_7
REMARK    4  A    between atoms: C_8  and  C_9
REMARK    5  A    between atoms: S_17  and  N_20
REMARK    6  A    between atoms: C_23  and  C_26
REMARK    7  A    between atoms: N_28  and  C_29
REMARK    8  A    between atoms: C_29  and  C_30
REMARK    9  A    between atoms: C_30  and  N_31
REMARK                            x       y       z     vdW  Elec       q    Type
REMARK                         _______ _______ _______ _____ _____    ______ ____
ROOT
ATOM      1  S   UNL     1       6.217  10.593   2.812  0.00  0.00    +0.066 S 
ATOM      2  O   UNL     1       5.185  11.568   2.761  0.00  0.00    -0.153 OA
ATOM      3  O   UNL     1       7.339  10.715   3.675  0.00  0.00    -0.153 OA
ENDROOT
BRANCH   1   6
ATOM      4  C   UNL     1       9.246   9.547   1.676  0.00  0.00    +0.071 C 
ATOM      5  C   UNL     1       8.129  10.005   0.775  0.00  0.00    +0.107 A 
ATOM      6  C   UNL     1       6.854  10.449   1.175  0.00  0.00    +0.174 A 
ATOM      7  C   UNL     1       6.223  10.752  -0.018  0.00  0.00    +0.187 A 
ATOM      8  O   UNL     1       7.116  10.476  -0.988  0.00  0.00    -0.353 OA
ATOM      9  N   UNL     1       8.154  10.064  -0.527  0.00  0.00    -0.081 NA
BRANCH   7  10
ATOM     10  C   UNL     1       4.862  11.268  -0.191  0.00  0.00    +0.052 C 
ATOM     11  C   UNL     1       4.387  11.515  -1.428  0.00  0.00    +0.014 C 
BRANCH  11  12
ATOM     12  C   UNL     1       3.021  12.033  -1.602  0.00  0.00    +0.010 A 
ATOM     13  C   UNL     1       2.210  12.264  -0.486  0.00  0.00    +0.013 A 
ATOM     14  C   UNL     1       0.933  12.754  -0.655  0.00  0.00    +0.039 A 
ATOM     15  C   UNL     1       0.446  13.007  -1.929  0.00  0.00    +0.126 A 
ATOM     16  C   UNL     1       1.240  12.776  -3.040  0.00  0.00    +0.077 A 
ATOM     17  C   UNL     1       2.524  12.290  -2.885  0.00  0.00    +0.133 A 
ATOM     18  F   UNL     1       3.299  12.065  -3.969  0.00  0.00    -0.205 F 
ATOM     19  F   UNL     1      -0.809  13.483  -2.086  0.00  0.00    -0.205 F 
ENDBRANCH  11  12
ENDBRANCH   7  10
ENDBRANCH   1   6
BRANCH   1  20
ATOM     20  N   UNL     1       5.489   9.152   3.182  0.00  0.00    -0.176 NA
ATOM     21  C   UNL     1       6.253   8.068   3.813  0.00  0.00    +0.110 C 
ATOM     22  C   UNL     1       6.089   6.796   2.975  0.00  0.00    +0.030 C 
ATOM     23  C   UNL     1       4.599   6.495   2.799  0.00  0.00    +0.077 C 
ATOM     24  C   UNL     1       3.927   7.652   2.057  0.00  0.00    +0.030 C 
ATOM     25  C   UNL     1       4.067   8.934   2.885  0.00  0.00    +0.110 C 
BRANCH  23  26
ATOM     26  C   UNL     1       4.434   5.226   2.004  0.00  0.00    +0.216 C 
ATOM     27  O   UNL     1       5.412   4.621   1.617  0.00  0.00    -0.276 OA
ATOM     28  N   UNL     1       3.200   4.762   1.724  0.00  0.00    -0.317 N 
ATOM     29  H   UNL     1       2.313   5.310   2.075  0.00  0.00    +0.149 HD
BRANCH  28  30
ATOM     30  C   UNL     1       3.040   3.528   0.951  0.00  0.00    +0.085 C 
BRANCH  30  31
ATOM     31  C   UNL     1       1.550   3.226   0.775  0.00  0.00    -0.060 C 
BRANCH  31  32
ATOM     32  N   UNL     1       1.389   1.989  -0.001  0.00  0.00    +0.381 N 
ATOM     33  C   UNL     1      -0.019   1.536   0.011  0.00  0.00    -0.079 C 
ATOM     34  C   UNL     1       0.002  -0.004   0.002  0.00  0.00    -0.020 C 
ATOM     35  C   UNL     1       1.500  -0.388   0.018  0.00  0.00    -0.020 C 
ATOM     36  C   UNL     1       2.176   0.880   0.598  0.00  0.00    -0.079 C 
ATOM     37  H   UNL     1       1.728   2.228  -1.019  0.00  0.00    -0.082 HD
ENDBRANCH  31  32
ENDBRANCH  30  31
ENDBRANCH  28  30
ENDBRANCH  23  26
ENDBRANCH   1  20
TORSDOF 8
