REMARK  Name = ZINC44452722
REMARK  7 active torsions:
REMARK  status: ('A' for Active; 'I' for Inactive)
REMARK    1  A    between atoms: C_1  and  N_2
REMARK    2  A    between atoms: N_2  and  C_3
REMARK    3  A    between atoms: C_7  and  C_9
REMARK    4  A    between atoms: C_13  and  N_14
REMARK    5  A    between atoms: C_15  and  C_17
REMARK    6  A    between atoms: C_17  and  O_18
REMARK    7  A    between atoms: O_18  and  C_19
REMARK                            x       y       z     vdW  Elec       q    Type
REMARK                         _______ _______ _______ _____ _____    ______ ____
ROOT
ATOM      1  C   UNL     1       0.036  -4.152  -2.355  0.00  0.00    +0.069 A 
ATOM      2  C   UNL     1      -1.202  -4.930  -2.353  0.00  0.00    -0.023 A 
ATOM      3  C   UNL     1      -1.013  -6.261  -2.360  0.00  0.00    -0.004 A 
ATOM      4  S   UNL     1       0.750  -6.464  -2.372  0.00  0.00    -0.077 S 
ATOM      5  C   UNL     1       1.227  -4.856  -2.371  0.00  0.00    +0.085 A 
ATOM      6  C   UNL     1      -2.316  -7.013  -2.354  0.00  0.00    +0.043 C 
ATOM      7  C   UNL     1      -3.366  -5.971  -1.908  0.00  0.00    +0.010 C 
ATOM      8  C   UNL     1      -2.703  -4.649  -2.348  0.00  0.00    +0.037 C 
ENDROOT
BRANCH   1  15
ATOM      9  C   UNL     1      -0.018   1.461   0.010  0.00  0.00    +0.133 C 
ATOM     10  N   UNL     1       0.002  -0.004   0.002  0.00  0.00    -0.291 N 
ATOM     11  C   UNL     1       0.024  -0.743   1.267  0.00  0.00    +0.133 C 
ATOM     12  C   UNL     1       0.000  -0.672  -1.169  0.00  0.00    +0.308 C 
ATOM     13  O   UNL     1      -0.018  -0.058  -2.218  0.00  0.00    -0.252 OA
ATOM     14  N   UNL     1       0.018  -2.019  -1.176  0.00  0.00    -0.236 N 
ATOM     15  C   UNL     1       0.016  -2.687  -2.347  0.00  0.00    +0.254 C 
ATOM     16  O   UNL     1      -0.002  -2.073  -3.397  0.00  0.00    -0.270 OA
ATOM     17  H   UNL     1       0.033  -2.509  -0.339  0.00  0.00    +0.159 HD
ENDBRANCH   1  15
BRANCH   5  18
ATOM     18  N   UNL     1       2.517  -4.349  -2.381  0.00  0.00    -0.277 N 
ATOM     19  C   UNL     1       3.571  -5.189  -2.396  0.00  0.00    +0.255 C 
ATOM     20  O   UNL     1       3.391  -6.388  -2.401  0.00  0.00    -0.272 OA
ATOM     21  H   UNL     1       2.661  -3.390  -2.377  0.00  0.00    +0.155 HD
BRANCH  19  22
ATOM     22  C   UNL     1       4.974  -4.638  -2.407  0.00  0.00    +0.325 C 
BRANCH  22  23
ATOM     23  O   UNL     1       5.910  -5.717  -2.422  0.00  0.00    -0.481 OA
BRANCH  23  24
ATOM     24  C   UNL     1       7.229  -5.390  -2.433  0.00  0.00    +0.140 A 
ATOM     25  C   UNL     1       7.614  -4.058  -2.424  0.00  0.00    +0.048 A 
ATOM     26  C   UNL     1       8.956  -3.727  -2.436  0.00  0.00    +0.023 A 
ATOM     27  C   UNL     1       9.915  -4.724  -2.457  0.00  0.00    +0.043 A 
ATOM     28  C   UNL     1       9.534  -6.054  -2.466  0.00  0.00    +0.043 A 
ATOM     29  C   UNL     1       8.193  -6.389  -2.448  0.00  0.00    +0.084 A 
ATOM     30 CL   UNL     1       7.714  -8.058  -2.453  0.00  0.00    -0.080 Cl
ATOM     31 CL   UNL     1      11.600  -4.305  -2.472  0.00  0.00    -0.083 Cl
ENDBRANCH  23  24
ENDBRANCH  22  23
ENDBRANCH  19  22
ENDBRANCH   5  18
TORSDOF 5
