REMARK  Name = ZINC36597639
REMARK  16 active torsions:
REMARK  status: ('A' for Active; 'I' for Inactive)
REMARK    1  A    between atoms: C_1  and  C_2
REMARK    2  A    between atoms: C_5  and  C_7
REMARK    3  A    between atoms: C_7  and  N_8
REMARK    4  A    between atoms: N_8  and  C_9
REMARK    5  A    between atoms: C_9  and  C_11
REMARK    6  A    between atoms: C_9  and  C_20
REMARK    7  A    between atoms: C_14  and  O_19
REMARK    8  A    between atoms: C_15  and  O_17
REMARK    9  A    between atoms: O_17  and  C_18
REMARK   10  A    between atoms: N_22  and  C_23
REMARK   11  A    between atoms: C_23  and  C_24
REMARK   12  A    between atoms: C_23  and  C_25
REMARK   13  A    between atoms: C_23  and  C_26
REMARK   14  A    between atoms: C_27  and  C_29
REMARK   15  A    between atoms: C_30  and  O_36
REMARK   16  A    between atoms: C_34  and  O_35
REMARK                            x       y       z     vdW  Elec       q    Type
REMARK                         _______ _______ _______ _____ _____    ______ ____
ROOT
ATOM      1  N   UNL     1       1.946  -3.485  -1.243  0.00  0.00    -0.274 N 
ATOM      2  C   UNL     1       1.000  -4.377  -1.600  0.00  0.00    +0.255 C 
ATOM      3  O   UNL     1       1.081  -4.954  -2.667  0.00  0.00    -0.270 OA
ENDROOT
BRANCH   2   4
ATOM      4  C   UNL     1      -0.131  -4.651  -0.698  0.00  0.00    +0.119 A 
ATOM      5  C   UNL     1      -1.311  -3.900  -0.797  0.00  0.00    +0.133 A 
ATOM      6  C   UNL     1      -2.370  -4.167   0.057  0.00  0.00    +0.046 A 
ATOM      7  C   UNL     1      -2.265  -5.170   1.003  0.00  0.00    +0.007 A 
ATOM      8  C   UNL     1      -1.106  -5.915   1.109  0.00  0.00    +0.046 A 
ATOM      9  C   UNL     1      -0.037  -5.669   0.262  0.00  0.00    +0.133 A 
BRANCH   9  10
ATOM     10  O   UNL     1       1.097  -6.406   0.365  0.00  0.00    -0.506 OA
ATOM     11  H   UNL     1       1.750  -6.040   0.977  0.00  0.00    +0.292 HD
ENDBRANCH   9  10
BRANCH   5  12
ATOM     12  O   UNL     1      -1.417  -2.916  -1.724  0.00  0.00    -0.506 OA
ATOM     13  H   UNL     1      -1.769  -3.213  -2.575  0.00  0.00    +0.292 HD
ENDBRANCH   5  12
ENDBRANCH   2   4
BRANCH   1  14
ATOM     14  C   UNL     1       1.912  -2.875   0.089  0.00  0.00    +0.183 C 
BRANCH  14  19
ATOM     15  C   UNL     1       0.676   1.989  -0.420  0.00  0.00    +0.086 C 
ATOM     16  C   UNL     1       0.558   0.506  -0.181  0.00  0.00    +0.102 A 
ATOM     17  C   UNL     1      -0.576  -0.156   0.112  0.00  0.00    +0.045 A 
ATOM     18  C   UNL     1      -0.230  -1.519   0.254  0.00  0.00    +0.046 A 
ATOM     19  C   UNL     1       1.095  -1.609   0.040  0.00  0.00    +0.122 A 
ATOM     20  O   UNL     1       1.566  -0.380  -0.228  0.00  0.00    -0.463 OA
ENDBRANCH  14  19
ENDBRANCH   1  14
BRANCH   1  21
ATOM     21  C   UNL     1       3.008  -3.127  -2.186  0.00  0.00    +0.193 C 
BRANCH  21  22
ATOM     22  C   UNL     1       2.393  -2.653  -3.478  0.00  0.00    -0.015 A 
ATOM     23  C   UNL     1       2.055  -1.322  -3.634  0.00  0.00    +0.010 A 
ATOM     24  C   UNL     1       1.491  -0.883  -4.817  0.00  0.00    +0.049 A 
ATOM     25  C   UNL     1       1.264  -1.778  -5.851  0.00  0.00    +0.158 A 
ATOM     26  C   UNL     1       1.605  -3.118  -5.694  0.00  0.00    +0.162 A 
ATOM     27  C   UNL     1       2.175  -3.550  -4.507  0.00  0.00    +0.055 A 
BRANCH  26  28
ATOM     28  O   UNL     1       1.385  -4.000  -6.705  0.00  0.00    -0.491 OA
ATOM     29  C   UNL     1       1.760  -5.359  -6.474  0.00  0.00    +0.277 C 
ENDBRANCH  26  28
BRANCH  25  30
ATOM     30  O   UNL     1       0.709  -1.348  -7.015  0.00  0.00    -0.503 OA
ATOM     31  H   UNL     1       1.354  -1.056  -7.674  0.00  0.00    +0.292 HD
ENDBRANCH  25  30
ENDBRANCH  21  22
BRANCH  21  32
ATOM     32  C   UNL     1       3.871  -4.332  -2.452  0.00  0.00    +0.239 C 
ATOM     33  O   UNL     1       3.624  -5.388  -1.908  0.00  0.00    -0.273 OA
ATOM     34  N   UNL     1       4.919  -4.239  -3.296  0.00  0.00    -0.309 N 
ATOM     35  H   UNL     1       5.116  -3.395  -3.731  0.00  0.00    +0.149 HD
BRANCH  34  36
ATOM     36  C   UNL     1       5.758  -5.411  -3.555  0.00  0.00    +0.026 C 
ATOM     37  C   UNL     1       4.902  -6.529  -4.152  0.00  0.00    +0.031 C 
ATOM     38  C   UNL     1       6.867  -5.036  -4.540  0.00  0.00    +0.031 C 
ATOM     39  C   UNL     1       6.382  -5.891  -2.243  0.00  0.00    +0.031 C 
ENDBRANCH  34  36
ENDBRANCH  21  32
ENDBRANCH   1  21
TORSDOF 11
