REMARK  Name = ZINC64392221
REMARK  9 active torsions:
REMARK  status: ('A' for Active; 'I' for Inactive)
REMARK    1  A    between atoms: C_1  and  C_2
REMARK    2  A    between atoms: C_5  and  C_8
REMARK    3  A    between atoms: C_8  and  N_9
REMARK    4  A    between atoms: C_15  and  C_22
REMARK    5  A    between atoms: C_25  and  C_28
REMARK    6  A    between atoms: C_30  and  O_36
REMARK    7  A    between atoms: C_32  and  O_34
REMARK    8  A    between atoms: O_34  and  C_35
REMARK    9  A    between atoms: O_36  and  C_37
REMARK                            x       y       z     vdW  Elec       q    Type
REMARK                         _______ _______ _______ _____ _____    ______ ____
ROOT
ATOM      1  N   UNL     1       1.447  -4.746  -0.032  0.00  0.00    -0.256 N 
ATOM      2  C   UNL     1       2.069  -4.947  -1.214  0.00  0.00    +0.265 A 
ATOM      3  O   UNL     1       1.493  -4.742  -2.265  0.00  0.00    -0.267 OA
ATOM      4  C   UNL     1       3.465  -5.420  -1.196  0.00  0.00    +0.063 A 
ATOM      5  C   UNL     1       4.176  -5.650  -2.372  0.00  0.00    +0.016 A 
ATOM      6  C   UNL     1       5.480  -6.092  -2.301  0.00  0.00    +0.009 A 
ATOM      7  C   UNL     1       6.083  -6.307  -1.072  0.00  0.00    +0.006 A 
ATOM      8  C   UNL     1       5.390  -6.083   0.101  0.00  0.00    +0.034 A 
ATOM      9  C   UNL     1       4.078  -5.638   0.050  0.00  0.00    +0.056 A 
ATOM     10  N   UNL     1       3.346  -5.399   1.205  0.00  0.00    -0.307 N 
ATOM     11  H   UNL     1       3.756  -5.545   2.072  0.00  0.00    +0.170 HD
ATOM     12  C   UNL     1       2.077  -4.963   1.133  0.00  0.00    +0.330 A 
ATOM     13  O   UNL     1       1.471  -4.762   2.168  0.00  0.00    -0.246 OA
ENDROOT
BRANCH   7  14
ATOM     14  C   UNL     1       7.509  -6.791  -1.015  0.00  0.00    +0.274 C 
ATOM     15  N   UNL     1       7.824  -7.588  -2.207  0.00  0.00    -0.339 N 
ATOM     16  C   UNL     1       8.789  -7.008  -2.851  0.00  0.00    +0.134 C 
ATOM     17  N   UNL     1       9.195  -5.859  -2.219  0.00  0.00    -0.247 N 
ATOM     18  O   UNL     1       8.414  -5.677  -1.047  0.00  0.00    -0.243 OA
ATOM     19  H   UNL     1       9.901  -5.268  -2.523  0.00  0.00    +0.196 HD
ATOM     20  H   UNL     1       7.383  -8.411  -2.469  0.00  0.00    +0.164 HD
BRANCH  16  21
ATOM     21  C   UNL     1       9.379  -7.521  -4.109  0.00  0.00    +0.024 A 
ATOM     22  C   UNL     1       8.596  -8.254  -5.000  0.00  0.00    +0.057 A 
ATOM     23  C   UNL     1       9.151  -8.732  -6.176  0.00  0.00    +0.124 A 
ATOM     24  C   UNL     1      10.484  -8.484  -6.466  0.00  0.00    +0.091 A 
ATOM     25  C   UNL     1      11.267  -7.756  -5.582  0.00  0.00    +0.124 A 
ATOM     26  C   UNL     1      10.717  -7.269  -4.407  0.00  0.00    +0.057 A 
BRANCH  25  27
ATOM     27  O   UNL     1      12.573  -7.516  -5.870  0.00  0.00    -0.495 OA
ATOM     28  C   UNL     1      13.073  -8.043  -7.101  0.00  0.00    +0.277 C 
ENDBRANCH  25  27
BRANCH  23  29
ATOM     29  O   UNL     1       8.388  -9.446  -7.045  0.00  0.00    -0.495 OA
ATOM     30  C   UNL     1       9.025  -9.909  -8.238  0.00  0.00    +0.277 C 
ENDBRANCH  23  29
ENDBRANCH  16  21
ENDBRANCH   7  14
BRANCH   1  31
ATOM     31  C   UNL     1       0.059  -4.275  -0.021  0.00  0.00    +0.165 C 
BRANCH  31  36
ATOM     32  C   UNL     1      -0.018   1.503   0.010  0.00  0.00    +0.044 C 
ATOM     33  C   UNL     1       0.002  -0.004   0.002  0.00  0.00    -0.050 A 
ATOM     34  C   UNL     1       0.006  -0.689  -1.199  0.00  0.00    +0.004 A 
ATOM     35  C   UNL     1       0.025  -2.071  -1.206  0.00  0.00    +0.005 A 
ATOM     36  C   UNL     1       0.040  -2.768  -0.013  0.00  0.00    -0.027 A 
ATOM     37  C   UNL     1       0.037  -2.084   1.188  0.00  0.00    +0.005 A 
ATOM     38  C   UNL     1       0.023  -0.702   1.195  0.00  0.00    +0.004 A 
ENDBRANCH  31  36
ENDBRANCH   1  31
TORSDOF 6
