REMARK  Name = ZINC65074778
REMARK  4 active torsions:
REMARK  status: ('A' for Active; 'I' for Inactive)
REMARK    1  A    between atoms: C_6  and  C_7
REMARK    2  A    between atoms: C_7  and  N_8
REMARK    3  A    between atoms: N_17  and  S_20
REMARK    4  A    between atoms: S_20  and  C_23
REMARK                            x       y       z     vdW  Elec       q    Type
REMARK                         _______ _______ _______ _____ _____    ______ ____
ROOT
ATOM      1  N   UNL     1      -1.727  -1.016  -1.368  0.00  0.00    -0.329 N 
ATOM      2  C   UNL     1      -2.887  -1.702  -1.611  0.00  0.00    +0.089 C 
ATOM      3  N   UNL     1      -3.569  -2.112  -0.609  0.00  0.00    -0.374 N 
ATOM      4  C   UNL     1      -4.815  -2.862  -0.728  0.00  0.00    +0.129 C 
ATOM      5  C   UNL     1      -5.384  -2.716  -2.141  0.00  0.00    +0.102 C 
ATOM      6  N   UNL     1      -4.308  -2.992  -3.108  0.00  0.00    -0.303 NA
ATOM      7  C   UNL     1      -3.293  -1.928  -3.040  0.00  0.00    +0.075 C 
ATOM      8  C   UNL     1      -2.071  -2.346  -3.861  0.00  0.00    +0.047 C 
ATOM      9  C   UNL     1      -2.500  -2.613  -5.307  0.00  0.00    +0.112 C 
ATOM     10  N   UNL     1      -3.193  -1.424  -5.822  0.00  0.00    -0.176 NA
ATOM     11  C   UNL     1      -4.325  -0.881  -5.060  0.00  0.00    +0.112 C 
ATOM     12  C   UNL     1      -3.874  -0.633  -3.617  0.00  0.00    +0.047 C 
ATOM     13  H   UNL     1      -1.192  -0.690  -2.109  0.00  0.00    +0.147 HD
ATOM     14  H   UNL     1      -3.897  -3.898  -2.943  0.00  0.00    +0.123 HD
ATOM     15  H   UNL     1      -3.238  -1.913   0.281  0.00  0.00    +0.161 HD
ENDROOT
BRANCH  10  16
ATOM     16  S   UNL     1      -2.706  -0.710  -7.235  0.00  0.00    +0.067 S 
ATOM     17  O   UNL     1      -3.141   0.641  -7.178  0.00  0.00    -0.152 OA
ATOM     18  O   UNL     1      -1.343  -1.065  -7.421  0.00  0.00    -0.152 OA
BRANCH  16  19
ATOM     19  C   UNL     1      -3.608  -1.474  -8.542  0.00  0.00    +0.144 A 
ATOM     20  C   UNL     1      -4.802  -1.119  -9.076  0.00  0.00    +0.038 A 
ATOM     21  C   UNL     1      -5.326  -1.874 -10.109  0.00  0.00    +0.030 A 
ATOM     22  C   UNL     1      -4.629  -2.948 -10.557  0.00  0.00    +0.080 A 
ATOM     23  S   UNL     1      -3.182  -2.911  -9.512  0.00  0.00    -0.057 S 
ATOM     24 CL   UNL     1      -5.035  -4.065 -11.822  0.00  0.00    -0.076 Cl
ENDBRANCH  16  19
ENDBRANCH  10  16
BRANCH   1  25
ATOM     25  C   UNL     1      -1.294  -0.774   0.010  0.00  0.00    +0.138 C 
BRANCH  25  31
ATOM     26  C   UNL     1      -0.017   1.378   0.010  0.00  0.00    +0.009 A 
ATOM     27  C   UNL     1       1.170   2.088   0.002  0.00  0.00    +0.050 A 
ATOM     28  C   UNL     1       2.380   1.416  -0.013  0.00  0.00    +0.166 A 
ATOM     29  C   UNL     1       2.399   0.023  -0.021  0.00  0.00    +0.167 A 
ATOM     30  C   UNL     1       1.207  -0.682  -0.014  0.00  0.00    +0.054 A 
ATOM     31  C   UNL     1       0.002  -0.004   0.002  0.00  0.00    -0.027 A 
ATOM     32  O   UNL     1       3.698  -0.395  -0.036  0.00  0.00    -0.453 OA
ATOM     33  C   UNL     1       4.466   0.750  -0.450  0.00  0.00    +0.466 C 
ATOM     34  O   UNL     1       3.668   1.870  -0.024  0.00  0.00    -0.453 OA
ENDBRANCH  25  31
ENDBRANCH   1  25
TORSDOF 4
