REMARK  Name = ZINC64015373
REMARK  7 active torsions:
REMARK  status: ('A' for Active; 'I' for Inactive)
REMARK    1  A    between atoms: C_4  and  C_7
REMARK    2  A    between atoms: C_7  and  N_8
REMARK    3  A    between atoms: C_14  and  C_16
REMARK    4  A    between atoms: C_16  and  C_17
REMARK    5  A    between atoms: N_19  and  C_20
REMARK    6  A    between atoms: C_20  and  C_21
REMARK    7  A    between atoms: C_21  and  C_22
REMARK                            x       y       z     vdW  Elec       q    Type
REMARK                         _______ _______ _______ _____ _____    ______ ____
ROOT
ATOM      1  C   UNL     1       6.447  -0.545   1.035  0.00  0.00    +0.089 C 
ENDROOT
BRANCH   1   8
ATOM      2  N   UNL     1       5.559  -2.746   0.442  0.00  0.00    +0.391 N 
ATOM      3  C   UNL     1       4.468  -3.703   0.686  0.00  0.00    -0.058 C 
ATOM      4  C   UNL     1       3.146  -3.061   0.260  0.00  0.00    +0.085 C 
ATOM      5  N   UNL     1       3.014  -1.741   0.871  0.00  0.00    -0.318 N 
ATOM      6  C   UNL     1       4.056  -1.077   1.385  0.00  0.00    +0.200 C 
ATOM      7  O   UNL     1       3.870   0.025   1.854  0.00  0.00    -0.278 OA
ATOM      8  C   UNL     1       5.448  -1.643   1.405  0.00  0.00    +0.028 C 
ATOM      9  H   UNL     1       2.137  -1.328   0.904  0.00  0.00    +0.149 HD
ATOM     10  H   UNL     1       5.489  -2.384  -0.497  0.00  0.00    -0.080 HD
BRANCH   2  11
ATOM     11  C   UNL     1       6.852  -3.421   0.614  0.00  0.00    -0.042 C 
BRANCH  11  15
ATOM     12  C   UNL     1       7.351  -6.352  -2.453  0.00  0.00    +0.000 A 
ATOM     13  C   UNL     1       7.790  -5.057  -2.656  0.00  0.00    +0.000 A 
ATOM     14  C   UNL     1       7.629  -4.109  -1.663  0.00  0.00    +0.002 A 
ATOM     15  C   UNL     1       7.027  -4.455  -0.468  0.00  0.00    -0.064 A 
ATOM     16  C   UNL     1       6.587  -5.750  -0.265  0.00  0.00    +0.002 A 
ATOM     17  C   UNL     1       6.750  -6.699  -1.257  0.00  0.00    +0.000 A 
ENDBRANCH  11  15
ENDBRANCH   2  11
ENDBRANCH   1   8
BRANCH   1  18
ATOM     18  C   UNL     1       6.120  -0.009  -0.335  0.00  0.00    +0.212 C 
ATOM     19  O   UNL     1       5.120  -0.383  -0.910  0.00  0.00    -0.276 OA
ATOM     20  N   UNL     1       6.941   0.885  -0.922  0.00  0.00    -0.315 N 
ATOM     21  H   UNL     1       7.741   1.183  -0.463  0.00  0.00    +0.149 HD
BRANCH  20  22
ATOM     22  C   UNL     1       6.623   1.406  -2.254  0.00  0.00    +0.108 C 
BRANCH  22  23
ATOM     23  C   UNL     1       7.706   2.396  -2.686  0.00  0.00    +0.052 C 
BRANCH  23  24
ATOM     24  C   UNL     1       7.380   2.932  -4.056  0.00  0.00    -0.040 C 
ATOM     25  C   UNL     1       6.729   4.082  -4.346  0.00  0.00    -0.001 A 
ATOM     26  C   UNL     1       6.151   5.136  -3.504  0.00  0.00    +0.010 A 
ATOM     27  C   UNL     1       5.547   6.191  -4.097  0.00  0.00    +0.001 A 
ATOM     28  C   UNL     1       5.459   6.302  -5.491  0.00  0.00    +0.002 A 
ATOM     29  C   UNL     1       5.965   5.374  -6.330  0.00  0.00    +0.026 A 
ATOM     30  C   UNL     1       6.623   4.223  -5.816  0.00  0.00    +0.043 A 
ATOM     31  N   UNL     1       7.186   3.200  -6.412  0.00  0.00    -0.380 N 
ATOM     32  C   UNL     1       7.719   2.296  -5.386  0.00  0.00    +0.144 C 
ATOM     33  H   UNL     1       7.244   3.065  -7.370  0.00  0.00    +0.160 HD
ENDBRANCH  23  24
ENDBRANCH  22  23
ENDBRANCH  20  22
ENDBRANCH   1  18
TORSDOF 7
