REMARK  Name = ZINC13645935
REMARK  4 active torsions:
REMARK  status: ('A' for Active; 'I' for Inactive)
REMARK    1  A    between atoms: C_1  and  C_2
REMARK    2  A    between atoms: C_6  and  C_7
REMARK    3  A    between atoms: C_18  and  S_23
REMARK    4  A    between atoms: S_23  and  N_26
REMARK                            x       y       z     vdW  Elec       q    Type
REMARK                         _______ _______ _______ _____ _____    ______ ____
ROOT
ATOM      1  C   UNL     1       3.902   5.332   6.194  0.00  0.00    +0.112 C 
ATOM      2  C   UNL     1       4.755   4.109   5.843  0.00  0.00    +0.029 C 
ATOM      3  C   UNL     1       6.242   4.491   6.101  0.00  0.00    +0.033 C 
ATOM      4  C   UNL     1       6.636   5.235   4.840  0.00  0.00    -0.030 C 
ATOM      5  C   UNL     1       5.839   4.916   3.850  0.00  0.00    -0.023 C 
ATOM      6  C   UNL     1       4.802   3.922   4.314  0.00  0.00    +0.049 C 
ATOM      7  C   UNL     1       3.480   4.162   3.656  0.00  0.00    -0.018 A 
ATOM      8  C   UNL     1       3.318   3.786   2.330  0.00  0.00    +0.034 A 
ATOM      9  C   UNL     1       2.114   3.987   1.686  0.00  0.00    +0.109 A 
ATOM     10  C   UNL     1       1.054   4.571   2.355  0.00  0.00    +0.030 A 
ATOM     11  C   UNL     1       1.202   4.945   3.675  0.00  0.00    +0.025 A 
ATOM     12  C   UNL     1       2.414   4.745   4.324  0.00  0.00    +0.031 A 
ATOM     13  N   UNL     1       2.550   5.137   5.660  0.00  0.00    -0.336 N 
ATOM     14  H   UNL     1       1.770   5.277   6.219  0.00  0.00    +0.147 HD
ENDROOT
BRANCH   1  20
ATOM     15  C   UNL     1       5.449   7.537   7.670  0.00  0.00    +0.044 C 
ATOM     16  C   UNL     1       5.203   7.565   6.184  0.00  0.00    -0.038 A 
ATOM     17  C   UNL     1       5.678   8.611   5.414  0.00  0.00    +0.011 A 
ATOM     18  C   UNL     1       5.440   8.605   4.080  0.00  0.00    +0.046 A 
ATOM     19  S   UNL     1       4.526   7.086   3.874  0.00  0.00    -0.099 S 
ATOM     20  C   UNL     1       4.514   6.566   5.582  0.00  0.00    +0.013 A 
ENDBRANCH   1  20
BRANCH   9  21
ATOM     21  S   UNL     1       1.929   3.502   0.002  0.00  0.00    +0.075 S 
ATOM     22  O   UNL     1       3.233   3.484  -0.561  0.00  0.00    -0.150 OA
ATOM     23  O   UNL     1       0.878   4.294  -0.535  0.00  0.00    -0.150 OA
BRANCH  21  24
ATOM     24  N   UNL     1       1.390   1.937  -0.001  0.00  0.00    -0.202 N 
ATOM     25  C   UNL     1      -0.019   1.533   0.011  0.00  0.00    +0.136 C 
ATOM     26  C   UNL     1       0.002  -0.004   0.002  0.00  0.00    +0.058 C 
ATOM     27  C   UNL     1       1.471  -0.364  -0.014  0.00  0.00    -0.023 A 
ATOM     28  C   UNL     1       2.212   0.808  -0.015  0.00  0.00    +0.054 A 
ATOM     29  C   UNL     1       3.606   0.729  -0.029  0.00  0.00    +0.025 A 
ATOM     30  C   UNL     1       4.232  -0.499  -0.042  0.00  0.00    +0.002 A 
ATOM     31  C   UNL     1       3.484  -1.662  -0.042  0.00  0.00    +0.000 A 
ATOM     32  C   UNL     1       2.103  -1.592  -0.027  0.00  0.00    +0.005 A 
ENDBRANCH  21  24
ENDBRANCH   9  21
TORSDOF 3
