REMARK  Name = ZINC39710576
REMARK  13 active torsions:
REMARK  status: ('A' for Active; 'I' for Inactive)
REMARK    1  A    between atoms: C_1  and  C_2
REMARK    2  A    between atoms: C_2  and  C_3
REMARK    3  A    between atoms: C_10  and  C_15
REMARK    4  A    between atoms: C_15  and  C_17
REMARK    5  A    between atoms: C_15  and  N_26
REMARK    6  A    between atoms: N_21  and  C_22
REMARK    7  A    between atoms: C_22  and  C_23
REMARK    8  A    between atoms: C_23  and  O_24
REMARK    9  A    between atoms: O_24  and  C_25
REMARK   10  A    between atoms: N_26  and  C_27
REMARK   11  A    between atoms: N_26  and  C_35
REMARK   12  A    between atoms: C_27  and  C_28
REMARK   13  A    between atoms: C_35  and  C_36
REMARK                            x       y       z     vdW  Elec       q    Type
REMARK                         _______ _______ _______ _____ _____    ______ ____
ROOT
ATOM      1  C   UNL     1      -5.370  -3.467  -2.408  0.00  0.00    +0.019 C 
ENDROOT
BRANCH   1   9
ATOM      2  C   UNL     1      -1.322   0.374  -0.702  0.00  0.00    -0.047 A 
ATOM      3  C   UNL     1      -1.686   0.236   0.637  0.00  0.00    +0.005 A 
ATOM      4  C   UNL     1      -2.824  -0.397   1.026  0.00  0.00    +0.024 A 
ATOM      5  C   UNL     1      -3.697  -0.948   0.070  0.00  0.00    +0.040 A 
ATOM      6  N   UNL     1      -4.810  -1.566   0.463  0.00  0.00    -0.285 N 
ATOM      7  C   UNL     1      -5.673  -2.106  -0.382  0.00  0.00    +0.223 C 
ATOM      8  O   UNL     1      -6.673  -2.658   0.036  0.00  0.00    -0.275 OA
ATOM      9  C   UNL     1      -5.411  -2.035  -1.869  0.00  0.00    +0.092 C 
ATOM     10  C   UNL     1      -4.146  -1.333  -2.321  0.00  0.00    -0.006 C 
ATOM     11  C   UNL     1      -3.337  -0.817  -1.353  0.00  0.00    -0.007 A 
ATOM     12  C   UNL     1      -2.099  -0.119  -1.701  0.00  0.00    +0.013 A 
ATOM     13  H   UNL     1      -4.997  -1.623   1.413  0.00  0.00    +0.155 HD
BRANCH   2  15
ATOM     14  C   UNL     1      -0.326   2.584  -1.226  0.00  0.00    +0.009 C 
ATOM     15  C   UNL     1      -0.042   1.091  -1.049  0.00  0.00    +0.032 C 
ENDBRANCH   2  15
ENDBRANCH   1   9
BRANCH   1  16
ATOM     16  C   UNL     1      -4.305  -4.247  -1.681  0.00  0.00    +0.139 A 
ATOM     17  N   UNL     1      -4.395  -4.761  -0.479  0.00  0.00    -0.115 NA
ATOM     18  N   UNL     1      -3.280  -5.351  -0.213  0.00  0.00    -0.023 NA
ATOM     19  N   UNL     1      -2.481  -5.225  -1.215  0.00  0.00    -0.044 NA
ATOM     20  N   UNL     1      -3.079  -4.555  -2.142  0.00  0.00    -0.229 N 
BRANCH  20  21
ATOM     21  C   UNL     1      -2.525  -4.194  -3.450  0.00  0.00    +0.175 C 
BRANCH  21  22
ATOM     22  C   UNL     1      -1.656  -2.943  -3.308  0.00  0.00    +0.183 C 
BRANCH  22  23
ATOM     23  O   UNL     1      -1.172  -2.551  -4.594  0.00  0.00    -0.381 OA
ATOM     24  C   UNL     1      -0.345  -1.386  -4.574  0.00  0.00    +0.194 C 
ENDBRANCH  22  23
ENDBRANCH  21  22
ENDBRANCH  20  21
ENDBRANCH   1  16
BRANCH   1  25
ATOM     25  N   UNL     1      -6.675  -4.107  -2.197  0.00  0.00    +0.394 N 
ATOM     26  H   UNL     1      -6.888  -4.120  -1.210  0.00  0.00    -0.080 HD
BRANCH  25  27
ATOM     27  C   UNL     1      -6.634  -5.484  -2.707  0.00  0.00    -0.041 C 
BRANCH  27  28
ATOM     28  C   UNL     1      -6.290  -5.465  -4.175  0.00  0.00    -0.064 A 
ATOM     29  C   UNL     1      -7.286  -5.272  -5.115  0.00  0.00    +0.004 A 
ATOM     30  C   UNL     1      -6.972  -5.254  -6.460  0.00  0.00    +0.038 A 
ATOM     31  C   UNL     1      -5.660  -5.430  -6.867  0.00  0.00    +0.123 A 
ATOM     32  C   UNL     1      -4.664  -5.623  -5.925  0.00  0.00    +0.038 A 
ATOM     33  C   UNL     1      -4.980  -5.635  -4.579  0.00  0.00    +0.004 A 
ATOM     34  F   UNL     1      -5.352  -5.413  -8.182  0.00  0.00    -0.205 F 
ENDBRANCH  27  28
ENDBRANCH  25  27
BRANCH  25  35
ATOM     35  C   UNL     1      -7.713  -3.350  -2.911  0.00  0.00    -0.002 C 
BRANCH  35  36
ATOM     36  C   UNL     1      -9.069  -3.905  -2.561  0.00  0.00    +0.089 A 
ATOM     37  C   UNL     1      -9.887  -3.438  -1.601  0.00  0.00    +0.042 A 
ATOM     38  C   UNL     1     -11.045  -4.249  -1.619  0.00  0.00    +0.041 A 
ATOM     39  C   UNL     1     -10.866  -5.164  -2.588  0.00  0.00    +0.195 A 
ATOM     40  O   UNL     1      -9.670  -4.947  -3.160  0.00  0.00    -0.470 OA
ENDBRANCH  35  36
ENDBRANCH  25  35
ENDBRANCH   1  25
TORSDOF 11
