REMARK  Name = ZINC39521594
REMARK  6 active torsions:
REMARK  status: ('A' for Active; 'I' for Inactive)
REMARK    1  A    between atoms: C_4  and  O_7
REMARK    2  A    between atoms: O_7  and  S_8
REMARK    3  A    between atoms: S_8  and  C_11
REMARK    4  A    between atoms: N_17  and  C_18
REMARK    5  A    between atoms: C_23  and  O_24
REMARK    6  A    between atoms: C_28  and  O_31
REMARK                            x       y       z     vdW  Elec       q    Type
REMARK                         _______ _______ _______ _____ _____    ______ ____
ROOT
ATOM      1  C   UNL     1       3.435  -2.734   1.620  0.00  0.00    +0.258 C 
ATOM      2  C   UNL     1       2.185  -2.221   0.898  0.00  0.00    +0.050 C 
ATOM      3  C   UNL     1       0.958  -2.981   1.408  0.00  0.00    +0.006 C 
ATOM      4  C   UNL     1       0.786  -2.728   2.908  0.00  0.00    +0.026 C 
ATOM      5  C   UNL     1       2.021  -3.243   3.652  0.00  0.00    +0.039 C 
ATOM      6  N   UNL     1       3.222  -2.630   3.070  0.00  0.00    -0.297 N 
ATOM      7  C   UNL     1       1.922  -2.869   5.131  0.00  0.00    +0.026 C 
ATOM      8  C   UNL     1       3.161  -3.380   5.870  0.00  0.00    +0.005 C 
ATOM      9  C   UNL     1       3.246  -4.901   5.731  0.00  0.00    +0.031 C 
ATOM     10  C   UNL     1       3.347  -5.273   4.250  0.00  0.00    +0.117 C 
ATOM     11  C   UNL     1       2.108  -4.763   3.511  0.00  0.00    +0.057 C 
ENDROOT
BRANCH   6  12
ATOM     12  C   UNL     1       4.145  -1.958   3.880  0.00  0.00    +0.074 A 
ATOM     13  C   UNL     1       5.396  -2.509   4.114  0.00  0.00    +0.027 A 
ATOM     14  C   UNL     1       6.306  -1.843   4.914  0.00  0.00    +0.002 A 
ATOM     15  C   UNL     1       5.971  -0.628   5.483  0.00  0.00    +0.004 A 
ATOM     16  C   UNL     1       4.726  -0.073   5.254  0.00  0.00    +0.047 A 
ATOM     17  C   UNL     1       3.810  -0.731   4.449  0.00  0.00    +0.138 A 
BRANCH  17  18
ATOM     18  O   UNL     1       2.587  -0.184   4.220  0.00  0.00    -0.505 OA
ATOM     19  H   UNL     1       1.946  -0.341   4.927  0.00  0.00    +0.292 HD
ENDBRANCH  17  18
ENDBRANCH   6  12
BRANCH   1  20
ATOM     20  S   UNL     1       4.868  -1.729   1.142  0.00  0.00    +0.140 S 
ATOM     21  O   UNL     1       6.070  -2.360   1.562  0.00  0.00    -0.135 OA
ATOM     22  O   UNL     1       4.627  -0.360   1.438  0.00  0.00    -0.135 OA
BRANCH  20  23
ATOM     23  O   UNL     1       4.904  -1.797  -0.378  0.00  0.00    -0.345 OA
BRANCH  23  27
ATOM     24  C   UNL     1       6.272  -5.393  -1.866  0.00  0.00    +0.000 A 
ATOM     25  C   UNL     1       4.938  -5.245  -1.537  0.00  0.00    +0.004 A 
ATOM     26  C   UNL     1       4.477  -4.042  -1.039  0.00  0.00    +0.048 A 
ATOM     27  C   UNL     1       5.355  -2.982  -0.868  0.00  0.00    +0.156 A 
ATOM     28  C   UNL     1       6.694  -3.132  -1.198  0.00  0.00    +0.048 A 
ATOM     29  C   UNL     1       7.149  -4.337  -1.697  0.00  0.00    +0.004 A 
ENDBRANCH  23  27
ENDBRANCH  20  23
ENDBRANCH   1  20
BRANCH  10  30
ATOM     30  O   UNL     1       4.517  -4.676   3.688  0.00  0.00    -0.392 OA
ATOM     31  H   UNL     1       5.346  -5.032   4.036  0.00  0.00    +0.210 HD
ENDBRANCH  10  30
TORSDOF 6
