REMARK  Name = ZINC38554302
REMARK  6 active torsions:
REMARK  status: ('A' for Active; 'I' for Inactive)
REMARK    1  A    between atoms: C_1  and  C_2
REMARK    2  A    between atoms: C_2  and  C_3
REMARK    3  A    between atoms: C_3  and  C_4
REMARK    4  A    between atoms: C_7  and  S_10
REMARK    5  A    between atoms: S_10  and  N_13
REMARK    6  A    between atoms: C_25  and  C_29
REMARK                            x       y       z     vdW  Elec       q    Type
REMARK                         _______ _______ _______ _____ _____    ______ ____
ROOT
ATOM      1  N   UNL     1       0.236  -7.036  -0.032  0.00  0.00    -0.174 NA
ATOM      2  C   UNL     1       0.948  -7.235  -1.302  0.00  0.00    +0.128 C 
ATOM      3  C   UNL     1       2.209  -6.362  -1.298  0.00  0.00    +0.125 C 
ATOM      4  N   UNL     1       2.932  -6.587  -0.039  0.00  0.00    -0.300 N 
ATOM      5  C   UNL     1       2.220  -6.388   1.232  0.00  0.00    +0.125 C 
ATOM      6  C   UNL     1       0.960  -7.255   1.228  0.00  0.00    +0.128 C 
ATOM      7  C   UNL     1       4.255  -6.977  -0.048  0.00  0.00    +0.174 A 
ATOM      8  N   UNL     1       4.982  -7.309   1.058  0.00  0.00    -0.327 N 
ATOM      9  H   UNL     1       4.666  -7.313   1.975  0.00  0.00    +0.169 HD
ATOM     10  C   UNL     1       6.256  -7.641   0.628  0.00  0.00    +0.065 A 
ATOM     11  C   UNL     1       7.413  -8.051   1.273  0.00  0.00    +0.028 A 
ATOM     12  C   UNL     1       8.553  -8.311   0.541  0.00  0.00    +0.005 A 
ATOM     13  C   UNL     1       8.550  -8.165  -0.839  0.00  0.00    -0.048 A 
ATOM     14  C   UNL     1       7.411  -7.758  -1.496  0.00  0.00    +0.031 A 
ATOM     15  C   UNL     1       6.248  -7.492  -0.769  0.00  0.00    +0.066 A 
ATOM     16  N   UNL     1       4.998  -7.090  -1.120  0.00  0.00    -0.327 N 
ATOM     17  C   UNL     1       9.804  -8.453  -1.624  0.00  0.00    +0.044 C 
ATOM     18  H   UNL     1       4.702  -6.913  -2.027  0.00  0.00    +0.169 HD
ENDROOT
BRANCH   1  19
ATOM     19  S   UNL     1      -1.352  -6.567  -0.020  0.00  0.00    +0.061 S 
ATOM     20  O   UNL     1      -1.891  -6.987   1.226  0.00  0.00    -0.153 OA
ATOM     21  O   UNL     1      -1.905  -6.973  -1.265  0.00  0.00    -0.153 OA
BRANCH  19  25
ATOM     22  C   UNL     1      -1.413  -2.041   0.005  0.00  0.00    -0.047 A 
ATOM     23  C   UNL     1      -1.409  -2.725  -1.196  0.00  0.00    +0.005 A 
ATOM     24  C   UNL     1      -1.391  -4.107  -1.204  0.00  0.00    +0.029 A 
ATOM     25  C   UNL     1      -1.375  -4.805  -0.011  0.00  0.00    +0.105 A 
ATOM     26  C   UNL     1      -1.378  -4.120   1.190  0.00  0.00    +0.029 A 
ATOM     27  C   UNL     1      -1.392  -2.738   1.198  0.00  0.00    +0.005 A 
BRANCH  22  28
ATOM     28  C   UNL     1      -1.433  -0.534   0.013  0.00  0.00    +0.035 C 
BRANCH  28  30
ATOM     29  C   UNL     1      -0.019   1.526   0.010  0.00  0.00    +0.004 C 
ATOM     30  C   UNL     1       0.002  -0.004   0.002  0.00  0.00    +0.001 C 
ENDBRANCH  28  30
ENDBRANCH  22  28
ENDBRANCH  19  25
ENDBRANCH   1  19
TORSDOF 4
