REMARK  Name = ZINC11870815
REMARK  10 active torsions:
REMARK  status: ('A' for Active; 'I' for Inactive)
REMARK    1  A    between atoms: C_1  and  C_2
REMARK    2  A    between atoms: C_2  and  O_3
REMARK    3  A    between atoms: O_3  and  C_4
REMARK    4  A    between atoms: C_8  and  C_11
REMARK    5  A    between atoms: C_9  and  O_10
REMARK    6  A    between atoms: C_11  and  N_65
REMARK    7  A    between atoms: C_17  and  C_21
REMARK    8  A    between atoms: C_21  and  C_23
REMARK    9  A    between atoms: C_21  and  N_24
REMARK   10  A    between atoms: C_25  and  C_27
REMARK                            x       y       z     vdW  Elec       q    Type
REMARK                         _______ _______ _______ _____ _____    ______ ____
ROOT
ATOM      1  C   UNL     1       0.169   1.546  -0.139  0.00  0.00    -0.071 C 
ATOM      2  C   UNL     1       1.652   1.929  -0.157  0.00  0.00    +0.058 C 
ATOM      3  C   UNL     1       2.127   2.103   1.263  0.00  0.00    +0.132 A 
ATOM      4  N   UNL     1       2.855   3.067   1.746  0.00  0.00    -0.134 NA
ATOM      5  N   UNL     1       3.084   2.849   2.994  0.00  0.00    -0.132 NA
ATOM      6  C   UNL     1       2.503   1.738   3.362  0.00  0.00    +0.154 A 
ATOM      7  N   UNL     1       1.870   1.242   2.278  0.00  0.00    -0.315 N 
ATOM      8  C   UNL     1       1.057   0.029   2.192  0.00  0.00    +0.106 C 
ATOM      9  C   UNL     1       1.109  -0.512   0.760  0.00  0.00    -0.056 C 
ATOM     10  N   UNL     1       0.002   0.079  -0.027  0.00  0.00    +0.384 N 
ATOM     11  H   UNL     1      -0.885  -0.117   0.451  0.00  0.00    -0.081 HD
ENDROOT
BRANCH   6  12
ATOM     12  C   UNL     1       2.534   1.125   4.738  0.00  0.00    +0.138 C 
ATOM     13  C   UNL     1       1.610   1.913   5.668  0.00  0.00    +0.036 C 
BRANCH  12  14
ATOM     14  N   UNL     1       3.902   1.165   5.261  0.00  0.00    -0.305 N 
ATOM     15  C   UNL     1       4.294   0.274   6.193  0.00  0.00    +0.217 C 
ATOM     16  O   UNL     1       3.514  -0.560   6.600  0.00  0.00    -0.275 OA
ATOM     17  H   UNL     1       4.526   1.832   4.935  0.00  0.00    +0.149 HD
BRANCH  15  18
ATOM     18  C   UNL     1       5.701   0.316   6.730  0.00  0.00    +0.079 C 
ATOM     19  C   UNL     1       6.694   0.097   5.584  0.00  0.00    +0.041 C 
ATOM     20  C   UNL     1       8.116   0.062   6.150  0.00  0.00    +0.160 C 
ATOM     21  O   UNL     1       8.210  -0.972   7.132  0.00  0.00    -0.380 OA
ATOM     22  C   UNL     1       7.339  -0.795   8.251  0.00  0.00    +0.160 C 
ATOM     23  C   UNL     1       5.886  -0.795   7.769  0.00  0.00    +0.041 C 
ENDBRANCH  15  18
ENDBRANCH  12  14
ENDBRANCH   6  12
BRANCH  10  24
ATOM     24  C   UNL     1      -0.036  -0.523  -1.371  0.00  0.00    -0.039 C 
BRANCH  24  29
ATOM     25  C   UNL     1      -3.755  -0.781  -2.031  0.00  0.00    +0.162 A 
ATOM     26  C   UNL     1      -3.916   0.151  -3.044  0.00  0.00    +0.049 A 
ATOM     27  C   UNL     1      -2.824   0.859  -3.511  0.00  0.00    +0.004 A 
ATOM     28  C   UNL     1      -1.572   0.644  -2.966  0.00  0.00    +0.005 A 
ATOM     29  C   UNL     1      -1.404  -0.288  -1.960  0.00  0.00    -0.019 A 
ATOM     30  C   UNL     1      -2.494  -1.002  -1.487  0.00  0.00    +0.160 A 
BRANCH  30  31
ATOM     31  O   UNL     1      -2.331  -1.915  -0.493  0.00  0.00    -0.503 OA
ATOM     32  H   UNL     1      -2.434  -1.551   0.397  0.00  0.00    +0.292 HD
ENDBRANCH  30  31
BRANCH  25  33
ATOM     33  O   UNL     1      -4.827  -1.479  -1.571  0.00  0.00    -0.489 OA
BRANCH  33  35
ATOM     34  C   UNL     1      -7.169  -2.076  -1.534  0.00  0.00    +0.048 C 
ATOM     35  C   UNL     1      -6.091  -1.201  -2.177  0.00  0.00    +0.226 C 
ENDBRANCH  33  35
ENDBRANCH  25  33
ENDBRANCH  24  29
ENDBRANCH  10  24
TORSDOF 8
