REMARK  Name = ZINC40317848
REMARK  14 active torsions:
REMARK  status: ('A' for Active; 'I' for Inactive)
REMARK    1  A    between atoms: C_1  and  C_2
REMARK    2  A    between atoms: C_2  and  N_3
REMARK    3  A    between atoms: N_3  and  C_4
REMARK    4  A    between atoms: N_3  and  C_6
REMARK    5  A    between atoms: C_4  and  C_5
REMARK    6  A    between atoms: C_9  and  C_12
REMARK    7  A    between atoms: C_12  and  N_13
REMARK    8  A    between atoms: N_13  and  C_14
REMARK    9  A    between atoms: N_13  and  C_28
REMARK   10  A    between atoms: C_14  and  C_15
REMARK   11  A    between atoms: C_15  and  C_17
REMARK   12  A    between atoms: C_15  and  O_27
REMARK   13  A    between atoms: C_17  and  O_18
REMARK   14  A    between atoms: O_18  and  C_19
REMARK                            x       y       z     vdW  Elec       q    Type
REMARK                         _______ _______ _______ _____ _____    ______ ____
ROOT
ATOM      1  N   UNL     1      -4.809  -0.466   5.186  0.00  0.00    +0.387 N 
ATOM      2  H   UNL     1      -5.396  -0.203   4.408  0.00  0.00    -0.081 HD
ENDROOT
BRANCH   1   3
ATOM      3  C   UNL     1      -3.550   0.289   5.126  0.00  0.00    -0.045 C 
ATOM      4  C   UNL     1      -3.076   0.394   3.667  0.00  0.00    +0.009 C 
ATOM      5  C   UNL     1      -1.613   0.897   3.622  0.00  0.00    +0.164 C 
ATOM      6  S   UNL     1      -0.932   0.302   5.223  0.00  0.00    -0.033 S 
ATOM      7  O   UNL     1      -0.558   1.424   6.012  0.00  0.00    -0.174 OA
ATOM      8  O   UNL     1       0.019  -0.722   4.969  0.00  0.00    -0.174 OA
ATOM      9  C   UNL     1      -2.452  -0.454   5.939  0.00  0.00    +0.151 C 
ENDBRANCH   1   3
BRANCH   1  10
ATOM     10  C   UNL     1      -4.520  -1.905   5.116  0.00  0.00    -0.042 C 
BRANCH  10  14
ATOM     11  C   UNL     1      -3.059  -2.880   1.220  0.00  0.00    +0.030 A 
ATOM     12  C   UNL     1      -2.169  -2.678   2.267  0.00  0.00    +0.023 A 
ATOM     13  C   UNL     1      -2.644  -2.362   3.524  0.00  0.00    +0.003 A 
ATOM     14  C   UNL     1      -4.005  -2.248   3.742  0.00  0.00    -0.064 A 
ATOM     15  C   UNL     1      -4.894  -2.448   2.702  0.00  0.00    +0.003 A 
ATOM     16  C   UNL     1      -4.425  -2.758   1.441  0.00  0.00    +0.023 A 
BRANCH  11  17
ATOM     17  N   UNL     1      -2.582  -3.198  -0.053  0.00  0.00    -0.330 N 
BRANCH  17  19
ATOM     18  C   UNL     1      -0.567  -1.967  -0.689  0.00  0.00    +0.024 C 
ATOM     19  C   UNL     1      -1.141  -3.326  -0.285  0.00  0.00    +0.102 C 
ENDBRANCH  17  19
BRANCH  17  20
ATOM     20  C   UNL     1      -3.522  -3.405  -1.158  0.00  0.00    +0.102 C 
ATOM     21  C   UNL     1      -3.921  -4.881  -1.218  0.00  0.00    +0.024 C 
ENDBRANCH  17  20
ENDBRANCH  11  17
ENDBRANCH  10  14
ENDBRANCH   1  10
BRANCH   1  22
ATOM     22  C   UNL     1      -5.501  -0.165   6.446  0.00  0.00    -0.043 C 
BRANCH  22  23
ATOM     23  C   UNL     1      -6.155   1.215   6.352  0.00  0.00    +0.135 C 
BRANCH  23  24
ATOM     24  O   UNL     1      -5.141   2.220   6.301  0.00  0.00    -0.390 OA
ATOM     25  H   UNL     1      -4.530   2.201   7.050  0.00  0.00    +0.210 HD
ENDBRANCH  23  24
BRANCH  23  26
ATOM     26  C   UNL     1      -7.039   1.444   7.580  0.00  0.00    +0.258 C 
BRANCH  26  27
ATOM     27  O   UNL     1      -7.739   2.682   7.437  0.00  0.00    -0.488 OA
BRANCH  27  28
ATOM     28  C   UNL     1      -8.574   3.038   8.449  0.00  0.00    +0.139 A 
ATOM     29  C   UNL     1      -8.711   2.217   9.559  0.00  0.00    +0.048 A 
ATOM     30  C   UNL     1      -9.560   2.581  10.586  0.00  0.00    +0.023 A 
ATOM     31  C   UNL     1     -10.274   3.764  10.510  0.00  0.00    +0.043 A 
ATOM     32  C   UNL     1     -10.139   4.585   9.404  0.00  0.00    +0.043 A 
ATOM     33  C   UNL     1      -9.287   4.227   8.376  0.00  0.00    +0.084 A 
ATOM     34 CL   UNL     1      -9.112   5.261   6.993  0.00  0.00    -0.080 Cl
ATOM     35 CL   UNL     1     -11.340   4.218  11.802  0.00  0.00    -0.083 Cl
ENDBRANCH  27  28
ENDBRANCH  26  27
ENDBRANCH  23  26
ENDBRANCH  22  23
ENDBRANCH   1  22
TORSDOF 12
