REMARK  Name = ZINC64661781
REMARK  7 active torsions:
REMARK  status: ('A' for Active; 'I' for Inactive)
REMARK    1  A    between atoms: C_1  and  C_2
REMARK    2  A    between atoms: C_5  and  C_9
REMARK    3  A    between atoms: C_6  and  C_8
REMARK    4  A    between atoms: C_11  and  C_14
REMARK    5  A    between atoms: N_24  and  C_25
REMARK    6  A    between atoms: C_25  and  C_26
REMARK    7  A    between atoms: C_25  and  C_27
REMARK                            x       y       z     vdW  Elec       q    Type
REMARK                         _______ _______ _______ _____ _____    ______ ____
ROOT
ATOM      1  C   UNL     1       0.962  -7.513  -1.121  0.00  0.00    +0.025 A 
ATOM      2  C   UNL     1       0.953  -7.421  -2.513  0.00  0.00    +0.014 A 
ATOM      3  C   UNL     1       1.127  -8.550  -3.283  0.00  0.00    +0.029 A 
ATOM      4  C   UNL     1       1.311  -9.784  -2.674  0.00  0.00    +0.070 A 
ATOM      5  C   UNL     1       1.321  -9.882  -1.280  0.00  0.00    +0.068 A 
ATOM      6  C   UNL     1       1.152  -8.748  -0.506  0.00  0.00    +0.039 A 
ATOM      7  N   UNL     1       1.523 -11.226  -0.973  0.00  0.00    -0.306 N 
ATOM      8  H   UNL     1       1.576 -11.603  -0.081  0.00  0.00    +0.170 HD
ATOM      9  C   UNL     1       1.631 -11.913  -2.126  0.00  0.00    +0.328 A 
ATOM     10  O   UNL     1       1.812 -13.113  -2.213  0.00  0.00    -0.247 OA
ATOM     11  N   UNL     1       1.507 -11.070  -3.169  0.00  0.00    -0.290 N 
ENDROOT
BRANCH   1  14
ATOM     12  C   UNL     1       0.455  -4.209   0.229  0.00  0.00    +0.259 A 
ATOM     13  N   UNL     1       0.585  -5.052  -0.769  0.00  0.00    -0.187 NA
ATOM     14  C   UNL     1       0.775  -6.294  -0.296  0.00  0.00    +0.202 A 
ATOM     15  N   UNL     1       0.769  -6.253   1.015  0.00  0.00    -0.056 NA
ATOM     16  O   UNL     1       0.567  -4.896   1.379  0.00  0.00    -0.332 OA
BRANCH  12  21
ATOM     17  C   UNL     1      -0.417   1.460  -0.243  0.00  0.00    +0.044 C 
ATOM     18  C   UNL     1      -0.188  -0.025  -0.119  0.00  0.00    -0.050 A 
ATOM     19  C   UNL     1       0.791  -0.637  -0.882  0.00  0.00    +0.004 A 
ATOM     20  C   UNL     1       1.005  -1.995  -0.774  0.00  0.00    +0.014 A 
ATOM     21  C   UNL     1       0.232  -2.752   0.108  0.00  0.00    +0.042 A 
ATOM     22  C   UNL     1      -0.754  -2.129   0.875  0.00  0.00    -0.038 A 
ATOM     23  C   UNL     1      -0.954  -0.768   0.761  0.00  0.00    +0.007 A 
ATOM     24  C   UNL     1      -1.593  -2.939   1.829  0.00  0.00    +0.044 C 
ENDBRANCH  12  21
ENDBRANCH   1  14
BRANCH  11  25
ATOM     25  C   UNL     1       1.569 -11.444  -4.584  0.00  0.00    +0.086 C 
ATOM     26  C   UNL     1       2.929 -12.076  -4.886  0.00  0.00    +0.031 C 
ATOM     27  C   UNL     1       0.458 -12.449  -4.895  0.00  0.00    +0.031 C 
ENDBRANCH  11  25
TORSDOF 3
