REMARK  Name = ZINC21277639
REMARK  12 active torsions:
REMARK  status: ('A' for Active; 'I' for Inactive)
REMARK    1  A    between atoms: C_1  and  C_2
REMARK    2  A    between atoms: C_4  and  C_15
REMARK    3  A    between atoms: C_5  and  C_14
REMARK    4  A    between atoms: N_6  and  C_7
REMARK    5  A    between atoms: C_15  and  C_17
REMARK    6  A    between atoms: C_17  and  O_18
REMARK    7  A    between atoms: O_18  and  C_19
REMARK    8  A    between atoms: C_19  and  C_21
REMARK    9  A    between atoms: C_21  and  N_22
REMARK   10  A    between atoms: C_27  and  C_34
REMARK   11  A    between atoms: C_30  and  C_32
REMARK   12  A    between atoms: C_30  and  C_33
REMARK                            x       y       z     vdW  Elec       q    Type
REMARK                         _______ _______ _______ _____ _____    ______ ____
ROOT
ATOM      1  C   UNL     1       4.896  -1.241  -0.052  0.00  0.00    +0.326 C 
ATOM      2  O   UNL     1       4.155  -2.195  -0.051  0.00  0.00    -0.249 OA
ENDROOT
BRANCH   1   3
ATOM      3  O   UNL     1       4.391   0.002  -0.040  0.00  0.00    -0.455 OA
BRANCH   3   4
ATOM      4  C   UNL     1       2.944   0.125  -0.026  0.00  0.00    +0.311 C 
BRANCH   4   5
ATOM      5  C   UNL     1       2.564   1.583  -0.014  0.00  0.00    +0.202 C 
ATOM      6  O   UNL     1       3.428   2.436  -0.017  0.00  0.00    -0.288 OA
BRANCH   5  10
ATOM      7  C   UNL     1      -2.528   1.386   0.019  0.00  0.00    +0.064 C 
ATOM      8  C   UNL     1      -1.099   1.866   0.017  0.00  0.00    +0.022 A 
ATOM      9  C   UNL     1      -0.013   1.076   0.008  0.00  0.00    +0.034 A 
ATOM     10  C   UNL     1       1.152   1.972   0.002  0.00  0.00    +0.042 A 
ATOM     11  C   UNL     1       0.642   3.257   0.013  0.00  0.00    +0.032 A 
ATOM     12  N   UNL     1      -0.703   3.174   0.026  0.00  0.00    -0.317 N 
ATOM     13  C   UNL     1       1.450   4.529   0.013  0.00  0.00    +0.064 C 
BRANCH  12  14
ATOM     14  C   UNL     1      -1.572   4.274   0.040  0.00  0.00    +0.049 A 
ATOM     15  C   UNL     1      -2.412   4.510  -1.040  0.00  0.00    +0.026 A 
ATOM     16  C   UNL     1      -3.268   5.594  -1.025  0.00  0.00    +0.005 A 
ATOM     17  C   UNL     1      -3.289   6.444   0.065  0.00  0.00    +0.038 A 
ATOM     18  C   UNL     1      -2.454   6.212   1.145  0.00  0.00    +0.125 A 
ATOM     19  C   UNL     1      -1.598   5.125   1.136  0.00  0.00    +0.064 A 
ATOM     20  F   UNL     1      -2.477   7.044   2.209  0.00  0.00    -0.205 F 
ENDBRANCH  12  14
ENDBRANCH   5  10
ENDBRANCH   4   5
ENDBRANCH   3   4
ENDBRANCH   1   3
BRANCH   1  21
ATOM     21  C   UNL     1       6.389  -1.447  -0.068  0.00  0.00    +0.238 C 
BRANCH  21  22
ATOM     22  N   UNL     1       6.684  -2.882  -0.079  0.00  0.00    -0.213 N 
ATOM     23  C   UNL     1       6.821  -3.638   1.032  0.00  0.00    +0.247 C 
ATOM     24  O   UNL     1       6.598  -3.284   2.170  0.00  0.00    -0.273 OA
ATOM     25  C   UNL     1       7.274  -4.995   0.549  0.00  0.00    +0.113 C 
ATOM     26  C   UNL     1       6.355  -6.089   1.073  0.00  0.00    +0.038 C 
ATOM     27  C   UNL     1       6.615  -6.323   2.562  0.00  0.00    -0.011 C 
ATOM     28  C   UNL     1       8.056  -6.796   2.737  0.00  0.00    +0.009 C 
ATOM     29  C   UNL     1       9.040  -5.733   2.260  0.00  0.00    -0.032 C 
ATOM     30  C   UNL     1       8.736  -5.249   0.853  0.00  0.00    +0.041 C 
ATOM     31  C   UNL     1      10.449  -6.364   2.255  0.00  0.00    +0.011 C 
ATOM     32  C   UNL     1       9.065  -4.560   3.243  0.00  0.00    +0.011 C 
ATOM     33  C   UNL     1       5.660  -7.404   3.078  0.00  0.00    +0.007 C 
ATOM     34  N   UNL     1       7.109  -4.900  -0.920  0.00  0.00    -0.285 N 
ATOM     35  C   UNL     1       6.826  -3.614  -1.189  0.00  0.00    +0.310 C 
ATOM     36  O   UNL     1       6.713  -3.166  -2.314  0.00  0.00    -0.252 OA
ATOM     37  H   UNL     1       7.225  -5.798  -1.545  0.00  0.00    +0.151 HD
ENDBRANCH  21  22
ENDBRANCH   1  21
TORSDOF 7
