REMARK  Name = ZINC38798885
REMARK  10 active torsions:
REMARK  status: ('A' for Active; 'I' for Inactive)
REMARK    1  A    between atoms: C_1  and  C_2
REMARK    2  A    between atoms: C_2  and  C_3
REMARK    3  A    between atoms: C_6  and  C_9
REMARK    4  A    between atoms: C_11  and  C_15
REMARK    5  A    between atoms: C_15  and  C_16
REMARK    6  A    between atoms: C_16  and  C_17
REMARK    7  A    between atoms: C_22  and  C_25
REMARK    8  A    between atoms: C_25  and  C_26
REMARK    9  A    between atoms: N_32  and  C_33
REMARK   10  A    between atoms: C_33  and  C_34
REMARK                            x       y       z     vdW  Elec       q    Type
REMARK                         _______ _______ _______ _____ _____    ______ ____
ROOT
ATOM      1  C   UNL     1      -9.143  -6.362   0.061  0.00  0.00    +0.219 C 
ATOM      2  O   UNL     1      -8.184  -7.102  -0.004  0.00  0.00    -0.275 OA
ATOM      3  N   UNL     1     -10.371  -6.869   0.287  0.00  0.00    -0.265 N 
ATOM      4  C   UNL     1     -10.540  -8.239   0.446  0.00  0.00    +0.165 A 
ATOM      5  N   UNL     1     -11.652  -8.906   0.665  0.00  0.00    -0.229 NA
ATOM      6  C   UNL     1     -11.645 -10.220   0.794  0.00  0.00    +0.058 A 
ATOM      7  C   UNL     1     -10.446 -10.844   0.690  0.00  0.00    +0.072 A 
ATOM      8  S   UNL     1      -9.370  -9.449   0.396  0.00  0.00    -0.060 S 
ATOM      9  H   UNL     1     -11.138  -6.277   0.339  0.00  0.00    +0.157 HD
ENDROOT
BRANCH   1  10
ATOM     10  C   UNL     1      -8.961  -4.876  -0.111  0.00  0.00    +0.100 C 
BRANCH  10  11
ATOM     11  C   UNL     1      -7.482  -4.569  -0.353  0.00  0.00    +0.066 C 
BRANCH  11  14
ATOM     12  C   UNL     1      -5.399  -1.997   0.043  0.00  0.00    +0.134 C 
ATOM     13  N   UNL     1      -5.904  -2.756  -0.879  0.00  0.00    -0.343 N 
ATOM     14  C   UNL     1      -7.296  -3.060  -0.528  0.00  0.00    +0.243 C 
ATOM     15  O   UNL     1      -7.534  -2.381   0.714  0.00  0.00    -0.248 OA
ATOM     16  N   UNL     1      -6.312  -1.734   1.033  0.00  0.00    -0.247 N 
ATOM     17  H   UNL     1      -6.150  -1.193   1.821  0.00  0.00    +0.196 HD
ATOM     18  H   UNL     1      -5.439  -3.070  -1.671  0.00  0.00    +0.164 HD
BRANCH  12  22
ATOM     19  C   UNL     1      -1.412  -0.526   0.013  0.00  0.00    -0.048 A 
ATOM     20  C   UNL     1      -2.049  -0.765   1.217  0.00  0.00    +0.004 A 
ATOM     21  C   UNL     1      -3.343  -1.243   1.234  0.00  0.00    +0.012 A 
ATOM     22  C   UNL     1      -4.009  -1.484   0.032  0.00  0.00    +0.017 A 
ATOM     23  C   UNL     1      -3.362  -1.241  -1.179  0.00  0.00    +0.012 A 
ATOM     24  C   UNL     1      -2.070  -0.758  -1.182  0.00  0.00    +0.004 A 
BRANCH  19  26
ATOM     25  C   UNL     1      -0.019   1.526   0.010  0.00  0.00    +0.009 C 
ATOM     26  C   UNL     1       0.002  -0.004   0.002  0.00  0.00    +0.032 C 
ENDBRANCH  19  26
ENDBRANCH  12  22
ENDBRANCH  11  14
ENDBRANCH  10  11
ENDBRANCH   1  10
BRANCH   6  27
ATOM     27  C   UNL     1     -12.915 -10.992   1.046  0.00  0.00    +0.132 C 
BRANCH  27  28
ATOM     28  C   UNL     1     -13.604 -10.441   2.268  0.00  0.00    +0.138 A 
ATOM     29  H   UNL     1     -14.041  -8.574   4.723  0.00  0.00    +0.191 HD
ATOM     30  N   UNL     1     -13.181  -9.453   2.989  0.00  0.00    -0.158 NA
ATOM     31  N   UNL     1     -14.100  -9.248   4.028  0.00  0.00    -0.254 N 
ATOM     32  C   UNL     1     -15.082 -10.161   3.882  0.00  0.00    +0.176 A 
ATOM     33  S   UNL     1     -16.454 -10.345   4.889  0.00  0.00    -0.011 S 
ATOM     34  N   UNL     1     -14.787 -10.900   2.793  0.00  0.00    -0.303 N 
BRANCH  34  35
ATOM     35  C   UNL     1     -15.589 -12.006   2.264  0.00  0.00    +0.152 C 
BRANCH  35  36
ATOM     36  C   UNL     1     -15.145 -13.298   2.900  0.00  0.00    -0.013 C 
ATOM     37  C   UNL     1     -16.018 -14.060   3.512  0.00  0.00    +0.005 C 
ENDBRANCH  35  36
ENDBRANCH  34  35
ENDBRANCH  27  28
ENDBRANCH   6  27
TORSDOF 9
