REMARK  Name = ZINC36590305
REMARK  17 active torsions:
REMARK  status: ('A' for Active; 'I' for Inactive)
REMARK    1  A    between atoms: C_1  and  C_2
REMARK    2  A    between atoms: C_2  and  C_3
REMARK    3  A    between atoms: C_2  and  C_4
REMARK    4  A    between atoms: C_2  and  N_5
REMARK    5  A    between atoms: C_6  and  C_8
REMARK    6  A    between atoms: C_8  and  C_10
REMARK    7  A    between atoms: C_8  and  N_19
REMARK    8  A    between atoms: C_11  and  O_18
REMARK    9  A    between atoms: C_13  and  O_17
REMARK   10  A    between atoms: C_15  and  O_16
REMARK   11  A    between atoms: N_19  and  C_35
REMARK   12  A    between atoms: C_20  and  C_22
REMARK   13  A    between atoms: C_22  and  C_23
REMARK   14  A    between atoms: C_22  and  C_29
REMARK   15  A    between atoms: C_35  and  C_36
REMARK   16  A    between atoms: C_35  and  C_37
REMARK   17  A    between atoms: C_35  and  C_38
REMARK                            x       y       z     vdW  Elec       q    Type
REMARK                         _______ _______ _______ _____ _____    ______ ____
ROOT
ATOM      1  C   UNL     1       3.039  -1.000  -3.634  0.00  0.00    +0.200 C 
ENDROOT
BRANCH   1   2
ATOM      2  C   UNL     1       2.223  -0.436  -4.768  0.00  0.00    +0.065 A 
ATOM      3  C   UNL     1       2.795  -0.272  -6.021  0.00  0.00    +0.129 A 
ATOM      4  C   UNL     1       2.044   0.247  -7.064  0.00  0.00    +0.091 A 
ATOM      5  C   UNL     1       0.720   0.603  -6.855  0.00  0.00    +0.124 A 
ATOM      6  C   UNL     1       0.147   0.439  -5.603  0.00  0.00    +0.091 A 
ATOM      7  C   UNL     1       0.897  -0.085  -4.560  0.00  0.00    +0.129 A 
BRANCH   7   8
ATOM      8  O   UNL     1       0.335  -0.250  -3.334  0.00  0.00    -0.506 OA
ATOM      9  H   UNL     1       0.424   0.519  -2.754  0.00  0.00    +0.292 HD
ENDBRANCH   7   8
BRANCH   5  10
ATOM     10  O   UNL     1      -0.016   1.113  -7.877  0.00  0.00    -0.507 OA
ATOM     11  H   UNL     1      -0.484   0.445  -8.396  0.00  0.00    +0.292 HD
ENDBRANCH   5  10
BRANCH   3  12
ATOM     12  O   UNL     1       4.093  -0.621  -6.225  0.00  0.00    -0.506 OA
ATOM     13  H   UNL     1       4.218  -1.553  -6.452  0.00  0.00    +0.292 HD
ENDBRANCH   3  12
ENDBRANCH   1   2
BRANCH   1  15
ATOM     14  N   UNL     1       3.685  -3.261  -4.402  0.00  0.00    -0.309 N 
ATOM     15  C   UNL     1       4.045  -1.982  -4.179  0.00  0.00    +0.239 C 
ATOM     16  O   UNL     1       5.178  -1.620  -4.418  0.00  0.00    -0.273 OA
ATOM     17  H   UNL     1       2.780  -3.551  -4.211  0.00  0.00    +0.149 HD
BRANCH  14  19
ATOM     18  C   UNL     1       5.844  -4.326  -3.965  0.00  0.00    +0.031 C 
ATOM     19  C   UNL     1       4.663  -4.215  -4.932  0.00  0.00    +0.026 C 
ATOM     20  C   UNL     1       5.163  -3.729  -6.294  0.00  0.00    +0.031 C 
ATOM     21  C   UNL     1       4.003  -5.586  -5.090  0.00  0.00    +0.031 C 
ENDBRANCH  14  19
ENDBRANCH   1  15
BRANCH   1  22
ATOM     22  N   UNL     1       3.741   0.088  -2.949  0.00  0.00    -0.280 N 
ATOM     23  C   UNL     1       3.761   1.322  -3.489  0.00  0.00    +0.229 C 
ATOM     24  O   UNL     1       3.063   1.576  -4.447  0.00  0.00    -0.275 OA
BRANCH  22  25
ATOM     25  C   UNL     1       4.420  -0.166  -1.676  0.00  0.00    +0.030 C 
ATOM     26  C   UNL     1       4.720  -1.661  -1.547  0.00  0.00    +0.031 C 
ATOM     27  C   UNL     1       5.731   0.622  -1.631  0.00  0.00    +0.031 C 
ATOM     28  C   UNL     1       3.520   0.275  -0.520  0.00  0.00    +0.031 C 
ENDBRANCH  22  25
BRANCH  23  29
ATOM     29  C   UNL     1       4.652   2.387  -2.901  0.00  0.00    +0.135 C 
BRANCH  29  30
ATOM     30  C   UNL     1       4.751   3.545  -3.861  0.00  0.00    -0.031 A 
ATOM     31  C   UNL     1       3.627   4.290  -4.164  0.00  0.00    +0.005 A 
ATOM     32  C   UNL     1       3.718   5.352  -5.045  0.00  0.00    +0.000 A 
ATOM     33  C   UNL     1       4.933   5.668  -5.622  0.00  0.00    +0.000 A 
ATOM     34  C   UNL     1       6.057   4.924  -5.319  0.00  0.00    +0.000 A 
ATOM     35  C   UNL     1       5.967   3.865  -4.435  0.00  0.00    +0.005 A 
ENDBRANCH  29  30
BRANCH  29  36
ATOM     36  C   UNL     1       4.069   2.865  -1.596  0.00  0.00    -0.031 A 
ATOM     37  C   UNL     1       4.891   3.062  -0.503  0.00  0.00    +0.005 A 
ATOM     38  C   UNL     1       4.357   3.501   0.694  0.00  0.00    +0.000 A 
ATOM     39  C   UNL     1       3.000   3.743   0.797  0.00  0.00    +0.000 A 
ATOM     40  C   UNL     1       2.177   3.547  -0.296  0.00  0.00    +0.000 A 
ATOM     41  C   UNL     1       2.712   3.112  -1.494  0.00  0.00    +0.005 A 
ENDBRANCH  29  36
ENDBRANCH  23  29
ENDBRANCH   1  22
TORSDOF 11
