REMARK  Name = ZINC50561076
REMARK  5 active torsions:
REMARK  status: ('A' for Active; 'I' for Inactive)
REMARK    1  A    between atoms: C_6  and  C_11
REMARK    2  A    between atoms: C_11  and  N_12
REMARK    3  A    between atoms: C_13  and  C_15
REMARK    4  A    between atoms: N_17  and  N_18
REMARK    5  A    between atoms: N_18  and  C_19
REMARK                            x       y       z     vdW  Elec       q    Type
REMARK                         _______ _______ _______ _____ _____    ______ ____
ROOT
ATOM      1  N   UNL     1       5.450  -2.942   1.315  0.00  0.00    -0.303 N 
ATOM      2  C   UNL     1       6.614  -3.580   1.547  0.00  0.00    +0.301 C 
ATOM      3  O   UNL     1       7.296  -3.955   0.616  0.00  0.00    -0.265 OA
ATOM      4  H   UNL     1       4.904  -2.643   2.060  0.00  0.00    +0.149 HD
ENDROOT
BRANCH   2   5
ATOM      5  C   UNL     1       7.065  -3.827   2.950  0.00  0.00    +0.315 C 
ATOM      6  O   UNL     1       6.383  -3.452   3.881  0.00  0.00    -0.264 OA
ATOM      7  N   UNL     1       8.229  -4.465   3.182  0.00  0.00    -0.229 N 
ATOM      8  H   UNL     1       8.775  -4.764   2.438  0.00  0.00    +0.173 HD
BRANCH   7   9
ATOM      9  N   UNL     1       8.652  -4.696   4.497  0.00  0.00    -0.263 N 
ATOM     10  H   UNL     1       8.107  -4.397   5.242  0.00  0.00    +0.170 HD
BRANCH   9  11
ATOM     11  C   UNL     1       9.860  -5.358   4.737  0.00  0.00    +0.063 A 
ATOM     12  C   UNL     1      10.645  -5.782   3.673  0.00  0.00    +0.027 A 
ATOM     13  C   UNL     1      11.837  -6.436   3.913  0.00  0.00    +0.022 A 
ATOM     14  C   UNL     1      12.251  -6.669   5.213  0.00  0.00    +0.042 A 
ATOM     15  C   UNL     1      11.472  -6.248   6.276  0.00  0.00    +0.042 A 
ATOM     16  C   UNL     1      10.281  -5.588   6.042  0.00  0.00    +0.065 A 
ATOM     17 CL   UNL     1       9.307  -5.053   7.376  0.00  0.00    -0.082 Cl
ATOM     18 CL   UNL     1      13.751  -7.492   5.510  0.00  0.00    -0.083 Cl
ENDBRANCH   9  11
ENDBRANCH   7   9
ENDBRANCH   2   5
BRANCH   1  19
ATOM     19  C   UNL     1       5.008  -2.700  -0.060  0.00  0.00    +0.140 C 
BRANCH  19  25
ATOM     20  C   UNL     1      -0.016   1.357   0.009  0.00  0.00    +0.001 A 
ATOM     21  C   UNL     1       1.169   2.091   0.002  0.00  0.00    +0.001 A 
ATOM     22  C   UNL     1       2.378   1.468  -0.013  0.00  0.00    +0.008 A 
ATOM     23  C   UNL     1       2.438   0.063  -0.021  0.00  0.00    -0.018 A 
ATOM     24  C   UNL     1       3.668  -0.615  -0.036  0.00  0.00    +0.013 A 
ATOM     25  C   UNL     1       3.687  -1.976  -0.043  0.00  0.00    -0.030 A 
ATOM     26  C   UNL     1       2.502  -2.710  -0.036  0.00  0.00    +0.006 A 
ATOM     27  C   UNL     1       1.292  -2.087  -0.021  0.00  0.00    +0.009 A 
ATOM     28  C   UNL     1       1.233  -0.683  -0.013  0.00  0.00    -0.018 A 
ATOM     29  C   UNL     1       0.002  -0.004   0.002  0.00  0.00    +0.008 A 
ENDBRANCH  19  25
ENDBRANCH   1  19
TORSDOF 5
