REMARK  Name = ZINC22009917
REMARK  9 active torsions:
REMARK  status: ('A' for Active; 'I' for Inactive)
REMARK    1  A    between atoms: C_1  and  C_2
REMARK    2  A    between atoms: C_2  and  C_3
REMARK    3  A    between atoms: C_3  and  C_4
REMARK    4  A    between atoms: C_4  and  C_5
REMARK    5  A    between atoms: C_5  and  C_7
REMARK    6  A    between atoms: C_5  and  N_23
REMARK    7  A    between atoms: N_9  and  C_10
REMARK    8  A    between atoms: N_13  and  C_16
REMARK    9  A    between atoms: C_16  and  C_17
REMARK                            x       y       z     vdW  Elec       q    Type
REMARK                         _______ _______ _______ _____ _____    ______ ____
ROOT
ATOM      1  C   UNL     1      -0.729   1.579   1.267  0.00  0.00    +0.158 C 
ENDROOT
BRANCH   1   2
ATOM      2  N   UNL     1      -2.062   0.977   1.338  0.00  0.00    -0.316 N 
ATOM      3  C   UNL     1      -3.118   1.558   0.670  0.00  0.00    +0.150 C 
ATOM      4  N   UNL     1      -2.939   2.637  -0.024  0.00  0.00    -0.113 NA
ATOM      5  S   UNL     1      -4.435   3.019  -0.669  0.00  0.00    +0.101 S 
ATOM      6  O   UNL     1      -4.876   4.223  -0.055  0.00  0.00    -0.146 OA
ATOM      7  O   UNL     1      -4.359   2.839  -2.076  0.00  0.00    -0.146 OA
ATOM      8  C   UNL     1      -5.401   1.690  -0.005  0.00  0.00    +0.123 A 
ATOM      9  C   UNL     1      -4.459   0.957   0.731  0.00  0.00    +0.043 A 
ATOM     10  C   UNL     1      -4.914  -0.186   1.405  0.00  0.00    +0.013 A 
ATOM     11  C   UNL     1      -6.237  -0.561   1.323  0.00  0.00    +0.001 A 
ATOM     12  C   UNL     1      -7.142   0.180   0.585  0.00  0.00    +0.002 A 
ATOM     13  C   UNL     1      -6.710   1.317  -0.084  0.00  0.00    +0.030 A 
ATOM     14  H   UNL     1      -2.221   0.060   1.925  0.00  0.00    +0.148 HD
ENDBRANCH   1   2
BRANCH   1  15
ATOM     15  C   UNL     1       0.067   1.185   2.485  0.00  0.00    +0.234 C 
ATOM     16  O   UNL     1      -0.431   0.470   3.329  0.00  0.00    -0.274 OA
ATOM     17  N   UNL     1       1.331   1.625   2.635  0.00  0.00    -0.311 N 
ATOM     18  H   UNL     1       1.783   2.273   1.870  0.00  0.00    +0.149 HD
BRANCH  17  19
ATOM     19  C   UNL     1       2.104   1.242   3.819  0.00  0.00    +0.069 C 
ATOM     20  C   UNL     1       1.795   2.207   4.967  0.00  0.00    +0.003 C 
ATOM     21  C   UNL     1       2.650   1.838   6.181  0.00  0.00    -0.077 C 
ATOM     22  N   UNL     1       4.072   1.916   5.822  0.00  0.00    +0.382 N 
ATOM     23  C   UNL     1       4.403   0.965   4.754  0.00  0.00    -0.077 C 
ATOM     24  C   UNL     1       3.600   1.307   3.497  0.00  0.00    +0.003 C 
ATOM     25  H   UNL     1       4.266   2.930   5.440  0.00  0.00    -0.081 HD
BRANCH  22  26
ATOM     26  C   UNL     1       4.925   1.704   6.999  0.00  0.00    -0.043 C 
BRANCH  26  27
ATOM     27  C   UNL     1       4.732   2.840   7.971  0.00  0.00    -0.064 A 
ATOM     28  C   UNL     1       5.532   3.964   7.888  0.00  0.00    +0.002 A 
ATOM     29  C   UNL     1       5.352   5.008   8.776  0.00  0.00    +0.000 A 
ATOM     30  C   UNL     1       4.378   4.923   9.754  0.00  0.00    +0.000 A 
ATOM     31  C   UNL     1       3.582   3.796   9.840  0.00  0.00    +0.000 A 
ATOM     32  C   UNL     1       3.759   2.755   8.948  0.00  0.00    +0.002 A 
ENDBRANCH  26  27
ENDBRANCH  22  26
ENDBRANCH  17  19
ENDBRANCH   1  15
BRANCH   1  33
ATOM     33  C   UNL     1      -0.013   1.086   0.008  0.00  0.00    +0.032 C 
BRANCH  33  34
ATOM     34  C   UNL     1      -0.753   1.593  -1.232  0.00  0.00    +0.002 C 
BRANCH  34  36
ATOM     35  C   UNL     1      -0.777   1.606  -3.730  0.00  0.00    +0.004 C 
ATOM     36  C   UNL     1      -0.037   1.099  -2.490  0.00  0.00    -0.003 C 
ENDBRANCH  34  36
ENDBRANCH  33  34
ENDBRANCH   1  33
TORSDOF 8
