REMARK  Name = ZINC35991380
REMARK  13 active torsions:
REMARK  status: ('A' for Active; 'I' for Inactive)
REMARK    1  A    between atoms: C_1  and  C_2
REMARK    2  A    between atoms: C_2  and  N_3
REMARK    3  A    between atoms: C_4  and  C_24
REMARK    4  A    between atoms: C_5  and  C_19
REMARK    5  A    between atoms: C_6  and  C_11
REMARK    6  A    between atoms: C_19  and  O_21
REMARK    7  A    between atoms: O_21  and  C_22
REMARK    8  A    between atoms: C_22  and  C_23
REMARK    9  A    between atoms: C_24  and  N_25
REMARK   10  A    between atoms: C_29  and  C_32
REMARK   11  A    between atoms: C_32  and  O_34
REMARK   12  A    between atoms: O_34  and  C_35
REMARK   13  A    between atoms: C_35  and  C_36
REMARK                            x       y       z     vdW  Elec       q    Type
REMARK                         _______ _______ _______ _____ _____    ______ ____
ROOT
ATOM      1  N   UNL     1      -1.451  -0.331   0.171  0.00  0.00    -0.258 N 
ATOM      2  C   UNL     1      -2.135  -0.598   1.323  0.00  0.00    +0.041 C 
ATOM      3  C   UNL     1      -3.364  -1.156   1.291  0.00  0.00    +0.080 C 
ATOM      4  C   UNL     1      -3.958  -1.476  -0.065  0.00  0.00    +0.145 C 
ATOM      5  N   UNL     1      -3.140  -1.149  -1.246  0.00  0.00    -0.288 N 
ATOM      6  C   UNL     1      -1.930  -0.588  -1.052  0.00  0.00    +0.307 C 
ATOM      7  O   UNL     1      -1.249  -0.311  -2.020  0.00  0.00    -0.252 OA
ATOM      8  H   UNL     1      -3.466  -1.330  -2.141  0.00  0.00    +0.151 HD
ENDROOT
BRANCH   4   9
ATOM      9  C   UNL     1      -4.260  -2.951  -0.104  0.00  0.00    -0.003 A 
ATOM     10  C   UNL     1      -3.321  -3.836  -0.602  0.00  0.00    +0.007 A 
ATOM     11  C   UNL     1      -3.597  -5.190  -0.638  0.00  0.00    +0.002 A 
ATOM     12  C   UNL     1      -4.813  -5.661  -0.177  0.00  0.00    +0.021 A 
ATOM     13  C   UNL     1      -5.753  -4.777   0.321  0.00  0.00    +0.060 A 
ATOM     14  C   UNL     1      -5.474  -3.422   0.362  0.00  0.00    +0.064 A 
ATOM     15 CL   UNL     1      -6.650  -2.312   0.994  0.00  0.00    -0.082 Cl
ATOM     16 CL   UNL     1      -7.279  -5.368   0.899  0.00  0.00    -0.082 Cl
ENDBRANCH   4   9
BRANCH   1  18
ATOM     17  C   UNL     1      -0.255   1.799   0.276  0.00  0.00    +0.025 C 
ATOM     18  C   UNL     1      -0.122   0.275   0.280  0.00  0.00    +0.111 C 
ENDBRANCH   1  18
BRANCH   3  19
ATOM     19  C   UNL     1      -4.072  -1.433   2.484  0.00  0.00    +0.339 C 
ATOM     20  O   UNL     1      -4.056  -2.555   2.954  0.00  0.00    -0.245 OA
BRANCH  19  21
ATOM     21  O   UNL     1      -4.766  -0.453   3.100  0.00  0.00    -0.462 OA
BRANCH  21  22
ATOM     22  C   UNL     1      -5.458  -0.804   4.300  0.00  0.00    +0.229 C 
ATOM     23  C   UNL     1      -6.182   0.426   4.850  0.00  0.00    +0.048 C 
ENDBRANCH  21  22
ENDBRANCH  19  21
ENDBRANCH   3  19
BRANCH   2  24
ATOM     24  C   UNL     1      -1.506  -0.264   2.652  0.00  0.00    +0.136 C 
BRANCH  24  25
ATOM     25  N   UNL     1      -0.335  -1.123   2.869  0.00  0.00    -0.296 NA
ATOM     26  C   UNL     1      -0.732  -2.530   3.008  0.00  0.00    +0.085 C 
ATOM     27  C   UNL     1       0.518  -3.409   3.087  0.00  0.00    +0.016 C 
ATOM     28  C   UNL     1       1.365  -2.977   4.287  0.00  0.00    +0.017 C 
ATOM     29  C   UNL     1       1.725  -1.496   4.142  0.00  0.00    +0.112 C 
ATOM     30  C   UNL     1       0.440  -0.672   4.033  0.00  0.00    +0.099 C 
BRANCH  29  31
ATOM     31  C   UNL     1       2.509  -1.048   5.348  0.00  0.00    +0.311 C 
ATOM     32  O   UNL     1       2.087  -0.159   6.048  0.00  0.00    -0.250 OA
BRANCH  31  33
ATOM     33  O   UNL     1       3.678  -1.638   5.645  0.00  0.00    -0.465 OA
BRANCH  33  34
ATOM     34  C   UNL     1       4.369  -1.163   6.803  0.00  0.00    +0.229 C 
ATOM     35  C   UNL     1       5.670  -1.949   6.979  0.00  0.00    +0.048 C 
ENDBRANCH  33  34
ENDBRANCH  31  33
ENDBRANCH  29  31
ENDBRANCH  24  25
ENDBRANCH   2  24
TORSDOF 10
