REMARK  Name = ZINC33937275
REMARK  12 active torsions:
REMARK  status: ('A' for Active; 'I' for Inactive)
REMARK    1  A    between atoms: C_1  and  C_2
REMARK    2  A    between atoms: C_2  and  C_3
REMARK    3  A    between atoms: C_3  and  C_4
REMARK    4  A    between atoms: C_4  and  C_6
REMARK    5  A    between atoms: C_4  and  N_18
REMARK    6  A    between atoms: N_10  and  C_11
REMARK    7  A    between atoms: C_11  and  C_12
REMARK    8  A    between atoms: N_18  and  C_19
REMARK    9  A    between atoms: N_18  and  C_34
REMARK   10  A    between atoms: C_19  and  C_20
REMARK   11  A    between atoms: C_24  and  C_33
REMARK   12  A    between atoms: C_25  and  C_32
REMARK                            x       y       z     vdW  Elec       q    Type
REMARK                         _______ _______ _______ _____ _____    ______ ____
ROOT
ATOM      1  N   UNL     1      -0.848  -2.706  -1.415  0.00  0.00    +0.391 N 
ATOM      2  H   UNL     1      -1.425  -2.217  -2.083  0.00  0.00    -0.080 HD
ENDROOT
BRANCH   1   3
ATOM      3  C   UNL     1       0.568  -2.469  -1.726  0.00  0.00    -0.067 C 
ATOM      4  C   UNL     1       1.442  -3.307  -0.790  0.00  0.00    -0.015 C 
ATOM      5  C   UNL     1       2.917  -3.060  -1.113  0.00  0.00    -0.002 C 
ATOM      6  C   UNL     1       3.240  -1.577  -0.921  0.00  0.00    -0.000 C 
ATOM      7  C   UNL     1       2.366  -0.739  -1.857  0.00  0.00    -0.002 C 
ATOM      8  C   UNL     1       0.891  -0.986  -1.534  0.00  0.00    -0.015 C 
ENDBRANCH   1   3
BRANCH   1   9
ATOM      9  C   UNL     1      -1.142  -2.215  -0.062  0.00  0.00    +0.003 C 
BRANCH   9  10
ATOM     10  C   UNL     1      -0.491  -3.119   0.953  0.00  0.00    +0.138 A 
ATOM     11  N   UNL     1      -0.490  -4.430   0.946  0.00  0.00    -0.115 NA
ATOM     12  N   UNL     1       0.170  -4.832   1.977  0.00  0.00    -0.023 NA
ATOM     13  N   UNL     1       0.591  -3.812   2.641  0.00  0.00    -0.044 NA
ATOM     14  N   UNL     1       0.208  -2.738   2.038  0.00  0.00    -0.228 N 
BRANCH  14  15
ATOM     15  C   UNL     1       0.479  -1.361   2.458  0.00  0.00    +0.178 C 
BRANCH  15  16
ATOM     16  C   UNL     1      -0.639  -0.880   3.385  0.00  0.00    +0.140 C 
ATOM     17  C   UNL     1      -0.326   0.542   3.913  0.00  0.00    +0.035 C 
ATOM     18  C   UNL     1      -1.755   1.058   4.236  0.00  0.00    +0.031 C 
ATOM     19  C   UNL     1      -2.602   0.387   3.134  0.00  0.00    +0.160 C 
ATOM     20  O   UNL     1      -1.869  -0.749   2.655  0.00  0.00    -0.375 OA
ENDBRANCH  15  16
ENDBRANCH  14  15
ENDBRANCH   9  10
BRANCH   9  21
ATOM     21  C   UNL     1      -2.656  -2.206   0.160  0.00  0.00    -0.008 C 
BRANCH  21  23
ATOM     22  C   UNL     1      -4.829  -1.295  -0.669  0.00  0.00    +0.004 C 
ATOM     23  C   UNL     1      -3.308  -1.223  -0.814  0.00  0.00    -0.005 C 
ENDBRANCH  21  23
ENDBRANCH   9  21
ENDBRANCH   1   9
BRANCH   1  24
ATOM     24  C   UNL     1      -1.131  -4.146  -1.486  0.00  0.00    -0.036 C 
BRANCH  24  25
ATOM     25  C   UNL     1      -1.023  -4.610  -2.916  0.00  0.00    +0.001 A 
ATOM     26  C   UNL     1       0.126  -5.179  -3.357  0.00  0.00    +0.017 A 
ATOM     27  C   UNL     1       0.198  -5.619  -4.751  0.00  0.00    -0.001 A 
ATOM     28  C   UNL     1       1.356  -6.213  -5.263  0.00  0.00    +0.013 A 
ATOM     29  C   UNL     1       1.391  -6.613  -6.569  0.00  0.00    -0.047 A 
ATOM     30  C   UNL     1       0.288  -6.435  -7.392  0.00  0.00    -0.046 A 
ATOM     31  C   UNL     1      -0.863  -5.852  -6.909  0.00  0.00    +0.030 A 
ATOM     32  C   UNL     1      -0.923  -5.437  -5.583  0.00  0.00    +0.049 A 
ATOM     33  N   UNL     1      -2.062  -4.852  -5.073  0.00  0.00    -0.322 N 
ATOM     34  H   UNL     1      -2.834  -4.727  -5.647  0.00  0.00    +0.169 HD
ATOM     35  C   UNL     1      -2.121  -4.456  -3.789  0.00  0.00    +0.251 A 
ATOM     36  O   UNL     1      -3.146  -3.946  -3.371  0.00  0.00    -0.268 OA
ATOM     37  C   UNL     1       0.350  -6.884  -8.829  0.00  0.00    +0.044 C 
ATOM     38  C   UNL     1       2.639  -7.253  -7.120  0.00  0.00    +0.044 C 
ENDBRANCH  24  25
ENDBRANCH   1  24
TORSDOF 9
