REMARK  Name = ZINC66391824
REMARK  7 active torsions:
REMARK  status: ('A' for Active; 'I' for Inactive)
REMARK    1  A    between atoms: C_1  and  C_2
REMARK    2  A    between atoms: C_2  and  C_4
REMARK    3  A    between atoms: C_2  and  N_11
REMARK    4  A    between atoms: N_9  and  C_10
REMARK    5  A    between atoms: N_11  and  C_12
REMARK    6  A    between atoms: C_12  and  C_13
REMARK    7  A    between atoms: C_13  and  C_18
REMARK                            x       y       z     vdW  Elec       q    Type
REMARK                         _______ _______ _______ _____ _____    ______ ____
ROOT
ATOM      1  N   UNL     1       2.749  -0.655  -0.084  0.00  0.00    +0.387 N 
ATOM      2  H   UNL     1       2.627  -1.655  -0.134  0.00  0.00    -0.085 HD
ATOM      3  H   UNL     1       3.733  -0.437  -0.040  0.00  0.00    -0.085 HD
ENDROOT
BRANCH   1   5
ATOM      4  C   UNL     1       0.700  -0.460  -1.411  0.00  0.00    -0.004 C 
ATOM      5  C   UNL     1       2.162  -0.030  -1.276  0.00  0.00    +0.013 C 
BRANCH   5   6
ATOM      6  C   UNL     1       2.928  -0.464  -2.499  0.00  0.00    +0.206 C 
ATOM      7  O   UNL     1       3.870  -1.219  -2.388  0.00  0.00    -0.277 OA
ATOM      8  N   UNL     1       2.566  -0.012  -3.717  0.00  0.00    -0.242 N 
ATOM      9  C   UNL     1       3.251  -0.401  -4.811  0.00  0.00    +0.306 C 
ATOM     10  O   UNL     1       4.195  -1.158  -4.699  0.00  0.00    -0.252 OA
ATOM     11  N   UNL     1       2.889   0.051  -6.028  0.00  0.00    -0.302 N 
ATOM     12  C   UNL     1       3.634  -0.371  -7.217  0.00  0.00    +0.129 C 
ATOM     13  H   UNL     1       1.813   0.592  -3.805  0.00  0.00    +0.159 HD
ATOM     14  H   UNL     1       2.136   0.655  -6.117  0.00  0.00    +0.150 HD
ENDBRANCH   5   6
ENDBRANCH   1   5
BRANCH   1  15
ATOM     15  C   UNL     1       2.080  -0.140   1.119  0.00  0.00    -0.070 C 
BRANCH  15  16
ATOM     16  C   UNL     1       2.780  -0.685   2.365  0.00  0.00    -0.019 C 
ATOM     17  C   UNL     1       2.824  -2.226   2.315  0.00  0.00    +0.010 C 
ATOM     18  C   UNL     1       4.218  -2.547   1.722  0.00  0.00    +0.001 C 
ATOM     19  C   UNL     1       5.122  -1.471   2.372  0.00  0.00    +0.001 C 
ATOM     20  C   UNL     1       4.242  -0.205   2.401  0.00  0.00    +0.010 C 
BRANCH  16  21
ATOM     21  C   UNL     1       2.056  -0.228   3.605  0.00  0.00    -0.043 A 
ATOM     22  C   UNL     1       0.902   0.525   3.493  0.00  0.00    +0.005 A 
ATOM     23  C   UNL     1       0.237   0.945   4.630  0.00  0.00    +0.020 A 
ATOM     24  C   UNL     1       0.726   0.610   5.880  0.00  0.00    +0.041 A 
ATOM     25  C   UNL     1       1.881  -0.144   5.991  0.00  0.00    +0.020 A 
ATOM     26  C   UNL     1       2.542  -0.568   4.854  0.00  0.00    +0.005 A 
ATOM     27 CL   UNL     1      -0.108   1.137   7.308  0.00  0.00    -0.084 Cl
ENDBRANCH  16  21
ENDBRANCH  15  16
ENDBRANCH   1  15
TORSDOF 5
