REMARK  Name = ZINC01792460
REMARK  6 active torsions:
REMARK  status: ('A' for Active; 'I' for Inactive)
REMARK    1  A    between atoms: C_3  and  C_8
REMARK    2  A    between atoms: N_12  and  C_16
REMARK    3  A    between atoms: C_16  and  C_17
REMARK    4  A    between atoms: C_17  and  C_18
REMARK    5  A    between atoms: N_20  and  C_21
REMARK    6  A    between atoms: C_23  and  N_27
REMARK                            x       y       z     vdW  Elec       q    Type
REMARK                         _______ _______ _______ _____ _____    ______ ____
ROOT
ATOM      1  C   UNL     1      -1.103  -0.749   0.919  0.00  0.00    +0.124 C 
ENDROOT
BRANCH   1   6
ATOM      2  C   UNL     1       1.638   3.285   0.006  0.00  0.00    +0.028 C 
ATOM      3  C   UNL     1       1.361   1.962   0.126  0.00  0.00    +0.077 C 
ATOM      4  C   UNL     1       0.099   1.295   0.510  0.00  0.00    +0.258 C 
ATOM      5  O   UNL     1      -0.905   1.928   0.775  0.00  0.00    -0.269 OA
ATOM      6  N   UNL     1       0.116  -0.027   0.546  0.00  0.00    -0.255 N 
ATOM      7  C   UNL     1       1.230  -0.726   0.246  0.00  0.00    +0.121 C 
ATOM      8  S   UNL     1       1.449  -2.424   0.234  0.00  0.00    -0.027 S 
ATOM      9  S   UNL     1       2.422   0.548  -0.136  0.00  0.00    -0.061 S 
BRANCH   2  12
ATOM     10  C   UNL     1      -1.687   4.962  -0.437  0.00  0.00    +0.002 A 
ATOM     11  C   UNL     1      -0.674   4.031  -0.530  0.00  0.00    +0.008 A 
ATOM     12  C   UNL     1       0.554   4.274   0.097  0.00  0.00    -0.023 A 
ATOM     13  C   UNL     1       0.746   5.465   0.805  0.00  0.00    +0.023 A 
ATOM     14  C   UNL     1      -0.276   6.388   0.885  0.00  0.00    +0.018 A 
ATOM     15  C   UNL     1      -1.490   6.137   0.266  0.00  0.00    +0.015 A 
ATOM     16 BR   UNL     1      -0.020   7.998   1.842  0.00  0.00    -0.050 Br
ENDBRANCH   2  12
ENDBRANCH   1   6
BRANCH   1  17
ATOM     17  C   UNL     1      -1.926  -1.043  -0.337  0.00  0.00    +0.115 C 
BRANCH  17  18
ATOM     18  C   UNL     1      -3.180  -1.786   0.047  0.00  0.00    +0.219 C 
ATOM     19  O   UNL     1      -3.394  -2.054   1.211  0.00  0.00    -0.275 OA
ATOM     20  N   UNL     1      -4.063  -2.152  -0.902  0.00  0.00    -0.282 N 
ATOM     21  H   UNL     1      -3.926  -1.880  -1.823  0.00  0.00    +0.155 HD
BRANCH  20  22
ATOM     22  C   UNL     1      -5.179  -2.928  -0.559  0.00  0.00    +0.083 A 
ATOM     23  C   UNL     1      -5.787  -2.763   0.677  0.00  0.00    +0.060 A 
ATOM     24  C   UNL     1      -6.890  -3.525   1.011  0.00  0.00    +0.128 A 
ATOM     25  C   UNL     1      -7.384  -4.460   0.120  0.00  0.00    +0.036 A 
ATOM     26  C   UNL     1      -6.781  -4.633  -1.112  0.00  0.00    +0.055 A 
ATOM     27  C   UNL     1      -5.677  -3.870  -1.456  0.00  0.00    +0.200 A 
ATOM     28  O   UNL     1      -5.082  -4.039  -2.667  0.00  0.00    -0.286 OA
BRANCH  24  29
ATOM     29  N   UNL     1      -7.541  -3.344   2.328  0.00  0.00    +0.056 N 
ATOM     30  O   UNL     1      -8.511  -4.019   2.626  0.00  0.00    -0.126 OA
ATOM     31  O   UNL     1      -7.107  -2.521   3.114  0.00  0.00    -0.126 OA
ENDBRANCH  24  29
ENDBRANCH  20  22
ENDBRANCH  17  18
ENDBRANCH   1  17
TORSDOF 6
