REMARK  Name = ZINC05125837
REMARK  6 active torsions:
REMARK  status: ('A' for Active; 'I' for Inactive)
REMARK    1  A    between atoms: C_1  and  S_2
REMARK    2  A    between atoms: S_2  and  C_3
REMARK    3  A    between atoms: C_6  and  C_9
REMARK    4  A    between atoms: N_10  and  N_11
REMARK    5  A    between atoms: C_12  and  C_14
REMARK    6  A    between atoms: C_16  and  C_20
REMARK                            x       y       z     vdW  Elec       q    Type
REMARK                         _______ _______ _______ _____ _____    ______ ____
ROOT
ATOM      1  C   UNL     1       6.980   4.564  -0.101  0.00  0.00    +0.122 A 
ATOM      2  C   UNL     1       6.124   3.480  -0.140  0.00  0.00    +0.062 A 
ATOM      3  C   UNL     1       4.831   4.024  -0.025  0.00  0.00    +0.093 A 
ATOM      4  N   UNL     1       4.957   5.331   0.067  0.00  0.00    -0.173 NA
ATOM      5  N   UNL     1       6.194   5.674   0.031  0.00  0.00    -0.272 N 
ATOM      6  H   UNL     1       6.531   6.613   0.091  0.00  0.00    +0.189 HD
ENDROOT
BRANCH   3   7
ATOM      7  C   UNL     1       3.558   3.262  -0.016  0.00  0.00    +0.003 A 
ATOM      8  C   UNL     1       3.586   1.858  -0.023  0.00  0.00    +0.011 A 
ATOM      9  C   UNL     1       2.435   1.138  -0.015  0.00  0.00    +0.009 A 
ATOM     10  C   UNL     1       1.193   1.798   0.000  0.00  0.00    -0.018 A 
ATOM     11  C   UNL     1      -0.013   1.076   0.008  0.00  0.00    +0.008 A 
ATOM     12  C   UNL     1      -1.199   1.743   0.017  0.00  0.00    +0.001 A 
ATOM     13  C   UNL     1      -1.238   3.136   0.030  0.00  0.00    +0.001 A 
ATOM     14  C   UNL     1      -0.092   3.870   0.023  0.00  0.00    +0.008 A 
ATOM     15  C   UNL     1       1.153   3.215   0.008  0.00  0.00    -0.017 A 
ATOM     16  C   UNL     1       2.354   3.941  -0.001  0.00  0.00    +0.018 A 
ENDBRANCH   3   7
BRANCH   1  18
ATOM     17  N   UNL     1       9.154   5.678  -0.132  0.00  0.00    -0.202 N 
ATOM     18  C   UNL     1       8.449   4.530  -0.184  0.00  0.00    +0.281 C 
ATOM     19  O   UNL     1       9.027   3.466  -0.301  0.00  0.00    -0.267 OA
ATOM     20  H   UNL     1       8.693   6.526  -0.039  0.00  0.00    +0.178 HD
BRANCH  17  22
ATOM     21  C   UNL     1      11.231   6.751  -0.161  0.00  0.00    +0.138 C 
ATOM     22  N   UNL     1      10.552   5.646  -0.212  0.00  0.00    -0.187 NA
BRANCH  21  26
ATOM     23  C   UNL     1      15.468   6.653  -0.402  0.00  0.00    +0.008 A 
ATOM     24  C   UNL     1      14.809   7.871  -0.269  0.00  0.00    +0.015 A 
ATOM     25  C   UNL     1      13.434   7.907  -0.191  0.00  0.00    +0.010 A 
ATOM     26  C   UNL     1      12.702   6.717  -0.245  0.00  0.00    -0.005 A 
ATOM     27  C   UNL     1      13.368   5.495  -0.373  0.00  0.00    +0.010 A 
ATOM     28  C   UNL     1      14.742   5.467  -0.456  0.00  0.00    +0.015 A 
BRANCH  23  30
ATOM     29  C   UNL     1      17.617   4.848  -0.663  0.00  0.00    +0.090 C 
ATOM     30  S   UNL     1      17.227   6.612  -0.502  0.00  0.00    -0.129 S 
ENDBRANCH  23  30
ENDBRANCH  21  26
ENDBRANCH  17  22
ENDBRANCH   1  18
TORSDOF 5
