REMARK  Name = ZINC39389055
REMARK  13 active torsions:
REMARK  status: ('A' for Active; 'I' for Inactive)
REMARK    1  A    between atoms: C_1  and  C_2
REMARK    2  A    between atoms: C_2  and  O_3
REMARK    3  A    between atoms: O_3  and  C_4
REMARK    4  A    between atoms: C_9  and  N_10
REMARK    5  A    between atoms: C_11  and  C_13
REMARK    6  A    between atoms: C_17  and  N_18
REMARK    7  A    between atoms: C_19  and  C_21
REMARK    8  A    between atoms: C_21  and  O_22
REMARK    9  A    between atoms: O_22  and  C_23
REMARK   10  A    between atoms: C_30  and  C_34
REMARK   11  A    between atoms: C_34  and  C_35
REMARK   12  A    between atoms: C_34  and  C_36
REMARK   13  A    between atoms: C_34  and  C_37
REMARK                            x       y       z     vdW  Elec       q    Type
REMARK                         _______ _______ _______ _____ _____    ______ ____
ROOT
ATOM      1  C   UNL     1      -6.308  -1.220  -0.156  0.00  0.00    +0.069 A 
ATOM      2  C   UNL     1      -6.820  -0.778  -1.441  0.00  0.00    -0.023 A 
ATOM      3  C   UNL     1      -7.903   0.026  -1.358  0.00  0.00    -0.004 A 
ATOM      4  S   UNL     1      -8.216   0.177   0.376  0.00  0.00    -0.077 S 
ATOM      5  C   UNL     1      -6.976  -0.783   0.977  0.00  0.00    +0.085 A 
ATOM      6  C   UNL     1      -8.655   0.643  -2.496  0.00  0.00    +0.046 C 
ATOM      7  C   UNL     1      -7.790   0.534  -3.761  0.00  0.00    -0.000 C 
ATOM      8  C   UNL     1      -7.262  -0.898  -3.879  0.00  0.00    +0.009 C 
ATOM      9  C   UNL     1      -6.222  -1.161  -2.787  0.00  0.00    +0.037 C 
ENDROOT
BRANCH   1  11
ATOM     10  N   UNL     1      -3.902  -1.566   0.031  0.00  0.00    -0.278 N 
ATOM     11  C   UNL     1      -5.137  -2.098  -0.062  0.00  0.00    +0.251 C 
ATOM     12  O   UNL     1      -5.281  -3.307  -0.067  0.00  0.00    -0.270 OA
ATOM     13  H   UNL     1      -3.793  -0.606   0.116  0.00  0.00    +0.155 HD
BRANCH  10  19
ATOM     14  C   UNL     1      -1.584  -1.981   0.589  0.00  0.00    +0.142 A 
ATOM     15  C   UNL     1      -0.476  -2.812   0.564  0.00  0.00    +0.047 A 
ATOM     16  C   UNL     1      -0.554  -4.052  -0.043  0.00  0.00    +0.004 A 
ATOM     17  C   UNL     1      -1.736  -4.466  -0.629  0.00  0.00    +0.002 A 
ATOM     18  C   UNL     1      -2.846  -3.642  -0.609  0.00  0.00    +0.027 A 
ATOM     19  C   UNL     1      -2.777  -2.400   0.004  0.00  0.00    +0.076 A 
BRANCH  14  20
ATOM     20  O   UNL     1      -1.508  -0.762   1.186  0.00  0.00    -0.490 OA
BRANCH  20  22
ATOM     21  C   UNL     1      -0.360   0.995   2.384  0.00  0.00    +0.048 C 
ATOM     22  C   UNL     1      -0.253  -0.399   1.764  0.00  0.00    +0.226 C 
ENDBRANCH  20  22
ENDBRANCH  14  20
ENDBRANCH  10  19
ENDBRANCH   1  11
BRANCH   5  23
ATOM     23  N   UNL     1      -6.685  -1.070   2.302  0.00  0.00    -0.277 N 
ATOM     24  C   UNL     1      -7.448  -0.554   3.286  0.00  0.00    +0.255 C 
ATOM     25  O   UNL     1      -8.388   0.161   3.013  0.00  0.00    -0.272 OA
ATOM     26  H   UNL     1      -5.933  -1.641   2.520  0.00  0.00    +0.155 HD
BRANCH  24  27
ATOM     27  C   UNL     1      -7.131  -0.866   4.726  0.00  0.00    +0.324 C 
BRANCH  27  28
ATOM     28  O   UNL     1      -8.075  -0.208   5.574  0.00  0.00    -0.483 OA
BRANCH  28  29
ATOM     29  C   UNL     1      -7.930  -0.387   6.914  0.00  0.00    +0.121 A 
ATOM     30  C   UNL     1      -6.898  -1.174   7.402  0.00  0.00    +0.045 A 
ATOM     31  C   UNL     1      -6.753  -1.354   8.764  0.00  0.00    +0.004 A 
ATOM     32  C   UNL     1      -7.635  -0.750   9.640  0.00  0.00    +0.000 A 
ATOM     33  C   UNL     1      -8.665   0.035   9.156  0.00  0.00    +0.004 A 
ATOM     34  C   UNL     1      -8.811   0.223   7.795  0.00  0.00    +0.045 A 
ENDBRANCH  28  29
ENDBRANCH  27  28
ENDBRANCH  24  27
ENDBRANCH   5  23
BRANCH   7  35
ATOM     35  C   UNL     1      -8.636   0.874  -4.990  0.00  0.00    -0.035 C 
ATOM     36  C   UNL     1      -9.172   2.301  -4.861  0.00  0.00    +0.011 C 
ATOM     37  C   UNL     1      -7.772   0.765  -6.248  0.00  0.00    +0.011 C 
ATOM     38  C   UNL     1      -9.807  -0.104  -5.090  0.00  0.00    +0.011 C 
ENDBRANCH   7  35
TORSDOF 9
