REMARK  Name = ZINC34786600
REMARK  7 active torsions:
REMARK  status: ('A' for Active; 'I' for Inactive)
REMARK    1  A    between atoms: C_1  and  C_2
REMARK    2  A    between atoms: C_5  and  N_8
REMARK    3  A    between atoms: N_8  and  N_9
REMARK    4  A    between atoms: N_9  and  N_30
REMARK    5  A    between atoms: C_20  and  C_25
REMARK    6  A    between atoms: C_22  and  C_24
REMARK    7  A    between atoms: N_30  and  C_31
REMARK                            x       y       z     vdW  Elec       q    Type
REMARK                         _______ _______ _______ _____ _____    ______ ____
ROOT
ATOM      1  N   UNL     1       0.083  -4.821   1.429  0.00  0.00    -0.166 N 
ATOM      2  C   UNL     1      -0.898  -5.221   2.318  0.00  0.00    +0.167 A 
ATOM      3  C   UNL     1      -1.817  -6.248   1.963  0.00  0.00    +0.054 A 
ATOM      4  C   UNL     1      -1.901  -7.009   0.714  0.00  0.00    -0.025 A 
ATOM      5  C   UNL     1      -2.875  -7.938   0.629  0.00  0.00    -0.004 A 
ATOM      6  S   UNL     1      -3.726  -7.860   2.182  0.00  0.00    -0.073 S 
ATOM      7  C   UNL     1      -2.772  -6.574   2.946  0.00  0.00    +0.116 A 
ATOM      8  N   UNL     1      -2.801  -5.960   4.112  0.00  0.00    -0.203 NA
ATOM      9  C   UNL     1      -1.921  -5.010   4.388  0.00  0.00    +0.254 A 
ATOM     10  N   UNL     1      -0.991  -4.657   3.511  0.00  0.00    -0.192 NA
ATOM     11  N   UNL     1      -1.970  -4.371   5.627  0.00  0.00    -0.202 N 
ATOM     12  C   UNL     1      -2.853  -4.629   6.627  0.00  0.00    +0.045 A 
ATOM     13  C   UNL     1      -2.564  -3.798   7.654  0.00  0.00    +0.048 A 
ATOM     14  C   UNL     1      -1.472  -3.007   7.275  0.00  0.00    +0.061 A 
ATOM     15  N   UNL     1      -1.112  -3.353   6.066  0.00  0.00    -0.169 NA
ATOM     16  C   UNL     1      -0.819  -1.943   8.118  0.00  0.00    +0.067 C 
ATOM     17  C   UNL     1      -3.957  -5.655   6.597  0.00  0.00    +0.066 C 
ATOM     18  C   UNL     1      -3.170  -8.839  -0.531  0.00  0.00    +0.043 C 
ATOM     19  C   UNL     1      -2.434  -8.298  -1.765  0.00  0.00    +0.005 C 
ATOM     20  C   UNL     1      -0.985  -7.991  -1.376  0.00  0.00    +0.005 C 
ATOM     21  C   UNL     1      -0.942  -6.776  -0.449  0.00  0.00    +0.037 C 
ENDROOT
BRANCH   1  22
ATOM     22  N   UNL     1      -0.275  -4.286   0.185  0.00  0.00    -0.249 N 
ATOM     23  H   UNL     1      -0.144  -4.808  -0.623  0.00  0.00    +0.172 HD
BRANCH  22  28
ATOM     24  C   UNL     1      -2.489   0.925  -0.131  0.00  0.00    +0.044 C 
ATOM     25  C   UNL     1      -1.901  -0.460  -0.047  0.00  0.00    -0.050 A 
ATOM     26  C   UNL     1      -1.681  -1.188  -1.203  0.00  0.00    +0.005 A 
ATOM     27  C   UNL     1      -1.142  -2.457  -1.129  0.00  0.00    +0.025 A 
ATOM     28  C   UNL     1      -0.820  -3.003   0.107  0.00  0.00    +0.046 A 
ATOM     29  C   UNL     1      -1.042  -2.269   1.265  0.00  0.00    +0.025 A 
ATOM     30  C   UNL     1      -1.576  -0.998   1.185  0.00  0.00    +0.005 A 
ENDBRANCH  22  28
ENDBRANCH   1  22
BRANCH   1  31
ATOM     31  N   UNL     1       1.401  -4.948   1.765  0.00  0.00    -0.218 NA
ATOM     32  H   UNL     1       1.542  -5.725   2.392  0.00  0.00    +0.146 HD
BRANCH  31  33
ATOM     33  C   UNL     1       1.918  -3.702   2.346  0.00  0.00    +0.075 C 
ATOM     34  C   UNL     1       2.583  -2.865   1.251  0.00  0.00    +0.020 C 
ATOM     35  C   UNL     1       3.122  -1.568   1.857  0.00  0.00    +0.002 C 
ATOM     36  C   UNL     1       4.150  -1.899   2.940  0.00  0.00    +0.000 C 
ATOM     37  C   UNL     1       3.486  -2.736   4.035  0.00  0.00    +0.002 C 
ATOM     38  C   UNL     1       2.947  -4.033   3.429  0.00  0.00    +0.020 C 
ENDBRANCH  31  33
ENDBRANCH   1  31
TORSDOF 4
