REMARK  Name = ZINC39711166
REMARK  10 active torsions:
REMARK  status: ('A' for Active; 'I' for Inactive)
REMARK    1  A    between atoms: C_1  and  C_2
REMARK    2  A    between atoms: C_4  and  C_42
REMARK    3  A    between atoms: C_7  and  C_14
REMARK    4  A    between atoms: C_14  and  C_16
REMARK    5  A    between atoms: C_14  and  N_27
REMARK    6  A    between atoms: N_21  and  C_22
REMARK    7  A    between atoms: N_27  and  C_28
REMARK    8  A    between atoms: N_27  and  C_36
REMARK    9  A    between atoms: C_28  and  C_29
REMARK   10  A    between atoms: C_36  and  C_37
REMARK                            x       y       z     vdW  Elec       q    Type
REMARK                         _______ _______ _______ _____ _____    ______ ____
ROOT
ATOM      1  C   UNL     1       1.836  -5.785   1.311  0.00  0.00    -0.010 C 
ENDROOT
BRANCH   1   8
ATOM      2  C   UNL     1       0.067  -1.574   7.256  0.00  0.00    +0.044 C 
ATOM      3  C   UNL     1       0.628  -2.128   5.972  0.00  0.00    -0.048 A 
ATOM      4  C   UNL     1       1.983  -1.939   5.697  0.00  0.00    +0.007 A 
ATOM      5  C   UNL     1       2.547  -2.414   4.557  0.00  0.00    -0.042 A 
ATOM      6  C   UNL     1       1.706  -3.139   3.603  0.00  0.00    -0.004 A 
ATOM      7  C   UNL     1       2.228  -3.635   2.446  0.00  0.00    -0.006 C 
ATOM      8  C   UNL     1       1.284  -4.373   1.517  0.00  0.00    +0.088 C 
ATOM      9  C   UNL     1      -0.160  -4.499   1.950  0.00  0.00    +0.223 C 
ATOM     10  O   UNL     1      -0.961  -5.081   1.243  0.00  0.00    -0.275 OA
ATOM     11  N   UNL     1      -0.548  -3.974   3.100  0.00  0.00    -0.285 N 
ATOM     12  C   UNL     1       0.279  -3.324   3.919  0.00  0.00    +0.041 A 
ATOM     13  C   UNL     1      -0.204  -2.796   5.131  0.00  0.00    +0.027 A 
ATOM     14  C   UNL     1       4.012  -2.199   4.278  0.00  0.00    +0.044 C 
ATOM     15  H   UNL     1      -1.478  -4.065   3.359  0.00  0.00    +0.155 HD
ENDBRANCH   1   8
BRANCH   1  16
ATOM     16  C   UNL     1       0.947  -6.540   0.321  0.00  0.00    +0.183 C 
ATOM     17  N   UNL     1       1.533  -7.853  -0.010  0.00  0.00    -0.229 N 
ATOM     18  N   UNL     1       1.781  -7.825  -1.388  0.00  0.00    -0.064 NA
ATOM     19  N   UNL     1       1.454  -6.761  -1.906  0.00  0.00    -0.061 NA
ATOM     20  N   UNL     1       0.914  -5.851  -0.983  0.00  0.00    -0.213 N 
ATOM     21  H   UNL     1       1.711  -8.585   0.601  0.00  0.00    +0.172 HD
BRANCH  20  22
ATOM     22  C   UNL     1       0.422  -4.499  -1.255  0.00  0.00    +0.096 C 
ATOM     23  C   UNL     1      -0.588  -4.528  -2.421  0.00  0.00    +0.024 C 
ATOM     24  C   UNL     1      -0.303  -3.222  -3.203  0.00  0.00    +0.002 C 
ATOM     25  C   UNL     1       1.240  -3.107  -3.125  0.00  0.00    +0.002 C 
ATOM     26  C   UNL     1       1.584  -3.595  -1.703  0.00  0.00    +0.024 C 
ENDBRANCH  20  22
ENDBRANCH   1  16
BRANCH   1  27
ATOM     27  N   UNL     1       1.853  -6.496   2.596  0.00  0.00    +0.392 N 
ATOM     28  H   UNL     1       1.977  -5.833   3.346  0.00  0.00    -0.080 HD
BRANCH  27  29
ATOM     29  C   UNL     1       0.581  -7.209   2.777  0.00  0.00    -0.042 C 
BRANCH  29  30
ATOM     30  C   UNL     1       0.549  -7.839   4.146  0.00  0.00    -0.064 A 
ATOM     31  C   UNL     1       1.034  -9.120   4.329  0.00  0.00    +0.004 A 
ATOM     32  C   UNL     1       1.006  -9.698   5.584  0.00  0.00    +0.038 A 
ATOM     33  C   UNL     1       0.492  -8.993   6.659  0.00  0.00    +0.123 A 
ATOM     34  C   UNL     1       0.006  -7.710   6.475  0.00  0.00    +0.038 A 
ATOM     35  C   UNL     1       0.041  -7.132   5.220  0.00  0.00    +0.004 A 
ATOM     36  F   UNL     1       0.463  -9.557   7.886  0.00  0.00    -0.205 F 
ENDBRANCH  29  30
ENDBRANCH  27  29
BRANCH  27  37
ATOM     37  C   UNL     1       2.961  -7.461   2.607  0.00  0.00    -0.002 C 
BRANCH  37  38
ATOM     38  C   UNL     1       4.272  -6.720   2.541  0.00  0.00    +0.089 A 
ATOM     39  C   UNL     1       5.009  -6.330   3.596  0.00  0.00    +0.042 A 
ATOM     40  C   UNL     1       6.150  -5.675   3.079  0.00  0.00    +0.041 A 
ATOM     41  C   UNL     1       6.042  -5.704   1.738  0.00  0.00    +0.195 A 
ATOM     42  O   UNL     1       4.905  -6.344   1.418  0.00  0.00    -0.470 OA
ENDBRANCH  37  38
ENDBRANCH  27  37
ENDBRANCH   1  27
TORSDOF 8
