REMARK  Name = ZINC54932380
REMARK  7 active torsions:
REMARK  status: ('A' for Active; 'I' for Inactive)
REMARK    1  A    between atoms: C_1  and  C_2
REMARK    2  A    between atoms: C_2  and  C_3
REMARK    3  A    between atoms: C_3  and  C_5
REMARK    4  A    between atoms: C_3  and  N_23
REMARK    5  A    between atoms: C_5  and  C_7
REMARK    6  A    between atoms: C_5  and  O_14
REMARK    7  A    between atoms: O_14  and  C_15
REMARK                            x       y       z     vdW  Elec       q    Type
REMARK                         _______ _______ _______ _____ _____    ______ ____
ROOT
ATOM      1  C   UNL     1       0.965  -2.014  -1.161  0.00  0.00    +0.190 C 
ENDROOT
BRANCH   1   2
ATOM      2  C   UNL     1       1.861  -2.662  -2.185  0.00  0.00    +0.005 A 
ATOM      3  C   UNL     1       1.309  -3.348  -3.251  0.00  0.00    +0.008 A 
ATOM      4  C   UNL     1       2.130  -3.943  -4.190  0.00  0.00    +0.000 A 
ATOM      5  C   UNL     1       3.504  -3.852  -4.065  0.00  0.00    +0.001 A 
ATOM      6  C   UNL     1       4.057  -3.166  -3.000  0.00  0.00    +0.015 A 
ATOM      7  C   UNL     1       3.235  -2.566  -2.062  0.00  0.00    +0.024 A 
ATOM      8 BR   UNL     1       3.990  -1.622  -0.608  0.00  0.00    -0.050 Br
ENDBRANCH   1   2
BRANCH   1   9
ATOM      9  C   UNL     1       0.749  -0.545  -1.530  0.00  0.00    -0.029 C 
BRANCH   9  10
ATOM     10  N   UNL     1       0.204  -0.457  -2.892  0.00  0.00    +0.383 N 
ATOM     11  H   UNL     1       0.061   0.512  -3.135  0.00  0.00    -0.089 HD
ATOM     12  H   UNL     1       0.853  -0.875  -3.542  0.00  0.00    -0.089 HD
ATOM     13  H   UNL     1      -0.677  -0.948  -2.934  0.00  0.00    -0.089 HD
ENDBRANCH   9  10
BRANCH   9  15
ATOM     14  C   UNL     1      -0.347   1.588  -0.829  0.00  0.00    +0.002 C 
ATOM     15  C   UNL     1      -0.235   0.089  -0.545  0.00  0.00    -0.016 C 
ENDBRANCH   9  15
ENDBRANCH   1   9
BRANCH   1  16
ATOM     16  O   UNL     1      -0.294  -2.688  -1.134  0.00  0.00    -0.486 OA
BRANCH  16  17
ATOM     17  C   UNL     1      -0.379  -3.805  -0.364  0.00  0.00    +0.127 A 
ATOM     18  C   UNL     1       0.747  -4.288   0.284  0.00  0.00    +0.084 A 
ATOM     19  C   UNL     1       0.659  -5.425   1.069  0.00  0.00    +0.130 A 
ATOM     20  C   UNL     1      -0.553  -6.080   1.205  0.00  0.00    +0.077 A 
ATOM     21  C   UNL     1      -1.678  -5.599   0.558  0.00  0.00    +0.130 A 
ATOM     22  C   UNL     1      -1.594  -4.459  -0.222  0.00  0.00    +0.084 A 
ATOM     23  F   UNL     1      -2.860  -6.239   0.692  0.00  0.00    -0.205 F 
ATOM     24  F   UNL     1       1.756  -5.896   1.701  0.00  0.00    -0.205 F 
ENDBRANCH  16  17
ENDBRANCH   1  16
TORSDOF 6
