REMARK  Name = ZINC64653807
REMARK  11 active torsions:
REMARK  status: ('A' for Active; 'I' for Inactive)
REMARK    1  A    between atoms: C_1  and  O_2
REMARK    2  A    between atoms: O_2  and  C_3
REMARK    3  A    between atoms: C_6  and  C_9
REMARK    4  A    between atoms: N_13  and  C_17
REMARK    5  A    between atoms: C_17  and  C_18
REMARK    6  A    between atoms: C_18  and  C_19
REMARK    7  A    between atoms: N_21  and  C_22
REMARK    8  A    between atoms: C_22  and  C_23
REMARK    9  A    between atoms: C_23  and  C_24
REMARK   10  A    between atoms: C_28  and  O_33
REMARK   11  A    between atoms: O_33  and  C_34
REMARK                            x       y       z     vdW  Elec       q    Type
REMARK                         _______ _______ _______ _____ _____    ______ ____
ROOT
ATOM      1  C   UNL     1       5.432  -7.105  -5.605  0.00  0.00    +0.115 C 
ENDROOT
BRANCH   1   2
ATOM      2  C   UNL     1       6.130  -8.035  -6.563  0.00  0.00    +0.215 C 
ATOM      3  O   UNL     1       5.529  -8.491  -7.513  0.00  0.00    -0.276 OA
ATOM      4  N   UNL     1       7.423  -8.361  -6.365  0.00  0.00    -0.315 N 
ATOM      5  H   UNL     1       7.904  -7.997  -5.605  0.00  0.00    +0.149 HD
BRANCH   4   6
ATOM      6  C   UNL     1       8.102  -9.265  -7.296  0.00  0.00    +0.108 C 
BRANCH   6   7
ATOM      7  C   UNL     1       9.550  -9.468  -6.845  0.00  0.00    +0.052 C 
BRANCH   7   8
ATOM      8  C   UNL     1      10.248 -10.399  -7.803  0.00  0.00    -0.040 C 
ATOM      9  C   UNL     1      11.012 -10.050  -8.862  0.00  0.00    -0.001 A 
ATOM     10  C   UNL     1      11.405  -8.748  -9.417  0.00  0.00    +0.013 A 
ATOM     11  C   UNL     1      12.196  -8.711 -10.511  0.00  0.00    +0.046 A 
ATOM     12  C   UNL     1      12.651  -9.890 -11.131  0.00  0.00    +0.122 A 
ATOM     13  C   UNL     1      12.329 -11.127 -10.675  0.00  0.00    +0.071 A 
ATOM     14  C   UNL     1      11.504 -11.275  -9.532  0.00  0.00    +0.046 A 
ATOM     15  N   UNL     1      11.059 -12.342  -8.908  0.00  0.00    -0.380 N 
ATOM     16  C   UNL     1      10.241 -11.910  -7.770  0.00  0.00    +0.144 C 
ATOM     17  H   UNL     1      11.244 -13.262  -9.157  0.00  0.00    +0.160 HD
BRANCH  12  18
ATOM     18  O   UNL     1      13.442  -9.786 -12.228  0.00  0.00    -0.495 OA
ATOM     19  C   UNL     1      13.758  -8.467 -12.677  0.00  0.00    +0.277 C 
ENDBRANCH  12  18
ENDBRANCH   7   8
ENDBRANCH   6   7
ENDBRANCH   4   6
ENDBRANCH   1   2
BRANCH   1  20
ATOM     20  C   UNL     1       3.984  -6.902  -6.056  0.00  0.00    +0.124 C 
BRANCH  20  25
ATOM     21  C   UNL     1       2.489  -2.488  -4.355  0.00  0.00    +0.028 C 
ATOM     22  C   UNL     1       2.628  -3.838  -4.378  0.00  0.00    +0.077 C 
ATOM     23  C   UNL     1       3.331  -4.696  -5.353  0.00  0.00    +0.258 C 
ATOM     24  O   UNL     1       3.906  -4.227  -6.318  0.00  0.00    -0.269 OA
ATOM     25  N   UNL     1       3.305  -5.998  -5.124  0.00  0.00    -0.255 N 
ATOM     26  C   UNL     1       2.667  -6.512  -4.053  0.00  0.00    +0.121 C 
ATOM     27  S   UNL     1       2.522  -8.154  -3.590  0.00  0.00    -0.027 S 
ATOM     28  S   UNL     1       2.016  -5.066  -3.232  0.00  0.00    -0.061 S 
BRANCH  21  32
ATOM     29  C   UNL     1       0.765  -0.591  -0.977  0.00  0.00    +0.120 A 
ATOM     30  C   UNL     1       1.068  -1.947  -0.930  0.00  0.00    +0.046 A 
ATOM     31  C   UNL     1       1.628  -2.568  -2.024  0.00  0.00    +0.011 A 
ATOM     32  C   UNL     1       1.891  -1.831  -3.185  0.00  0.00    -0.024 A 
ATOM     33  C   UNL     1       1.584  -0.466  -3.227  0.00  0.00    +0.011 A 
ATOM     34  C   UNL     1       1.020   0.144  -2.129  0.00  0.00    +0.046 A 
BRANCH  29  36
ATOM     35  C   UNL     1      -0.022  -0.798   1.256  0.00  0.00    +0.277 C 
ATOM     36  O   UNL     1       0.213   0.016   0.105  0.00  0.00    -0.495 OA
ENDBRANCH  29  36
ENDBRANCH  21  32
ENDBRANCH  20  25
ENDBRANCH   1  20
TORSDOF 9
