REMARK  Name = ZINC12856947
REMARK  6 active torsions:
REMARK  status: ('A' for Active; 'I' for Inactive)
REMARK    1  A    between atoms: C_1  and  C_2
REMARK    2  A    between atoms: C_2  and  C_19
REMARK    3  A    between atoms: C_11  and  C_14
REMARK    4  A    between atoms: C_22  and  C_25
REMARK    5  A    between atoms: C_25  and  N_26
REMARK    6  A    between atoms: C_30  and  C_33
REMARK                            x       y       z     vdW  Elec       q    Type
REMARK                         _______ _______ _______ _____ _____    ______ ____
ROOT
ATOM      1  C   UNL     1       0.257   1.399  -0.118  0.00  0.00    +0.057 C 
ATOM      2  C   UNL     1       0.025  -0.112  -0.063  0.00  0.00    +0.142 C 
ATOM      3  N   UNL     1      -1.393  -0.406   0.198  0.00  0.00    -0.274 N 
ATOM      4  C   UNL     1      -1.444  -1.080   1.362  0.00  0.00    +0.324 C 
ATOM      5  O   UNL     1      -2.471  -1.480   1.875  0.00  0.00    -0.251 OA
ATOM      6  N   UNL     1      -0.223  -1.257   1.885  0.00  0.00    -0.167 N 
ATOM      7  N   UNL     1       0.737  -0.702   1.089  0.00  0.00    -0.202 NA
ATOM      8  C   UNL     1       0.033  -1.920   3.084  0.00  0.00    +0.161 A 
ATOM      9  C   UNL     1       1.323  -1.932   3.604  0.00  0.00    +0.083 A 
ATOM     10  C   UNL     1       1.563  -2.595   4.796  0.00  0.00    +0.037 A 
ATOM     11  C   UNL     1       0.500  -3.224   5.429  0.00  0.00    +0.074 A 
ATOM     12  C   UNL     1      -0.755  -3.172   4.856  0.00  0.00    +0.125 A 
ATOM     13  N   UNL     1      -0.955  -2.528   3.721  0.00  0.00    -0.237 NA
ATOM     14 CL   UNL     1       2.616  -1.128   2.769  0.00  0.00    -0.080 Cl
ATOM     15  H   UNL     1      -2.146  -0.161  -0.361  0.00  0.00    +0.152 HD
ATOM     16  H   UNL     1       1.402  -1.397   0.785  0.00  0.00    +0.148 HD
ENDROOT
BRANCH   2  17
ATOM     17  C   UNL     1       0.473  -0.760  -1.347  0.00  0.00    +0.100 C 
ATOM     18  N   UNL     1       1.424  -1.604  -1.465  0.00  0.00    -0.090 NA
ATOM     19  O   UNL     1       1.622  -2.037  -2.797  0.00  0.00    -0.388 OA
ATOM     20  C   UNL     1       0.433  -1.704  -3.542  0.00  0.00    +0.227 C 
ATOM     21  C   UNL     1      -0.133  -0.525  -2.718  0.00  0.00    +0.106 C 
BRANCH  20  22
ATOM     22  C   UNL     1      -0.550  -2.876  -3.559  0.00  0.00    +0.150 C 
BRANCH  22  23
ATOM     23  N   UNL     1       0.074  -4.028  -4.215  0.00  0.00    -0.324 N 
ATOM     24  C   UNL     1      -0.632  -5.218  -4.349  0.00  0.00    +0.137 A 
ATOM     25  C   UNL     1      -0.031  -6.311  -4.969  0.00  0.00    +0.081 A 
ATOM     26  C   UNL     1      -0.745  -7.489  -5.095  0.00  0.00    +0.037 A 
ATOM     27  C   UNL     1      -2.041  -7.536  -4.597  0.00  0.00    +0.074 A 
ATOM     28  C   UNL     1      -2.574  -6.414  -3.994  0.00  0.00    +0.125 A 
ATOM     29  N   UNL     1      -1.868  -5.305  -3.883  0.00  0.00    -0.238 NA
ATOM     30 CL   UNL     1       1.592  -6.196  -5.575  0.00  0.00    -0.080 Cl
ATOM     31  H   UNL     1       0.980  -3.960  -4.556  0.00  0.00    +0.148 HD
BRANCH  27  32
ATOM     32  C   UNL     1      -2.856  -8.798  -4.713  0.00  0.00    +0.419 C 
ATOM     33  F   UNL     1      -2.645  -9.595  -3.582  0.00  0.00    -0.166 F 
ATOM     34  F   UNL     1      -4.213  -8.470  -4.805  0.00  0.00    -0.166 F 
ATOM     35  F   UNL     1      -2.467  -9.501  -5.858  0.00  0.00    -0.166 F 
ENDBRANCH  27  32
ENDBRANCH  22  23
ENDBRANCH  20  22
ENDBRANCH   2  17
BRANCH  11  36
ATOM     36  C   UNL     1       0.713  -3.958   6.728  0.00  0.00    +0.419 C 
ATOM     37  F   UNL     1       0.521  -3.078   7.798  0.00  0.00    -0.166 F 
ATOM     38  F   UNL     1      -0.200  -5.014   6.822  0.00  0.00    -0.166 F 
ATOM     39  F   UNL     1       2.017  -4.464   6.768  0.00  0.00    -0.166 F 
ENDBRANCH  11  36
TORSDOF 5
