REMARK  Name = ZINC02917716
REMARK  3 active torsions:
REMARK  status: ('A' for Active; 'I' for Inactive)
REMARK    1  A    between atoms: C_1  and  C_2
REMARK    2  A    between atoms: C_10  and  C_18
REMARK    3  A    between atoms: C_24  and  C_27
REMARK                            x       y       z     vdW  Elec       q    Type
REMARK                         _______ _______ _______ _____ _____    ______ ____
ROOT
ATOM      1  C   UNL     1      -0.018   1.503   0.010  0.00  0.00    +0.044 C 
ATOM      2  C   UNL     1       0.002  -0.004   0.002  0.00  0.00    -0.050 A 
ATOM      3  C   UNL     1       0.006  -0.687  -1.202  0.00  0.00    +0.007 A 
ATOM      4  C   UNL     1       0.024  -2.069  -1.225  0.00  0.00    +0.046 A 
ATOM      5  C   UNL     1       0.039  -2.778  -0.037  0.00  0.00    +0.131 A 
ATOM      6  C   UNL     1       0.037  -2.087   1.181  0.00  0.00    +0.043 A 
ATOM      7  C   UNL     1       0.023  -0.699   1.196  0.00  0.00    +0.017 A 
ATOM      8  C   UNL     1       0.059  -2.877   2.438  0.00  0.00    +0.083 C 
ATOM      9  C   UNL     1       0.403  -4.179   2.349  0.00  0.00    +0.028 C 
ATOM     10  C   UNL     1       0.421  -4.997   3.621  0.00  0.00    +0.163 C 
ATOM     11  N   UNL     1       0.056  -4.282   4.854  0.00  0.00    -0.182 N 
ATOM     12  C   UNL     1      -0.263  -2.957   4.774  0.00  0.00    +0.209 C 
ATOM     13  N   UNL     1      -0.256  -2.312   3.629  0.00  0.00    -0.216 NA
ATOM     14  N   UNL     1      -0.554  -2.554   6.051  0.00  0.00    -0.275 N 
ATOM     15  C   UNL     1      -0.410  -3.636   6.885  0.00  0.00    +0.208 C 
ATOM     16  N   UNL     1      -0.049  -4.667   6.191  0.00  0.00    -0.169 NA
ATOM     17  C   UNL     1       0.763  -4.786   1.025  0.00  0.00    +0.241 C 
ATOM     18  O   UNL     1       0.053  -4.136  -0.030  0.00  0.00    -0.479 OA
ATOM     19  H   UNL     1      -0.817  -1.660   6.319  0.00  0.00    +0.156 HD
ENDROOT
BRANCH  10  20
ATOM     20  C   UNL     1      -0.535  -6.150   3.452  0.00  0.00    -0.021 A 
ATOM     21  C   UNL     1      -1.893  -5.952   3.613  0.00  0.00    +0.006 A 
ATOM     22  C   UNL     1      -2.769  -7.009   3.458  0.00  0.00    +0.000 A 
ATOM     23  C   UNL     1      -2.287  -8.265   3.140  0.00  0.00    +0.000 A 
ATOM     24  C   UNL     1      -0.929  -8.463   2.978  0.00  0.00    +0.000 A 
ATOM     25  C   UNL     1      -0.053  -7.405   3.129  0.00  0.00    +0.006 A 
ENDBRANCH  10  20
BRANCH  17  26
ATOM     26  C   UNL     1       2.244  -4.632   0.793  0.00  0.00    +0.034 A 
ATOM     27  C   UNL     1       3.233  -5.544   0.959  0.00  0.00    +0.015 A 
ATOM     28  C   UNL     1       4.537  -5.178   0.680  0.00  0.00    +0.008 A 
ATOM     29  C   UNL     1       4.787  -3.917   0.249  0.00  0.00    +0.045 A 
ATOM     30  S   UNL     1       3.150  -3.204   0.221  0.00  0.00    -0.098 S 
ENDBRANCH  17  26
TORSDOF 2
