REMARK  Name = ZINC61860321
REMARK  5 active torsions:
REMARK  status: ('A' for Active; 'I' for Inactive)
REMARK    1  A    between atoms: C_1  and  C_2
REMARK    2  A    between atoms: C_2  and  C_3
REMARK    3  A    between atoms: C_2  and  C_4
REMARK    4  A    between atoms: C_9  and  N_12
REMARK    5  A    between atoms: N_19  and  C_22
REMARK                            x       y       z     vdW  Elec       q    Type
REMARK                         _______ _______ _______ _____ _____    ______ ____
ROOT
ATOM      1  N   UNL     1      -5.218   2.062  -2.596  0.00  0.00    -0.296 N 
ATOM      2  C   UNL     1      -6.431   1.820  -3.130  0.00  0.00    +0.302 C 
ATOM      3  O   UNL     1      -6.729   0.694  -3.478  0.00  0.00    -0.253 OA
ATOM      4  N   UNL     1      -7.316   2.827  -3.277  0.00  0.00    -0.287 N 
ATOM      5  C   UNL     1      -8.678   2.513  -3.752  0.00  0.00    +0.107 C 
ATOM      6  C   UNL     1      -9.735   3.319  -2.975  0.00  0.00    +0.000 C 
ATOM      7  C   UNL     1      -9.347   3.381  -1.514  0.00  0.00    -0.077 C 
ATOM      8  N   UNL     1      -8.583   4.602  -1.269  0.00  0.00    +0.383 N 
ATOM      9  C   UNL     1      -7.191   4.486  -1.477  0.00  0.00    -0.059 C 
ATOM     10  C   UNL     1      -6.897   4.176  -2.958  0.00  0.00    +0.091 C 
ATOM     11  H   UNL     1      -4.952   2.972  -2.387  0.00  0.00    +0.151 HD
ATOM     12  H   UNL     1      -8.936   5.326  -1.877  0.00  0.00    -0.081 HD
ENDROOT
BRANCH   1  18
ATOM     13  C   UNL     1      -1.393  -0.585   0.131  0.00  0.00    +0.218 C 
ATOM     14  O   UNL     1      -1.701  -1.232   1.109  0.00  0.00    -0.275 OA
ATOM     15  N   UNL     1      -2.290  -0.382  -0.853  0.00  0.00    -0.301 N 
ATOM     16  C   UNL     1      -1.900   0.300  -2.094  0.00  0.00    +0.109 C 
ATOM     17  C   UNL     1      -2.859   1.470  -2.337  0.00  0.00    +0.041 C 
ATOM     18  C   UNL     1      -4.299   0.952  -2.331  0.00  0.00    +0.077 C 
ATOM     19  C   UNL     1      -4.618   0.342  -0.964  0.00  0.00    +0.041 C 
ATOM     20  C   UNL     1      -3.677  -0.846  -0.708  0.00  0.00    +0.109 C 
BRANCH  13  22
ATOM     21  C   UNL     1      -0.023   1.454   0.471  0.00  0.00    +0.017 C 
ATOM     22  C   UNL     1      -0.005  -0.006   0.017  0.00  0.00    +0.069 C 
ATOM     23  C   UNL     1       0.955  -0.805   0.901  0.00  0.00    +0.017 C 
ENDBRANCH  13  22
ENDBRANCH   1  18
BRANCH   8  24
ATOM     24  C   UNL     1      -8.811   5.021   0.120  0.00  0.00    -0.069 C 
ATOM     25  C   UNL     1      -9.240   6.469   0.361  0.00  0.00    -0.017 C 
ATOM     26  C   UNL     1     -10.249   5.333   0.538  0.00  0.00    -0.017 C 
ENDBRANCH   8  24
TORSDOF 3
