REMARK  Name = ZINC15780452
REMARK  8 active torsions:
REMARK  status: ('A' for Active; 'I' for Inactive)
REMARK    1  A    between atoms: C_1  and  N_2
REMARK    2  A    between atoms: C_5  and  N_15
REMARK    3  A    between atoms: C_6  and  O_13
REMARK    4  A    between atoms: N_9  and  C_12
REMARK    5  A    between atoms: O_13  and  C_14
REMARK    6  A    between atoms: N_15  and  S_16
REMARK    7  A    between atoms: S_16  and  C_19
REMARK    8  A    between atoms: C_22  and  N_25
REMARK                            x       y       z     vdW  Elec       q    Type
REMARK                         _______ _______ _______ _____ _____    ______ ____
ROOT
ATOM      1  N   UNL     1      -1.769   4.607   0.043  0.00  0.00    -0.213 N 
ATOM      2  H   UNL     1      -1.675   5.408  -0.496  0.00  0.00    +0.174 HD
ENDROOT
BRANCH   1   7
ATOM      3  C   UNL     1      -0.813  -0.826   0.499  0.00  0.00    +0.154 C 
ATOM      4  N   UNL     1       0.298   0.128   0.541  0.00  0.00    -0.295 N 
ATOM      5  C   UNL     1       0.188   1.514   0.437  0.00  0.00    +0.072 A 
ATOM      6  C   UNL     1      -0.891   2.372   0.282  0.00  0.00    +0.056 A 
ATOM      7  C   UNL     1      -0.680   3.739   0.205  0.00  0.00    +0.092 A 
ATOM      8  C   UNL     1       0.613   4.253   0.293  0.00  0.00    +0.144 A 
ATOM      9  C   UNL     1       1.690   3.399   0.452  0.00  0.00    +0.075 A 
ATOM     10  C   UNL     1       1.482   2.029   0.524  0.00  0.00    +0.073 A 
ATOM     11  N   UNL     1       2.340   0.940   0.679  0.00  0.00    -0.295 N 
ATOM     12  C   UNL     1       1.600  -0.185   0.685  0.00  0.00    +0.330 A 
ATOM     13  O   UNL     1       2.041  -1.313   0.803  0.00  0.00    -0.246 OA
ATOM     14  C   UNL     1       3.797   1.008   0.812  0.00  0.00    +0.154 C 
BRANCH   8  15
ATOM     15  O   UNL     1       0.816   5.596   0.222  0.00  0.00    -0.493 OA
ATOM     16  C   UNL     1       2.166   6.054   0.319  0.00  0.00    +0.277 C 
ENDBRANCH   8  15
ENDBRANCH   1   7
BRANCH   1  17
ATOM     17  S   UNL     1      -3.216   4.266   0.773  0.00  0.00    +0.072 S 
ATOM     18  O   UNL     1      -4.061   5.384   0.542  0.00  0.00    -0.150 OA
ATOM     19  O   UNL     1      -3.570   2.948   0.376  0.00  0.00    -0.150 OA
BRANCH  17  20
ATOM     20  C   UNL     1      -2.922   4.207   2.509  0.00  0.00    +0.109 A 
ATOM     21  C   UNL     1      -2.577   3.010   3.110  0.00  0.00    +0.030 A 
ATOM     22  C   UNL     1      -2.341   2.961   4.470  0.00  0.00    +0.025 A 
ATOM     23  C   UNL     1      -2.462   4.114   5.236  0.00  0.00    +0.036 A 
ATOM     24  C   UNL     1      -2.814   5.312   4.630  0.00  0.00    +0.025 A 
ATOM     25  C   UNL     1      -3.043   5.356   3.269  0.00  0.00    +0.030 A 
BRANCH  23  26
ATOM     26  N   UNL     1      -2.228   4.067   6.615  0.00  0.00    -0.271 N 
ATOM     27  C   UNL     1      -2.443   5.194   7.530  0.00  0.00    +0.114 C 
ATOM     28  C   UNL     1      -1.663   4.836   8.814  0.00  0.00    +0.029 C 
ATOM     29  C   UNL     1      -1.632   3.292   8.745  0.00  0.00    +0.098 C 
ATOM     30  C   UNL     1      -1.784   2.982   7.272  0.00  0.00    +0.220 C 
ATOM     31  O   UNL     1      -1.537   1.911   6.759  0.00  0.00    -0.275 OA
ENDBRANCH  23  26
ENDBRANCH  17  20
ENDBRANCH   1  17
TORSDOF 5
