REMARK  Name = ZINC39946671
REMARK  11 active torsions:
REMARK  status: ('A' for Active; 'I' for Inactive)
REMARK    1  A    between atoms: C_1  and  C_2
REMARK    2  A    between atoms: C_4  and  C_12
REMARK    3  A    between atoms: N_13  and  N_14
REMARK    4  A    between atoms: C_15  and  C_25
REMARK    5  A    between atoms: N_20  and  C_21
REMARK    6  A    between atoms: C_21  and  C_22
REMARK    7  A    between atoms: C_22  and  C_24
REMARK    8  A    between atoms: C_28  and  O_33
REMARK    9  A    between atoms: C_30  and  O_31
REMARK   10  A    between atoms: O_31  and  C_32
REMARK   11  A    between atoms: O_33  and  C_34
REMARK                            x       y       z     vdW  Elec       q    Type
REMARK                         _______ _______ _______ _____ _____    ______ ____
ROOT
ATOM      1  N   UNL     1       0.830  -0.485  -4.859  0.00  0.00    -0.195 N 
ATOM      2  C   UNL     1       1.631  -1.044  -5.931  0.00  0.00    +0.144 C 
ATOM      3  C   UNL     1       1.142  -0.619  -7.335  0.00  0.00    +0.106 C 
ATOM      4  S   UNL     1      -0.517   0.058  -6.908  0.00  0.00    -0.089 S 
ATOM      5  C   UNL     1      -0.225   0.351  -5.171  0.00  0.00    +0.151 C 
ATOM      6  N   UNL     1      -0.861   1.169  -4.380  0.00  0.00    -0.363 N 
ATOM      7  H   UNL     1      -0.559   1.293  -3.466  0.00  0.00    +0.162 HD
ENDROOT
BRANCH   2   8
ATOM      8  C   UNL     1       3.057  -0.589  -5.759  0.00  0.00    +0.018 A 
ATOM      9  C   UNL     1       3.340   0.519  -4.984  0.00  0.00    +0.013 A 
ATOM     10  C   UNL     1       4.647   0.939  -4.824  0.00  0.00    +0.046 A 
ATOM     11  C   UNL     1       5.679   0.247  -5.443  0.00  0.00    +0.124 A 
ATOM     12  C   UNL     1       5.398  -0.865  -6.221  0.00  0.00    +0.091 A 
ATOM     13  C   UNL     1       4.087  -1.287  -6.375  0.00  0.00    +0.129 A 
BRANCH  13  14
ATOM     14  O   UNL     1       3.808  -2.381  -7.132  0.00  0.00    -0.495 OA
ATOM     15  C   UNL     1       4.917  -3.050  -7.736  0.00  0.00    +0.277 C 
ENDBRANCH  13  14
BRANCH  11  16
ATOM     16  O   UNL     1       6.964   0.660  -5.286  0.00  0.00    -0.495 OA
ATOM     17  C   UNL     1       7.179   1.814  -4.471  0.00  0.00    +0.277 C 
ENDBRANCH  11  16
ENDBRANCH   2   8
BRANCH   1  19
ATOM     18  C   UNL     1       2.049  -1.672  -3.240  0.00  0.00    +0.137 C 
ATOM     19  N   UNL     1       1.119  -0.793  -3.523  0.00  0.00    -0.185 NA
BRANCH  18  22
ATOM     20  C   UNL     1       3.090  -4.294  -1.785  0.00  0.00    +0.035 C 
ATOM     21  C   UNL     1       3.466  -2.861  -1.400  0.00  0.00    +0.109 C 
ATOM     22  C   UNL     1       2.421  -1.894  -1.909  0.00  0.00    +0.003 C 
ATOM     23  C   UNL     1       1.904  -1.269  -0.774  0.00  0.00    +0.005 A 
ATOM     24  C   UNL     1       0.912  -0.280  -0.598  0.00  0.00    +0.010 A 
ATOM     25  C   UNL     1       0.606   0.151   0.652  0.00  0.00    +0.001 A 
ATOM     26  C   UNL     1       1.252  -0.359   1.781  0.00  0.00    +0.002 A 
ATOM     27  C   UNL     1       2.214  -1.309   1.687  0.00  0.00    +0.026 A 
ATOM     28  C   UNL     1       2.588  -1.810   0.412  0.00  0.00    +0.043 A 
ATOM     29  N   UNL     1       3.478  -2.717   0.059  0.00  0.00    -0.377 N 
ATOM     30  H   UNL     1       4.050  -3.211   0.667  0.00  0.00    +0.160 HD
ENDBRANCH  18  22
ENDBRANCH   1  19
BRANCH   6  31
ATOM     31  C   UNL     1      -2.031   1.901  -4.870  0.00  0.00    +0.144 C 
BRANCH  31  32
ATOM     32  C   UNL     1      -2.578   2.771  -3.768  0.00  0.00    -0.061 C 
ATOM     33  C   UNL     1      -2.217   4.027  -3.685  0.00  0.00    +0.009 C 
ATOM     34  C   UNL     1      -3.539   2.195  -2.760  0.00  0.00    +0.040 C 
ENDBRANCH  31  32
ENDBRANCH   6  31
TORSDOF 7
