REMARK  Name = ZINC00812910
REMARK  10 active torsions:
REMARK  status: ('A' for Active; 'I' for Inactive)
REMARK    1  A    between atoms: C_1  and  O_2
REMARK    2  A    between atoms: O_2  and  C_3
REMARK    3  A    between atoms: C_7  and  C_11
REMARK    4  A    between atoms: C_8  and  O_9
REMARK    5  A    between atoms: O_9  and  C_10
REMARK    6  A    between atoms: C_16  and  C_21
REMARK    7  A    between atoms: C_24  and  O_29
REMARK    8  A    between atoms: C_25  and  O_27
REMARK    9  A    between atoms: O_27  and  C_28
REMARK   10  A    between atoms: O_29  and  C_30
REMARK                            x       y       z     vdW  Elec       q    Type
REMARK                         _______ _______ _______ _____ _____    ______ ____
ROOT
ATOM      1  C   UNL     1      -5.679  -1.912   0.141  0.00  0.00    +0.140 C 
ATOM      2  C   UNL     1      -4.408  -1.106   0.019  0.00  0.00    +0.037 C 
ATOM      3  C   UNL     1      -3.828  -0.717  -1.128  0.00  0.00    +0.017 C 
ATOM      4  C   UNL     1      -2.530   0.073  -1.105  0.00  0.00    +0.059 C 
ATOM      5  C   UNL     1      -2.487   0.967   0.133  0.00  0.00    +0.032 C 
ATOM      6  C   UNL     1      -2.580   0.062   1.366  0.00  0.00    +0.088 C 
ATOM      7  C   UNL     1      -3.829  -0.761   1.263  0.00  0.00    +0.163 C 
ATOM      8  O   UNL     1      -4.363  -1.145   2.285  0.00  0.00    -0.292 OA
ATOM      9  N   UNL     1      -4.311  -0.978  -2.370  0.00  0.00    -0.316 N 
ATOM     10  C   UNL     1      -4.763  -2.220  -2.800  0.00  0.00    +0.052 A 
ATOM     11  C   UNL     1      -4.131  -2.930  -3.806  0.00  0.00    +0.025 A 
ATOM     12  C   UNL     1      -4.660  -4.141  -4.218  0.00  0.00    +0.002 A 
ATOM     13  C   UNL     1      -5.811  -4.635  -3.631  0.00  0.00    +0.002 A 
ATOM     14  C   UNL     1      -6.435  -3.934  -2.613  0.00  0.00    +0.025 A 
ATOM     15  C   UNL     1      -5.895  -2.732  -2.184  0.00  0.00    +0.049 A 
ATOM     16  N   UNL     1      -6.425  -2.045  -1.093  0.00  0.00    -0.331 N 
ATOM     17  H   UNL     1      -4.342  -0.243  -3.003  0.00  0.00    +0.152 HD
ATOM     18  H   UNL     1      -7.308  -1.650  -1.161  0.00  0.00    +0.147 HD
ENDROOT
BRANCH   1  23
ATOM     19  C   UNL     1      -5.964  -5.356   1.687  0.00  0.00    +0.162 A 
ATOM     20  C   UNL     1      -4.668  -5.825   1.544  0.00  0.00    +0.049 A 
ATOM     21  C   UNL     1      -3.706  -5.029   0.950  0.00  0.00    +0.004 A 
ATOM     22  C   UNL     1      -4.036  -3.767   0.492  0.00  0.00    +0.009 A 
ATOM     23  C   UNL     1      -5.325  -3.291   0.636  0.00  0.00    +0.023 A 
ATOM     24  C   UNL     1      -6.294  -4.083   1.231  0.00  0.00    +0.167 A 
BRANCH  19  26
ATOM     25  C   UNL     1      -6.500  -7.431   2.716  0.00  0.00    +0.277 C 
ATOM     26  O   UNL     1      -6.911  -6.137   2.272  0.00  0.00    -0.491 OA
ENDBRANCH  19  26
BRANCH  24  27
ATOM     27  O   UNL     1      -7.564  -3.618   1.369  0.00  0.00    -0.491 OA
ATOM     28  C   UNL     1      -8.505  -3.989   0.359  0.00  0.00    +0.277 C 
ENDBRANCH  24  27
ENDBRANCH   1  23
BRANCH   5  29
ATOM     29  C   UNL     1      -1.193   1.739   0.161  0.00  0.00    -0.040 A 
ATOM     30  C   UNL     1       0.013   1.063   0.165  0.00  0.00    +0.008 A 
ATOM     31  C   UNL     1       1.203   1.766   0.186  0.00  0.00    +0.049 A 
ATOM     32  C   UNL     1       1.188   3.152   0.208  0.00  0.00    +0.161 A 
ATOM     33  C   UNL     1      -0.025   3.832   0.209  0.00  0.00    +0.162 A 
ATOM     34  C   UNL     1      -1.215   3.121   0.189  0.00  0.00    +0.053 A 
BRANCH  33  35
ATOM     35  O   UNL     1      -0.045   5.192   0.232  0.00  0.00    -0.491 OA
ATOM     36  C   UNL     1      -1.327   5.822   0.232  0.00  0.00    +0.277 C 
ENDBRANCH  33  35
BRANCH  32  37
ATOM     37  O   UNL     1       2.358   3.845   0.228  0.00  0.00    -0.491 OA
ATOM     38  C   UNL     1       3.566   3.081   0.225  0.00  0.00    +0.277 C 
ENDBRANCH  32  37
ENDBRANCH   5  29
TORSDOF 6
