REMARK  Name = ZINC67387687
REMARK  5 active torsions:
REMARK  status: ('A' for Active; 'I' for Inactive)
REMARK    1  A    between atoms: C_4  and  C_7
REMARK    2  A    between atoms: C_7  and  C_8
REMARK    3  A    between atoms: N_10  and  N_11
REMARK    4  A    between atoms: N_14  and  C_15
REMARK    5  A    between atoms: C_21  and  C_23
REMARK                            x       y       z     vdW  Elec       q    Type
REMARK                         _______ _______ _______ _____ _____    ______ ____
ROOT
ATOM      1  N   UNL     1       3.785  -4.053   3.327  0.00  0.00    -0.218 N 
ATOM      2  C   UNL     1       4.406  -4.723   4.318  0.00  0.00    +0.316 C 
ATOM      3  O   UNL     1       4.509  -5.933   4.261  0.00  0.00    -0.251 OA
ATOM      4  N   UNL     1       4.913  -4.051   5.371  0.00  0.00    -0.295 N 
ATOM      5  H   UNL     1       3.421  -4.536   2.569  0.00  0.00    +0.174 HD
ATOM      6  H   UNL     1       4.830  -3.086   5.416  0.00  0.00    +0.151 HD
ENDROOT
BRANCH   4   7
ATOM      7  C   UNL     1       5.588  -4.780   6.448  0.00  0.00    +0.086 C 
ATOM      8  C   UNL     1       7.054  -5.003   6.072  0.00  0.00    +0.023 C 
ATOM      9  C   UNL     1       7.759  -5.764   7.197  0.00  0.00    +0.002 C 
ATOM     10  C   UNL     1       7.682  -4.949   8.489  0.00  0.00    +0.001 C 
ATOM     11  C   UNL     1       6.216  -4.726   8.866  0.00  0.00    +0.014 C 
ATOM     12  C   UNL     1       5.511  -3.965   7.741  0.00  0.00    +0.113 C 
BRANCH  12  13
ATOM     13  C   UNL     1       4.045  -3.742   8.117  0.00  0.00    +0.395 C 
ATOM     14  F   UNL     1       3.419  -4.979   8.307  0.00  0.00    -0.170 F 
ATOM     15  F   UNL     1       3.975  -2.997   9.299  0.00  0.00    -0.170 F 
ATOM     16  F   UNL     1       3.400  -3.046   7.088  0.00  0.00    -0.170 F 
ENDBRANCH  12  13
ENDBRANCH   4   7
BRANCH   1  19
ATOM     17  C   UNL     1       3.045  -1.988   2.401  0.00  0.00    +0.229 C 
ATOM     18  O   UNL     1       2.590  -2.592   1.453  0.00  0.00    -0.274 OA
ATOM     19  N   UNL     1       3.666  -2.658   3.392  0.00  0.00    -0.233 N 
ATOM     20  H   UNL     1       4.031  -2.175   4.149  0.00  0.00    +0.173 HD
BRANCH  17  21
ATOM     21  C   UNL     1       2.917  -0.488   2.470  0.00  0.00    +0.101 C 
BRANCH  21  25
ATOM     22  C   UNL     1      -0.019   1.526   0.010  0.00  0.00    +0.000 C 
ATOM     23  C   UNL     1       1.417   2.055  -0.000  0.00  0.00    +0.000 C 
ATOM     24  C   UNL     1       2.157   1.548   1.239  0.00  0.00    +0.004 C 
ATOM     25  C   UNL     1       2.178   0.019   1.231  0.00  0.00    -0.002 C 
ATOM     26  C   UNL     1       0.742  -0.511   1.242  0.00  0.00    +0.004 C 
ATOM     27  C   UNL     1       0.002  -0.004   0.002  0.00  0.00    +0.000 C 
ENDBRANCH  21  25
ENDBRANCH  17  21
ENDBRANCH   1  19
TORSDOF 5
