REMARK  Name = ZINC39295628
REMARK  3 active torsions:
REMARK  status: ('A' for Active; 'I' for Inactive)
REMARK    1  A    between atoms: C_4  and  N_7
REMARK    2  A    between atoms: C_8  and  C_24
REMARK    3  A    between atoms: C_27  and  O_30
REMARK                            x       y       z     vdW  Elec       q    Type
REMARK                         _______ _______ _______ _____ _____    ______ ____
ROOT
ATOM      1  N   UNL     1       3.620  -0.649  -0.036  0.00  0.00    -0.243 N 
ATOM      2  C   UNL     1       3.794  -2.132  -0.052  0.00  0.00    +0.169 C 
ATOM      3  C   UNL     1       5.291  -2.312   0.093  0.00  0.00    +0.201 C 
ATOM      4  C   UNL     1       5.729  -0.993  -0.654  0.00  0.00    +0.207 C 
ATOM      5  O   UNL     1       4.933  -0.037  -0.047  0.00  0.00    -0.261 OA
ATOM      6  C   UNL     1       7.155  -1.055  -0.983  0.00  0.00    +0.010 A 
ATOM      7  C   UNL     1       8.142  -0.069  -0.975  0.00  0.00    +0.008 A 
ATOM      8  C   UNL     1       9.425  -0.333  -1.395  0.00  0.00    +0.000 A 
ATOM      9  C   UNL     1       9.779  -1.594  -1.839  0.00  0.00    +0.002 A 
ATOM     10  C   UNL     1       8.829  -2.601  -1.822  0.00  0.00    +0.027 A 
ATOM     11  C   UNL     1       7.563  -2.346  -1.375  0.00  0.00    +0.094 A 
ATOM     12  S   UNL     1       6.139  -3.435  -1.068  0.00  0.00    +0.005 S 
ATOM     13  O   UNL     1       5.429  -3.543  -2.294  0.00  0.00    -0.169 OA
ATOM     14  O   UNL     1       6.654  -4.578  -0.399  0.00  0.00    -0.169 OA
ENDROOT
BRANCH   1  18
ATOM     15  C   UNL     1      -0.017   1.379   0.010  0.00  0.00    +0.000 A 
ATOM     16  C   UNL     1       1.169   2.089   0.002  0.00  0.00    +0.002 A 
ATOM     17  C   UNL     1       2.377   1.420  -0.013  0.00  0.00    +0.028 A 
ATOM     18  C   UNL     1       2.400   0.031  -0.021  0.00  0.00    +0.065 A 
ATOM     19  C   UNL     1       1.206  -0.680  -0.013  0.00  0.00    +0.028 A 
ATOM     20  C   UNL     1       0.002  -0.004   0.002  0.00  0.00    +0.002 A 
ENDBRANCH   1  18
BRANCH   2  21
ATOM     21  C   UNL     1       3.065  -2.765   1.105  0.00  0.00    -0.021 A 
ATOM     22  C   UNL     1       3.051  -2.138   2.338  0.00  0.00    +0.009 A 
ATOM     23  C   UNL     1       2.384  -2.716   3.400  0.00  0.00    +0.046 A 
ATOM     24  C   UNL     1       1.727  -3.926   3.230  0.00  0.00    +0.117 A 
ATOM     25  C   UNL     1       1.743  -4.553   1.992  0.00  0.00    +0.046 A 
ATOM     26  C   UNL     1       2.407  -3.968   0.932  0.00  0.00    +0.009 A 
BRANCH  24  27
ATOM     27  O   UNL     1       1.071  -4.497   4.274  0.00  0.00    -0.507 OA
ATOM     28  H   UNL     1       0.144  -4.231   4.349  0.00  0.00    +0.292 HD
ENDBRANCH  24  27
ENDBRANCH   2  21
TORSDOF 3
