REMARK  Name = ZINC14549504
REMARK  7 active torsions:
REMARK  status: ('A' for Active; 'I' for Inactive)
REMARK    1  A    between atoms: C_1  and  O_2
REMARK    2  A    between atoms: O_2  and  C_3
REMARK    3  A    between atoms: C_3  and  C_4
REMARK    4  A    between atoms: C_4  and  C_5
REMARK    5  A    between atoms: C_5  and  N_6
REMARK    6  A    between atoms: C_7  and  C_9
REMARK    7  A    between atoms: C_22  and  C_25
REMARK                            x       y       z     vdW  Elec       q    Type
REMARK                         _______ _______ _______ _____ _____    ______ ____
ROOT
ATOM      1  C   UNL     1      -1.415   1.588   0.058  0.00  0.00    +0.037 A 
ATOM      2  C   UNL     1      -1.334   2.984   0.079  0.00  0.00    +0.015 A 
ATOM      3  C   UNL     1      -2.489   3.731   0.072  0.00  0.00    +0.024 A 
ATOM      4  C   UNL     1      -3.732   3.099   0.058  0.00  0.00    +0.031 A 
ATOM      5  C   UNL     1      -3.822   1.716   0.046  0.00  0.00    -0.019 A 
ATOM      6  C   UNL     1      -2.661   0.962   0.045  0.00  0.00    +0.019 A 
ATOM      7  C   UNL     1      -5.137   0.983   0.040  0.00  0.00    +0.049 C 
ATOM      8  C   UNL     1      -5.180   0.111   1.288  0.00  0.00    -0.023 C 
ATOM      9  C   UNL     1      -5.830   0.719   2.248  0.00  0.00    -0.030 C 
ATOM     10  C   UNL     1      -6.318   2.079   1.781  0.00  0.00    +0.033 C 
ATOM     11  C   UNL     1      -6.335   1.929   0.241  0.00  0.00    +0.029 C 
ATOM     12  C   UNL     1      -6.125   3.269  -0.439  0.00  0.00    +0.106 C 
ATOM     13  N   UNL     1      -4.886   3.881   0.053  0.00  0.00    -0.336 N 
ATOM     14  H   UNL     1      -4.870   4.799   0.366  0.00  0.00    +0.147 HD
ENDROOT
BRANCH  12  15
ATOM     15  C   UNL     1      -6.027   3.066  -1.929  0.00  0.00    -0.012 A 
ATOM     16  C   UNL     1      -4.966   3.619  -2.644  0.00  0.00    -0.012 A 
ATOM     17  C   UNL     1      -3.961   4.367  -1.994  0.00  0.00    +0.009 A 
ATOM     18  C   UNL     1      -2.938   4.887  -2.719  0.00  0.00    +0.001 A 
ATOM     19  C   UNL     1      -2.848   4.699  -4.099  0.00  0.00    +0.001 A 
ATOM     20  C   UNL     1      -3.777   3.986  -4.785  0.00  0.00    +0.008 A 
ATOM     21  C   UNL     1      -4.868   3.416  -4.093  0.00  0.00    -0.017 A 
ATOM     22  C   UNL     1      -5.840   2.679  -4.766  0.00  0.00    +0.017 A 
ATOM     23  C   UNL     1      -6.904   2.130  -4.051  0.00  0.00    -0.017 A 
ATOM     24  C   UNL     1      -6.999   2.328  -2.601  0.00  0.00    -0.012 A 
ATOM     25  C   UNL     1      -8.089   1.758  -1.909  0.00  0.00    +0.009 A 
ATOM     26  C   UNL     1      -9.019   1.045  -2.595  0.00  0.00    +0.001 A 
ATOM     27  C   UNL     1      -8.928   0.857  -3.975  0.00  0.00    +0.001 A 
ATOM     28  C   UNL     1      -7.906   1.378  -4.700  0.00  0.00    +0.008 A 
ENDBRANCH  12  15
BRANCH   1  30
ATOM     29  N   UNL     1       1.022   1.383   0.064  0.00  0.00    -0.311 N 
ATOM     30  C   UNL     1      -0.182   0.778   0.057  0.00  0.00    +0.244 C 
ATOM     31  O   UNL     1      -0.252  -0.436   0.044  0.00  0.00    -0.270 OA
ATOM     32  H   UNL     1       1.079   2.351   0.074  0.00  0.00    +0.149 HD
BRANCH  29  33
ATOM     33  C   UNL     1       2.247   0.578   0.057  0.00  0.00    +0.107 C 
BRANCH  33  34
ATOM     34  C   UNL     1       3.465   1.504   0.067  0.00  0.00    +0.047 C 
BRANCH  34  35
ATOM     35  C   UNL     1       4.744   0.663   0.059  0.00  0.00    +0.161 C 
BRANCH  35  37
ATOM     36  C   UNL     1       7.134   0.839   0.063  0.00  0.00    +0.193 C 
ATOM     37  O   UNL     1       5.882   1.527   0.069  0.00  0.00    -0.383 OA
ENDBRANCH  35  37
ENDBRANCH  34  35
ENDBRANCH  33  34
ENDBRANCH  29  33
ENDBRANCH   1  30
TORSDOF 6
