REMARK  Name = ZINC21346318
REMARK  13 active torsions:
REMARK  status: ('A' for Active; 'I' for Inactive)
REMARK    1  A    between atoms: C_1  and  C_2
REMARK    2  A    between atoms: C_2  and  N_3
REMARK    3  A    between atoms: N_3  and  C_4
REMARK    4  A    between atoms: N_3  and  S_6
REMARK    5  A    between atoms: C_4  and  C_5
REMARK    6  A    between atoms: S_6  and  C_9
REMARK    7  A    between atoms: C_13  and  N_15
REMARK    8  A    between atoms: C_16  and  C_18
REMARK    9  A    between atoms: C_18  and  C_20
REMARK   10  A    between atoms: C_18  and  O_21
REMARK   11  A    between atoms: O_21  and  C_22
REMARK   12  A    between atoms: C_22  and  C_24
REMARK   13  A    between atoms: C_28  and  N_30
REMARK                            x       y       z     vdW  Elec       q    Type
REMARK                         _______ _______ _______ _____ _____    ______ ____
ROOT
ATOM      1  N   UNL     1       2.356   3.891  -0.001  0.00  0.00    -0.281 N 
ATOM      2  C   UNL     1       2.395   5.143   0.498  0.00  0.00    +0.258 C 
ATOM      3  O   UNL     1       1.415   5.612   1.036  0.00  0.00    -0.271 OA
ATOM      4  H   UNL     1       3.269   3.432  -0.406  0.00  0.00    +0.155 HD
ENDROOT
BRANCH   1   9
ATOM      5  C   UNL     1      -1.245   3.145   0.003  0.00  0.00    +0.107 A 
ATOM      6  C   UNL     1      -1.227   1.762  -0.012  0.00  0.00    +0.030 A 
ATOM      7  C   UNL     1      -0.022   1.084  -0.015  0.00  0.00    +0.024 A 
ATOM      8  C   UNL     1       1.168   1.787  -0.013  0.00  0.00    +0.062 A 
ATOM      9  C   UNL     1       1.153   3.176  -0.002  0.00  0.00    +0.054 A 
ATOM     10  C   UNL     1      -0.060   3.853   0.006  0.00  0.00    +0.053 A 
ATOM     11 CL   UNL     1       2.681   0.935  -0.022  0.00  0.00    -0.082 Cl
BRANCH   5  12
ATOM     12  S   UNL     1      -2.783   4.004   0.014  0.00  0.00    +0.061 S 
ATOM     13  O   UNL     1      -3.744   3.111   0.560  0.00  0.00    -0.153 OA
ATOM     14  O   UNL     1      -2.529   5.285   0.574  0.00  0.00    -0.153 OA
BRANCH  12  15
ATOM     15  N   UNL     1      -3.215   4.255  -1.565  0.00  0.00    -0.177 NA
BRANCH  15  17
ATOM     16  C   UNL     1      -5.502   3.649  -2.186  0.00  0.00    +0.022 C 
ATOM     17  C   UNL     1      -4.025   3.259  -2.270  0.00  0.00    +0.106 C 
ENDBRANCH  15  17
BRANCH  15  18
ATOM     18  C   UNL     1      -2.787   5.474  -2.256  0.00  0.00    +0.106 C 
ATOM     19  C   UNL     1      -1.500   5.194  -3.034  0.00  0.00    +0.022 C 
ENDBRANCH  15  18
ENDBRANCH  12  15
ENDBRANCH   5  12
ENDBRANCH   1   9
BRANCH   2  20
ATOM     20  C   UNL     1       3.658   5.958   0.388  0.00  0.00    +0.259 C 
ATOM     21  C   UNL     1       4.796   5.236   1.111  0.00  0.00    +0.062 C 
BRANCH  20  22
ATOM     22  O   UNL     1       3.447   7.260   0.996  0.00  0.00    -0.449 OA
BRANCH  22  23
ATOM     23  C   UNL     1       4.149   8.292   0.489  0.00  0.00    +0.340 C 
ATOM     24  O   UNL     1       4.917   8.110  -0.435  0.00  0.00    -0.245 OA
BRANCH  23  25
ATOM     25  C   UNL     1       3.986   9.646   1.057  0.00  0.00    +0.061 A 
ATOM     26  C   UNL     1       3.100   9.860   2.115  0.00  0.00    +0.016 A 
ATOM     27  C   UNL     1       2.954  11.124   2.647  0.00  0.00    +0.022 A 
ATOM     28  C   UNL     1       3.674  12.185   2.129  0.00  0.00    +0.062 A 
ATOM     29  C   UNL     1       4.554  11.984   1.071  0.00  0.00    +0.044 A 
ATOM     30  C   UNL     1       4.713  10.717   0.534  0.00  0.00    +0.039 A 
ATOM     31 CL   UNL     1       3.478  13.774   2.801  0.00  0.00    -0.082 Cl
BRANCH  29  32
ATOM     32  N   UNL     1       5.280  13.059   0.551  0.00  0.00    -0.357 N 
ATOM     33  H   UNL     1       5.977  12.900  -0.285  0.00  0.00    +0.142 HD
ATOM     34  H   UNL     1       5.155  14.065   0.978  0.00  0.00    +0.142 HD
ENDBRANCH  29  32
ENDBRANCH  23  25
ENDBRANCH  22  23
ENDBRANCH  20  22
ENDBRANCH   2  20
TORSDOF 10
