REMARK  Name = ZINC01858918
REMARK  8 active torsions:
REMARK  status: ('A' for Active; 'I' for Inactive)
REMARK    1  A    between atoms: C_8  and  C_10
REMARK    2  A    between atoms: C_12  and  N_17
REMARK    3  A    between atoms: C_15  and  O_16
REMARK    4  A    between atoms: N_17  and  C_18
REMARK    5  A    between atoms: C_18  and  N_20
REMARK    6  A    between atoms: C_21  and  C_23
REMARK    7  A    between atoms: C_24  and  C_25
REMARK    8  A    between atoms: C_29  and  N_31
REMARK                            x       y       z     vdW  Elec       q    Type
REMARK                         _______ _______ _______ _____ _____    ______ ____
ROOT
ATOM      1  N   UNL     1       6.013  -6.123  -0.078  0.00  0.00    -0.297 N 
ATOM      2  H   UNL     1       6.707  -5.450  -0.158  0.00  0.00    +0.154 HD
ENDROOT
BRANCH   1   5
ATOM      3  C   UNL     1       2.447  -5.962   0.849  0.00  0.00    +0.050 A 
ATOM      4  C   UNL     1       3.789  -6.344   0.830  0.00  0.00    +0.037 A 
ATOM      5  C   UNL     1       4.665  -5.741  -0.057  0.00  0.00    +0.033 A 
ATOM      6  C   UNL     1       4.210  -4.756  -0.927  0.00  0.00    +0.027 A 
ATOM      7  C   UNL     1       2.883  -4.374  -0.913  0.00  0.00    +0.048 A 
ATOM      8  C   UNL     1       1.995  -4.974  -0.034  0.00  0.00    +0.127 A 
BRANCH   3  16
ATOM      9  C   UNL     1      -2.506  -7.655   4.090  0.00  0.00    +0.002 A 
ATOM     10  C   UNL     1      -1.798  -8.586   4.837  0.00  0.00    +0.001 A 
ATOM     11  C   UNL     1      -0.446  -8.756   4.604  0.00  0.00    +0.017 A 
ATOM     12  C   UNL     1       0.172  -8.000   3.637  0.00  0.00    +0.040 A 
ATOM     13  C   UNL     1      -0.522  -7.043   2.860  0.00  0.00    +0.079 A 
ATOM     14  C   UNL     1      -1.903  -6.902   3.131  0.00  0.00    +0.029 A 
ATOM     15  N   UNL     1       0.220  -6.380   1.951  0.00  0.00    -0.239 NA
ATOM     16  C   UNL     1       1.507  -6.601   1.792  0.00  0.00    +0.113 A 
ATOM     17  S   UNL     1       1.828  -7.872   3.006  0.00  0.00    -0.067 S 
ENDBRANCH   3  16
BRANCH   8  18
ATOM     18  O   UNL     1       0.689  -4.600  -0.026  0.00  0.00    -0.506 OA
ATOM     19  H   UNL     1       0.492  -3.871   0.579  0.00  0.00    +0.292 HD
ENDBRANCH   8  18
ENDBRANCH   1   5
BRANCH   1  20
ATOM     20  C   UNL     1       6.345  -7.426   0.014  0.00  0.00    +0.141 C 
ATOM     21  S   UNL     1       5.122  -8.623   0.012  0.00  0.00    -0.018 S 
BRANCH  20  22
ATOM     22  N   UNL     1       7.641  -7.786   0.106  0.00  0.00    -0.264 N 
ATOM     23  C   UNL     1       7.973  -9.089   0.198  0.00  0.00    +0.242 C 
ATOM     24  O   UNL     1       7.104  -9.940   0.197  0.00  0.00    -0.270 OA
ATOM     25  H   UNL     1       8.334  -7.107   0.107  0.00  0.00    +0.157 HD
BRANCH  23  26
ATOM     26  C   UNL     1       9.380  -9.480   0.298  0.00  0.00    +0.068 C 
ATOM     27  C   UNL     1       9.712 -10.784   0.390  0.00  0.00    +0.013 C 
BRANCH  27  28
ATOM     28  C   UNL     1      11.127 -11.177   0.491  0.00  0.00    -0.023 A 
ATOM     29  C   UNL     1      12.129 -10.201   0.498  0.00  0.00    +0.008 A 
ATOM     30  C   UNL     1      13.452 -10.578   0.593  0.00  0.00    +0.003 A 
ATOM     31  C   UNL     1      13.790 -11.917   0.681  0.00  0.00    +0.033 A 
ATOM     32  C   UNL     1      12.804 -12.888   0.674  0.00  0.00    +0.127 A 
ATOM     33  C   UNL     1      11.476 -12.528   0.586  0.00  0.00    +0.040 A 
BRANCH  32  34
ATOM     34  N   UNL     1      13.176 -14.318   0.768  0.00  0.00    +0.056 N 
ATOM     35  O   UNL     1      14.339 -14.636   0.850  0.00  0.00    -0.126 OA
ATOM     36  O   UNL     1      12.316 -15.168   0.763  0.00  0.00    -0.126 OA
ENDBRANCH  32  34
ENDBRANCH  27  28
ENDBRANCH  23  26
ENDBRANCH  20  22
ENDBRANCH   1  20
TORSDOF 8
