REMARK  Name = ZINC06298612
REMARK  8 active torsions:
REMARK  status: ('A' for Active; 'I' for Inactive)
REMARK    1  A    between atoms: C_1  and  C_2
REMARK    2  A    between atoms: C_2  and  C_3
REMARK    3  A    between atoms: C_2  and  C_4
REMARK    4  A    between atoms: N_11  and  N_12
REMARK    5  A    between atoms: N_12  and  C_13
REMARK    6  A    between atoms: C_13  and  N_15
REMARK    7  A    between atoms: N_15  and  C_16
REMARK    8  A    between atoms: C_23  and  O_25
REMARK                            x       y       z     vdW  Elec       q    Type
REMARK                         _______ _______ _______ _____ _____    ______ ____
ROOT
ATOM      1  C   UNL     1      -1.639   0.100  -0.432  0.00  0.00    -0.044 A 
ATOM      2  C   UNL     1      -2.432   0.361   0.675  0.00  0.00    +0.006 A 
ATOM      3  C   UNL     1      -3.613  -0.321   0.873  0.00  0.00    +0.029 A 
ATOM      4  C   UNL     1      -4.024  -1.290  -0.049  0.00  0.00    +0.077 A 
ATOM      5  C   UNL     1      -3.211  -1.548  -1.171  0.00  0.00    +0.033 A 
ATOM      6  C   UNL     1      -2.027  -0.848  -1.358  0.00  0.00    +0.016 A 
ATOM      7  C   UNL     1      -3.913  -2.604  -1.935  0.00  0.00    +0.152 C 
ATOM      8  N   UNL     1      -3.538  -3.171  -3.059  0.00  0.00    -0.175 NA
ATOM      9  C   UNL     1      -5.129  -2.874  -1.145  0.00  0.00    +0.241 C 
ATOM     10  N   UNL     1      -5.119  -2.093  -0.096  0.00  0.00    -0.211 NA
ENDROOT
BRANCH   1  12
ATOM     11  C   UNL     1      -0.650   2.356  -0.723  0.00  0.00    +0.012 C 
ATOM     12  C   UNL     1      -0.351   0.858  -0.628  0.00  0.00    +0.013 C 
ATOM     13  C   UNL     1       0.580   0.599   0.559  0.00  0.00    +0.012 C 
ENDBRANCH   1  12
BRANCH   8  14
ATOM     14  N   UNL     1      -4.273  -4.084  -3.597  0.00  0.00    -0.217 N 
ATOM     15  H   UNL     1      -5.103  -4.351  -3.172  0.00  0.00    +0.176 HD
BRANCH  14  16
ATOM     16  C   UNL     1      -3.889  -4.666  -4.750  0.00  0.00    +0.154 C 
ATOM     17  S   UNL     1      -4.865  -5.878  -5.465  0.00  0.00    -0.017 S 
BRANCH  16  18
ATOM     18  N   UNL     1      -2.736  -4.295  -5.341  0.00  0.00    -0.293 N 
ATOM     19  H   UNL     1      -2.214  -3.566  -4.971  0.00  0.00    +0.154 HD
BRANCH  18  20
ATOM     20  C   UNL     1      -2.291  -4.961  -6.489  0.00  0.00    +0.068 A 
ATOM     21  C   UNL     1      -3.168  -5.202  -7.537  0.00  0.00    +0.026 A 
ATOM     22  C   UNL     1      -2.726  -5.860  -8.669  0.00  0.00    +0.002 A 
ATOM     23  C   UNL     1      -1.411  -6.279  -8.759  0.00  0.00    +0.003 A 
ATOM     24  C   UNL     1      -0.533  -6.041  -7.718  0.00  0.00    +0.040 A 
ATOM     25  C   UNL     1      -0.967  -5.378  -6.584  0.00  0.00    +0.144 A 
ATOM     26  F   UNL     1      -0.108  -5.140  -5.569  0.00  0.00    -0.204 F 
ENDBRANCH  18  20
ENDBRANCH  16  18
ENDBRANCH  14  16
ENDBRANCH   8  14
BRANCH   9  27
ATOM     27  O   UNL     1      -6.091  -3.775  -1.454  0.00  0.00    -0.491 OA
ATOM     28  H   UNL     1      -6.816  -3.812  -0.815  0.00  0.00    +0.294 HD
ENDBRANCH   9  27
TORSDOF 6
