REMARK  Name = ZINC06050017
REMARK  7 active torsions:
REMARK  status: ('A' for Active; 'I' for Inactive)
REMARK    1  A    between atoms: C_1  and  C_2
REMARK    2  A    between atoms: C_2  and  C_3
REMARK    3  A    between atoms: C_2  and  C_4
REMARK    4  A    between atoms: C_7  and  C_10
REMARK    5  A    between atoms: N_11  and  N_12
REMARK    6  A    between atoms: C_13  and  C_15
REMARK    7  A    between atoms: N_17  and  C_18
REMARK                            x       y       z     vdW  Elec       q    Type
REMARK                         _______ _______ _______ _____ _____    ______ ____
ROOT
ATOM      1  N   UNL     1      -7.131  -3.228  -0.921  0.00  0.00    -0.199 N 
ATOM      2  C   UNL     1      -7.570  -4.005  -1.930  0.00  0.00    +0.318 C 
ATOM      3  O   UNL     1      -6.829  -4.280  -2.852  0.00  0.00    -0.263 OA
ATOM      4  H   UNL     1      -7.723  -3.008  -0.185  0.00  0.00    +0.178 HD
ENDROOT
BRANCH   2   5
ATOM      5  C   UNL     1      -8.966  -4.529  -1.915  0.00  0.00    +0.305 C 
ATOM      6  O   UNL     1      -9.707  -4.254  -0.994  0.00  0.00    -0.265 OA
ATOM      7  N   UNL     1      -9.405  -5.307  -2.924  0.00  0.00    -0.278 N 
ATOM      8  H   UNL     1      -8.836  -5.471  -3.693  0.00  0.00    +0.155 HD
BRANCH   7   9
ATOM      9  C   UNL     1     -10.680  -5.876  -2.864  0.00  0.00    +0.037 A 
ATOM     10  C   UNL     1     -10.902  -7.143  -3.389  0.00  0.00    +0.043 A 
ATOM     11  C   UNL     1     -12.163  -7.704  -3.328  0.00  0.00    +0.044 A 
ATOM     12  C   UNL     1     -13.205  -7.005  -2.743  0.00  0.00    +0.040 A 
ATOM     13  C   UNL     1     -12.987  -5.743  -2.219  0.00  0.00    +0.044 A 
ATOM     14  C   UNL     1     -11.726  -5.179  -2.273  0.00  0.00    +0.043 A 
ATOM     15 CL   UNL     1     -14.297  -4.870  -1.487  0.00  0.00    -0.083 Cl
ATOM     16 CL   UNL     1     -12.442  -9.286  -3.985  0.00  0.00    -0.083 Cl
ENDBRANCH   7   9
ENDBRANCH   2   5
BRANCH   1  18
ATOM     17  C   UNL     1      -5.396  -1.986   0.037  0.00  0.00    +0.138 C 
ATOM     18  N   UNL     1      -5.819  -2.736  -0.935  0.00  0.00    -0.187 NA
BRANCH  17  22
ATOM     19  C   UNL     1      -1.422  -0.497  -0.006  0.00  0.00    -0.045 A 
ATOM     20  C   UNL     1      -2.264  -0.182   1.046  0.00  0.00    +0.004 A 
ATOM     21  C   UNL     1      -3.557  -0.662   1.067  0.00  0.00    +0.010 A 
ATOM     22  C   UNL     1      -4.016  -1.469   0.022  0.00  0.00    -0.005 A 
ATOM     23  C   UNL     1      -3.160  -1.783  -1.037  0.00  0.00    +0.010 A 
ATOM     24  C   UNL     1      -1.871  -1.292  -1.046  0.00  0.00    +0.004 A 
BRANCH  19  26
ATOM     25  C   UNL     1      -0.039   1.561  -0.007  0.00  0.00    +0.012 C 
ATOM     26  C   UNL     1      -0.011   0.031  -0.021  0.00  0.00    +0.013 C 
ATOM     27  C   UNL     1       0.737  -0.477   1.213  0.00  0.00    +0.012 C 
ENDBRANCH  19  26
ENDBRANCH  17  22
ENDBRANCH   1  18
TORSDOF 5
