REMARK  Name = ZINC44559470
REMARK  6 active torsions:
REMARK  status: ('A' for Active; 'I' for Inactive)
REMARK    1  A    between atoms: C_4  and  C_7
REMARK    2  A    between atoms: C_7  and  C_10
REMARK    3  A    between atoms: N_8  and  O_9
REMARK    4  A    between atoms: N_11  and  O_12
REMARK    5  A    between atoms: N_13  and  C_14
REMARK    6  A    between atoms: C_16  and  C_20
REMARK                            x       y       z     vdW  Elec       q    Type
REMARK                         _______ _______ _______ _____ _____    ______ ____
ROOT
ATOM      1  C   UNL     1       3.708  -2.168   0.068  0.00  0.00    +0.192 C 
ATOM      2  N   UNL     1       2.585  -2.825   0.075  0.00  0.00    -0.069 NA
ATOM      3  N   UNL     1       4.911  -2.851   0.162  0.00  0.00    -0.280 N 
ATOM      4  H   UNL     1       5.748  -2.361   0.157  0.00  0.00    +0.155 HD
ENDROOT
BRANCH   3   5
ATOM      5  C   UNL     1       4.918  -4.240   0.264  0.00  0.00    +0.120 A 
ATOM      6  C   UNL     1       3.825  -5.048   0.278  0.00  0.00    +0.073 A 
ATOM      7  C   UNL     1       4.274  -6.377   0.394  0.00  0.00    +0.094 A 
ATOM      8  N   UNL     1       5.589  -6.362   0.447  0.00  0.00    -0.172 NA
ATOM      9  N   UNL     1       6.018  -5.032   0.362  0.00  0.00    -0.263 N 
ATOM     10  H   UNL     1       6.939  -4.728   0.374  0.00  0.00    +0.190 HD
BRANCH   7  11
ATOM     11  C   UNL     1       3.414  -7.585   0.447  0.00  0.00    +0.002 A 
ATOM     12  C   UNL     1       2.028  -7.461   0.375  0.00  0.00    +0.011 A 
ATOM     13  C   UNL     1       1.233  -8.588   0.425  0.00  0.00    +0.016 A 
ATOM     14  C   UNL     1       1.810  -9.840   0.546  0.00  0.00    +0.018 A 
ATOM     15  C   UNL     1       3.186  -9.969   0.619  0.00  0.00    +0.016 A 
ATOM     16  C   UNL     1       3.990  -8.849   0.563  0.00  0.00    +0.011 A 
ATOM     17 BR   UNL     1       0.714 -11.380   0.615  0.00  0.00    -0.050 Br
ENDBRANCH   7  11
ENDBRANCH   3   5
BRANCH   1  18
ATOM     18  C   UNL     1       3.701  -0.693  -0.041  0.00  0.00    +0.153 C 
ATOM     19  N   UNL     1       4.824  -0.043  -0.156  0.00  0.00    -0.083 NA
BRANCH  18  23
ATOM     20  C   UNL     1       0.017   1.426   0.023  0.00  0.00    +0.000 A 
ATOM     21  C   UNL     1       0.636   1.085   1.212  0.00  0.00    +0.001 A 
ATOM     22  C   UNL     1       1.832   0.397   1.198  0.00  0.00    +0.010 A 
ATOM     23  C   UNL     1       2.416   0.046  -0.018  0.00  0.00    +0.007 A 
ATOM     24  C   UNL     1       1.788   0.393  -1.214  0.00  0.00    +0.010 A 
ATOM     25  C   UNL     1       0.592   1.081  -1.187  0.00  0.00    +0.001 A 
ENDBRANCH  18  23
BRANCH  19  26
ATOM     26  O   UNL     1       4.826   1.373  -0.152  0.00  0.00    -0.409 OA
ATOM     27  H   UNL     1       5.705   1.765  -0.242  0.00  0.00    +0.328 HD
ENDBRANCH  19  26
ENDBRANCH   1  18
BRANCH   2  28
ATOM     28  O   UNL     1       1.355  -2.125   0.088  0.00  0.00    -0.408 OA
ATOM     29  H   UNL     1       0.578  -2.695   0.170  0.00  0.00    +0.328 HD
ENDBRANCH   2  28
TORSDOF 6
