REMARK  Name = ZINC65372320
REMARK  3 active torsions:
REMARK  status: ('A' for Active; 'I' for Inactive)
REMARK    1  A    between atoms: N_3  and  C_18
REMARK    2  A    between atoms: C_8  and  C_12
REMARK    3  A    between atoms: N_14  and  C_15
REMARK                            x       y       z     vdW  Elec       q    Type
REMARK                         _______ _______ _______ _____ _____    ______ ____
ROOT
ATOM      1  C   UNL     1      -0.019   1.532   0.011  0.00  0.00    +0.032 C 
ATOM      2  C   UNL     1       1.457   2.048  -0.001  0.00  0.00    +0.088 C 
ATOM      3  N   UNL     1       2.334   1.093   0.652  0.00  0.00    -0.275 NA
ATOM      4  C   UNL     1       2.938   0.114  -0.252  0.00  0.00    +0.111 C 
ATOM      5  C   UNL     1       2.040  -1.042  -0.549  0.00  0.00    +0.115 C 
ATOM      6  C   UNL     1       2.497  -1.978  -1.634  0.00  0.00    +0.024 C 
ATOM      7  C   UNL     1       1.420  -2.181  -2.413  0.00  0.00    +0.101 C 
ATOM      8  N   UNL     1       0.316  -1.473  -1.900  0.00  0.00    -0.273 N 
ATOM      9  N   UNL     1       0.798  -0.437  -1.154  0.00  0.00    -0.221 NA
ATOM     10  C   UNL     1       0.002  -0.004   0.002  0.00  0.00    +0.107 C 
ATOM     11  H   UNL     1      -0.619  -1.685  -2.043  0.00  0.00    +0.167 HD
ENDROOT
BRANCH   3  12
ATOM     12  C   UNL     1       3.361   1.780   1.446  0.00  0.00    +0.214 C 
ATOM     13  C   UNL     1       2.673   2.538   2.552  0.00  0.00    +0.055 C 
ATOM     14  C   UNL     1       1.863   2.265   3.577  0.00  0.00    +0.145 C 
ATOM     15  N   UNL     1       1.588   3.418   4.222  0.00  0.00    -0.155 NA
ATOM     16  N   UNL     1       2.172   4.429   3.679  0.00  0.00    -0.131 NA
ATOM     17  C   UNL     1       2.897   4.005   2.603  0.00  0.00    +0.164 C 
ATOM     18  N   UNL     1       3.663   4.559   1.706  0.00  0.00    -0.311 N 
ATOM     19  C   UNL     1       4.277   3.875   0.717  0.00  0.00    +0.189 C 
ATOM     20  N   UNL     1       4.184   2.596   0.531  0.00  0.00    -0.230 NA
ATOM     21  N   UNL     1       5.061   4.594  -0.164  0.00  0.00    -0.329 N 
ATOM     22  H   UNL     1       5.154   5.554  -0.059  0.00  0.00    +0.145 HD
ATOM     23  H   UNL     1       5.519   4.140  -0.889  0.00  0.00    +0.145 HD
ATOM     24  H   UNL     1       3.800   5.518   1.752  0.00  0.00    +0.170 HD
ENDBRANCH   3  12
BRANCH   7  25
ATOM     25  C   UNL     1       1.398  -3.021  -3.627  0.00  0.00    +0.259 C 
ATOM     26  O   UNL     1       2.408  -3.593  -3.988  0.00  0.00    -0.269 OA
ATOM     27  N   UNL     1       0.259  -3.154  -4.334  0.00  0.00    -0.307 N 
ATOM     28  H   UNL     1      -0.547  -2.698  -4.046  0.00  0.00    +0.149 HD
BRANCH  27  29
ATOM     29  C   UNL     1       0.237  -3.988  -5.538  0.00  0.00    +0.073 C 
ATOM     30  C   UNL     1      -0.489  -3.436  -6.767  0.00  0.00    +0.024 C 
ATOM     31  C   UNL     1      -1.108  -4.581  -5.963  0.00  0.00    +0.024 C 
ENDBRANCH  27  29
ENDBRANCH   7  25
TORSDOF 3
