REMARK  Name = ZINC19819839
REMARK  8 active torsions:
REMARK  status: ('A' for Active; 'I' for Inactive)
REMARK    1  A    between atoms: C_1  and  C_2
REMARK    2  A    between atoms: C_3  and  S_8
REMARK    3  A    between atoms: C_4  and  C_7
REMARK    4  A    between atoms: S_8  and  N_11
REMARK    5  A    between atoms: N_11  and  C_12
REMARK    6  A    between atoms: C_12  and  C_13
REMARK    7  A    between atoms: C_13  and  C_15
REMARK    8  A    between atoms: C_13  and  N_24
REMARK                            x       y       z     vdW  Elec       q    Type
REMARK                         _______ _______ _______ _____ _____    ______ ____
ROOT
ATOM      1  C   UNL     1       0.003  -0.027  -0.208  0.00  0.00    +0.102 C 
ENDROOT
BRANCH   1   2
ATOM      2  C   UNL     1      -1.432  -0.483  -0.138  0.00  0.00    -0.025 A 
ATOM      3  C   UNL     1      -2.288  -0.234  -1.194  0.00  0.00    +0.009 A 
ATOM      4  C   UNL     1      -3.604  -0.651  -1.135  0.00  0.00    +0.050 A 
ATOM      5  C   UNL     1      -4.069  -1.320  -0.015  0.00  0.00    +0.166 A 
ATOM      6  C   UNL     1      -3.207  -1.572   1.050  0.00  0.00    +0.167 A 
ATOM      7  C   UNL     1      -1.887  -1.156   0.981  0.00  0.00    +0.054 A 
ATOM      8  O   UNL     1      -3.897  -2.238   2.022  0.00  0.00    -0.453 OA
ATOM      9  C   UNL     1      -5.076  -2.750   1.374  0.00  0.00    +0.466 C 
ATOM     10  O   UNL     1      -5.299  -1.829   0.290  0.00  0.00    -0.453 OA
ENDBRANCH   1   2
BRANCH   1  11
ATOM     11  N   UNL     1       0.519  -0.242  -1.566  0.00  0.00    -0.290 NA
ATOM     12  C   UNL     1       1.935  -0.638  -1.535  0.00  0.00    +0.113 C 
ATOM     13  C   UNL     1       2.414  -0.909  -2.964  0.00  0.00    +0.175 C 
ATOM     14  O   UNL     1       2.196   0.256  -3.764  0.00  0.00    -0.377 OA
ATOM     15  C   UNL     1       0.827   0.669  -3.817  0.00  0.00    +0.175 C 
ATOM     16  C   UNL     1       0.332   0.956  -2.397  0.00  0.00    +0.113 C 
ENDBRANCH   1  11
BRANCH   1  17
ATOM     17  C   UNL     1       0.082   1.461   0.138  0.00  0.00    +0.129 C 
BRANCH  17  18
ATOM     18  N   UNL     1       1.484   1.888   0.141  0.00  0.00    -0.188 NA
ATOM     19  H   UNL     1       2.278   1.164   0.374  0.00  0.00    +0.148 HD
BRANCH  18  20
ATOM     20  S   UNL     1       1.859   3.498   0.041  0.00  0.00    +0.064 S 
ATOM     21  O   UNL     1       3.276   3.588   0.094  0.00  0.00    -0.153 OA
ATOM     22  O   UNL     1       1.102   4.025  -1.040  0.00  0.00    -0.153 OA
BRANCH  20  25
ATOM     23  C   UNL     1      -1.151   4.937   0.726  0.00  0.00    +0.071 C 
ATOM     24  C   UNL     1      -0.021   4.848   1.718  0.00  0.00    +0.107 A 
ATOM     25  C   UNL     1       1.250   4.267   1.505  0.00  0.00    +0.169 A 
ATOM     26  C   UNL     1       1.893   4.444   2.683  0.00  0.00    +0.161 A 
ATOM     27  O   UNL     1       1.033   5.075   3.494  0.00  0.00    -0.358 OA
ATOM     28  N   UNL     1      -0.023   5.287   2.944  0.00  0.00    -0.081 NA
ATOM     29  C   UNL     1       3.299   4.015   3.017  0.00  0.00    +0.091 C 
ENDBRANCH  20  25
ENDBRANCH  18  20
ENDBRANCH  17  18
ENDBRANCH   1  17
TORSDOF 6
