REMARK  Name = ZINC38112902
REMARK  5 active torsions:
REMARK  status: ('A' for Active; 'I' for Inactive)
REMARK    1  A    between atoms: C_4  and  N_7
REMARK    2  A    between atoms: N_7  and  CA_8
REMARK    3  A    between atoms: CA_8  and  C_10
REMARK    4  A    between atoms: CA_8  and  C_12
REMARK    5  A    between atoms: C_10  and  O_11
REMARK                            x       y       z     vdW  Elec       q    Type
REMARK                         _______ _______ _______ _____ _____    ______ ____
ROOT
ATOM      1  CA  UNL     1       3.641  -2.114  -0.044  0.00  0.00    +0.126 C 
ENDROOT
BRANCH   1   2
ATOM      2  C   UNL     1       4.942  -2.600   0.541  0.00  0.00    -0.020 A 
ATOM      3  C   UNL     1       4.954  -3.704   1.374  0.00  0.00    +0.055 A 
ATOM      4  C   UNL     1       6.149  -4.153   1.913  0.00  0.00    +0.168 A 
ATOM      5  C   UNL     1       7.337  -3.491   1.613  0.00  0.00    +0.184 A 
ATOM      6  C   UNL     1       7.318  -2.385   0.778  0.00  0.00    +0.087 A 
ATOM      7  C   UNL     1       6.122  -1.946   0.239  0.00  0.00    +0.029 A 
ATOM      8 CL   UNL     1       8.796  -1.556   0.402  0.00  0.00    -0.080 Cl
ATOM      9  O   UNL     1       8.362  -4.120   2.259  0.00  0.00    -0.451 OA
ATOM     10  C   UNL     1       7.738  -4.923   3.279  0.00  0.00    +0.466 C 
ATOM     11  O   UNL     1       6.429  -5.197   2.746  0.00  0.00    -0.453 OA
ENDBRANCH   1   2
BRANCH   1  12
ATOM     12  N   UNL     1       3.620  -0.649  -0.036  0.00  0.00    -0.335 N 
ATOM     13  H   UNL     1       4.452  -0.152  -0.042  0.00  0.00    +0.147 HD
BRANCH  12  17
ATOM     14  C   UNL     1      -0.017   1.379   0.010  0.00  0.00    +0.000 A 
ATOM     15  C   UNL     1       1.169   2.089   0.002  0.00  0.00    +0.002 A 
ATOM     16  C   UNL     1       2.377   1.420  -0.013  0.00  0.00    +0.023 A 
ATOM     17  C   UNL     1       2.400   0.031  -0.021  0.00  0.00    +0.028 A 
ATOM     18  C   UNL     1       1.206  -0.680  -0.013  0.00  0.00    +0.023 A 
ATOM     19  C   UNL     1       0.002  -0.004   0.002  0.00  0.00    +0.002 A 
ENDBRANCH  12  17
ENDBRANCH   1  12
BRANCH   1  20
ATOM     20  C   UNL     1       3.509  -2.618  -1.483  0.00  0.00    +0.182 C 
BRANCH  20  21
ATOM     21  O   UNL     1       4.657  -2.219  -2.235  0.00  0.00    -0.393 OA
ATOM     22  H   UNL     1       4.641  -2.505  -3.159  0.00  0.00    +0.209 HD
ENDBRANCH  20  21
ENDBRANCH   1  20
TORSDOF 5
