REMARK  Name = ZINC04292584
REMARK  6 active torsions:
REMARK  status: ('A' for Active; 'I' for Inactive)
REMARK    1  A    between atoms: C_4  and  N_7
REMARK    2  A    between atoms: C_10  and  C_12
REMARK    3  A    between atoms: C_16  and  C_24
REMARK    4  A    between atoms: C_18  and  C_22
REMARK    5  A    between atoms: C_19  and  N_21
REMARK    6  A    between atoms: C_27  and  O_30
REMARK                            x       y       z     vdW  Elec       q    Type
REMARK                         _______ _______ _______ _____ _____    ______ ____
ROOT
ATOM      1  N   UNL     1      -2.458   3.824   0.046  0.00  0.00    -0.199 N 
ATOM      2  C   UNL     1      -3.595   3.441  -0.576  0.00  0.00    +0.230 A 
ATOM      3  C   UNL     1      -4.548   4.384  -0.308  0.00  0.00    +0.059 A 
ATOM      4  C   UNL     1      -3.971   5.365   0.488  0.00  0.00    +0.173 A 
ATOM      5  N   UNL     1      -2.719   5.036   0.704  0.00  0.00    -0.159 NA
ATOM      6  C   UNL     1      -5.956   4.290  -0.837  0.00  0.00    +0.102 C 
ATOM      7  C   UNL     1      -6.158   2.903  -1.393  0.00  0.00    +0.098 C 
ATOM      8  C   UNL     1      -5.133   2.047  -1.598  0.00  0.00    +0.200 C 
ATOM      9  O   UNL     1      -3.845   2.340  -1.327  0.00  0.00    -0.423 OA
ENDROOT
BRANCH   1  13
ATOM     10  C   UNL     1       1.176   1.783   0.000  0.00  0.00    +0.000 A 
ATOM     11  C   UNL     1      -0.013   1.076   0.008  0.00  0.00    +0.002 A 
ATOM     12  C   UNL     1      -1.218   1.749   0.017  0.00  0.00    +0.028 A 
ATOM     13  C   UNL     1      -1.236   3.138   0.031  0.00  0.00    +0.069 A 
ATOM     14  C   UNL     1      -0.041   3.845   0.023  0.00  0.00    +0.028 A 
ATOM     15  C   UNL     1       1.161   3.166   0.008  0.00  0.00    +0.002 A 
ENDBRANCH   1  13
BRANCH   6  16
ATOM     16  C   UNL     1      -6.158   5.309  -1.928  0.00  0.00    -0.034 A 
ATOM     17  C   UNL     1      -5.369   5.271  -3.063  0.00  0.00    +0.008 A 
ATOM     18  C   UNL     1      -5.557   6.201  -4.067  0.00  0.00    +0.046 A 
ATOM     19  C   UNL     1      -6.529   7.181  -3.931  0.00  0.00    +0.117 A 
ATOM     20  C   UNL     1      -7.315   7.221  -2.789  0.00  0.00    +0.046 A 
ATOM     21  C   UNL     1      -7.128   6.285  -1.790  0.00  0.00    +0.008 A 
BRANCH  19  22
ATOM     22  O   UNL     1      -6.712   8.100  -4.915  0.00  0.00    -0.507 OA
ATOM     23  H   UNL     1      -6.175   8.898  -4.813  0.00  0.00    +0.292 HD
ENDBRANCH  19  22
ENDBRANCH   6  16
BRANCH   4  24
ATOM     24  C   UNL     1      -4.664   6.596   1.014  0.00  0.00    +0.436 C 
ATOM     25  F   UNL     1      -3.737   7.404   1.681  0.00  0.00    -0.164 F 
ATOM     26  F   UNL     1      -5.221   7.309  -0.053  0.00  0.00    -0.164 F 
ATOM     27  F   UNL     1      -5.677   6.218   1.902  0.00  0.00    -0.164 F 
ENDBRANCH   4  24
BRANCH   8  28
ATOM     28  N   UNL     1      -5.419   0.807  -2.113  0.00  0.00    -0.328 N 
ATOM     29  H   UNL     1      -6.336   0.567  -2.318  0.00  0.00    +0.145 HD
ATOM     30  H   UNL     1      -4.704   0.171  -2.272  0.00  0.00    +0.145 HD
ENDBRANCH   8  28
BRANCH   7  31
ATOM     31  C   UNL     1      -7.487   2.477  -1.715  0.00  0.00    +0.101 C 
ATOM     32  N   UNL     1      -8.541   2.139  -1.971  0.00  0.00    -0.191 NA
ENDBRANCH   7  31
TORSDOF 6
