REMARK  Name = ZINC13313488
REMARK  13 active torsions:
REMARK  status: ('A' for Active; 'I' for Inactive)
REMARK    1  A    between atoms: C_1  and  C_2
REMARK    2  A    between atoms: C_2  and  C_3
REMARK    3  A    between atoms: C_2  and  C_4
REMARK    4  A    between atoms: C_4  and  C_5
REMARK    5  A    between atoms: C_8  and  C_11
REMARK    6  A    between atoms: C_11  and  C_13
REMARK    7  A    between atoms: C_11  and  N_18
REMARK    8  A    between atoms: N_18  and  S_19
REMARK    9  A    between atoms: S_19  and  C_22
REMARK   10  A    between atoms: C_24  and  C_30
REMARK   11  A    between atoms: C_27  and  O_28
REMARK   12  A    between atoms: O_28  and  C_29
REMARK   13  A    between atoms: C_31  and  C_32
REMARK                            x       y       z     vdW  Elec       q    Type
REMARK                         _______ _______ _______ _____ _____    ______ ____
ROOT
ATOM      1  N   UNL     1      -2.935   1.157   1.489  0.00  0.00    -0.178 NA
ATOM      2  H   UNL     1      -3.628   0.836   2.086  0.00  0.00    +0.149 HD
ENDROOT
BRANCH   1   3
ATOM      3  S   UNL     1      -2.711   0.434   0.016  0.00  0.00    +0.063 S 
ATOM      4  O   UNL     1      -3.693  -0.587  -0.089  0.00  0.00    -0.153 OA
ATOM      5  O   UNL     1      -1.320   0.168  -0.099  0.00  0.00    -0.153 OA
BRANCH   3   6
ATOM      6  C   UNL     1      -3.098   1.633  -1.217  0.00  0.00    +0.147 A 
ATOM      7  C   UNL     1      -2.116   2.080  -2.072  0.00  0.00    +0.040 A 
ATOM      8  C   UNL     1      -2.425   3.033  -3.051  0.00  0.00    -0.023 A 
ATOM      9  C   UNL     1      -3.731   3.525  -3.154  0.00  0.00    +0.011 A 
ATOM     10  C   UNL     1      -4.706   3.067  -2.297  0.00  0.00    +0.048 A 
ATOM     11  C   UNL     1      -4.393   2.125  -1.323  0.00  0.00    +0.146 A 
BRANCH  11  12
ATOM     12  O   UNL     1      -5.357   1.681  -0.478  0.00  0.00    -0.493 OA
ATOM     13  C   UNL     1      -6.639   2.307  -0.569  0.00  0.00    +0.277 C 
ENDBRANCH  11  12
BRANCH   8  14
ATOM     14  C   UNL     1      -1.381   3.513  -3.967  0.00  0.00    +0.015 C 
ATOM     15  C   UNL     1      -1.681   4.432  -4.910  0.00  0.00    +0.096 C 
BRANCH  15  16
ATOM     16  C   UNL     1      -0.674   4.896  -5.794  0.00  0.00    +0.380 C 
ATOM     17  O   UNL     1       0.460   4.466  -5.703  0.00  0.00    -0.241 OA
ATOM     18  O   UNL     1      -0.974   5.814  -6.736  0.00  0.00    -0.241 OA
ENDBRANCH  15  16
ENDBRANCH   8  14
ENDBRANCH   3   6
ENDBRANCH   1   3
BRANCH   1  19
ATOM     19  C   UNL     1      -2.085   2.281   1.890  0.00  0.00    +0.143 C 
BRANCH  19  23
ATOM     20  C   UNL     1      -4.398   5.083   4.136  0.00  0.00    -0.047 A 
ATOM     21  C   UNL     1      -3.466   5.534   3.219  0.00  0.00    +0.004 A 
ATOM     22  C   UNL     1      -2.718   4.627   2.492  0.00  0.00    +0.006 A 
ATOM     23  C   UNL     1      -2.901   3.270   2.682  0.00  0.00    -0.024 A 
ATOM     24  C   UNL     1      -3.836   2.820   3.596  0.00  0.00    +0.006 A 
ATOM     25  C   UNL     1      -4.580   3.727   4.327  0.00  0.00    +0.004 A 
BRANCH  20  26
ATOM     26  C   UNL     1      -5.214   6.072   4.928  0.00  0.00    +0.038 C 
BRANCH  26  28
ATOM     27  C   UNL     1      -7.385   7.304   5.025  0.00  0.00    +0.007 C 
ATOM     28  C   UNL     1      -6.500   6.398   4.167  0.00  0.00    -0.013 C 
ATOM     29  C   UNL     1      -6.151   7.116   2.861  0.00  0.00    +0.007 C 
ENDBRANCH  26  28
ENDBRANCH  20  26
ENDBRANCH  19  23
BRANCH  19  30
ATOM     30  C   UNL     1      -0.948   1.773   2.738  0.00  0.00    +0.013 A 
ATOM     31  C   UNL     1       0.343   2.187   2.773  0.00  0.00    +0.013 A 
ATOM     32  C   UNL     1       1.221   1.571   3.644  0.00  0.00    +0.008 A 
ATOM     33  C   UNL     1       0.769   0.563   4.430  0.00  0.00    +0.045 A 
ATOM     34  S   UNL     1      -0.949   0.465   3.953  0.00  0.00    -0.100 S 
ENDBRANCH  19  30
ENDBRANCH   1  19
TORSDOF 10
