REMARK  Name = ZINC11936101
REMARK  7 active torsions:
REMARK  status: ('A' for Active; 'I' for Inactive)
REMARK    1  A    between atoms: C_1  and  O_2
REMARK    2  A    between atoms: O_2  and  C_3
REMARK    3  A    between atoms: C_7  and  C_11
REMARK    4  A    between atoms: C_8  and  O_9
REMARK    5  A    between atoms: O_9  and  C_10
REMARK    6  A    between atoms: C_25  and  C_26
REMARK    7  A    between atoms: C_25  and  N_53
REMARK                            x       y       z     vdW  Elec       q    Type
REMARK                         _______ _______ _______ _____ _____    ______ ____
ROOT
ATOM      1  C   UNL     1       0.002   1.110   0.059  0.00  0.00    +0.015 C 
ATOM      2  C   UNL     1      -0.586   1.145  -1.331  0.00  0.00    +0.011 A 
ATOM      3  C   UNL     1      -1.844   1.585  -1.584  0.00  0.00    -0.022 A 
ATOM      4  C   UNL     1      -2.054   1.474  -3.010  0.00  0.00    +0.003 A 
ATOM      5  C   UNL     1      -3.141   1.775  -3.838  0.00  0.00    +0.010 A 
ATOM      6  C   UNL     1      -2.984   1.535  -5.180  0.00  0.00    +0.001 A 
ATOM      7  C   UNL     1      -1.810   1.021  -5.704  0.00  0.00    +0.002 A 
ATOM      8  C   UNL     1      -0.702   0.713  -4.912  0.00  0.00    +0.026 A 
ATOM      9  C   UNL     1      -0.836   0.946  -3.545  0.00  0.00    +0.047 A 
ATOM     10  N   UNL     1       0.020   0.762  -2.497  0.00  0.00    -0.359 N 
ATOM     11  H   UNL     1       0.922   0.411  -2.568  0.00  0.00    +0.166 HD
ATOM     12  C   UNL     1      -2.785   2.082  -0.516  0.00  0.00    +0.019 C 
ATOM     13  C   UNL     1      -2.239   1.629   0.845  0.00  0.00    -0.072 C 
ATOM     14  N   UNL     1      -0.807   1.998   0.928  0.00  0.00    +0.393 N 
ATOM     15  H   UNL     1      -0.695   2.967   0.609  0.00  0.00    -0.080 HD
ENDROOT
BRANCH   1  20
ATOM     16  C   UNL     1       3.786   1.206   0.058  0.00  0.00    +0.162 A 
ATOM     17  C   UNL     1       4.023   2.567  -0.043  0.00  0.00    +0.049 A 
ATOM     18  C   UNL     1       2.961   3.450  -0.110  0.00  0.00    +0.004 A 
ATOM     19  C   UNL     1       1.662   2.978  -0.083  0.00  0.00    +0.006 A 
ATOM     20  C   UNL     1       1.419   1.621   0.024  0.00  0.00    -0.010 A 
ATOM     21  C   UNL     1       2.479   0.730   0.091  0.00  0.00    +0.163 A 
BRANCH  16  23
ATOM     22  C   UNL     1       6.144   0.895   0.085  0.00  0.00    +0.277 C 
ATOM     23  O   UNL     1       4.829   0.336   0.124  0.00  0.00    -0.491 OA
ENDBRANCH  16  23
BRANCH  21  24
ATOM     24  O   UNL     1       2.241  -0.605   0.190  0.00  0.00    -0.491 OA
ATOM     25  C   UNL     1       2.271  -1.360  -1.023  0.00  0.00    +0.277 C 
ENDBRANCH  21  24
ENDBRANCH   1  20
BRANCH  14  26
ATOM     26  C   UNL     1      -0.341   1.896   2.326  0.00  0.00    -0.002 C 
BRANCH  26  27
ATOM     27  C   UNL     1      -1.027   2.960   3.144  0.00  0.00    +0.090 A 
ATOM     28  N   UNL     1      -2.142   2.786   3.885  0.00  0.00    -0.350 N 
ATOM     29  H   UNL     1      -2.659   1.936   3.990  0.00  0.00    +0.166 HD
ATOM     30  C   UNL     1      -2.433   3.990   4.467  0.00  0.00    +0.103 A 
ATOM     31  C   UNL     1      -1.487   4.858   4.061  0.00  0.00    +0.130 A 
ATOM     32  N   UNL     1      -0.637   4.200   3.258  0.00  0.00    -0.243 NA
ENDBRANCH  26  27
ENDBRANCH  14  26
TORSDOF 5
