REMARK  Name = ZINC38742059
REMARK  4 active torsions:
REMARK  status: ('A' for Active; 'I' for Inactive)
REMARK    1  A    between atoms: C_1  and  C_2
REMARK    2  A    between atoms: C_4  and  C_8
REMARK    3  A    between atoms: C_16  and  C_18
REMARK    4  A    between atoms: C_18  and  C_19
REMARK                            x       y       z     vdW  Elec       q    Type
REMARK                         _______ _______ _______ _____ _____    ______ ____
ROOT
ATOM      1  C   UNL     1      -0.964  -2.951   1.248  0.00  0.00    +0.206 C 
ATOM      2  N   UNL     1      -2.440  -3.083   1.284  0.00  0.00    -0.231 NA
ATOM      3  N   UNL     1      -2.730  -4.524   1.382  0.00  0.00    -0.224 NA
ATOM      4  C   UNL     1      -1.498  -5.067   1.988  0.00  0.00    +0.240 C 
ATOM      5  N   UNL     1      -0.442  -4.336   1.213  0.00  0.00    -0.206 N 
ATOM      6  N   UNL     1       0.533  -5.159   0.693  0.00  0.00    -0.178 NA
ATOM      7  C   UNL     1       0.416  -6.444   0.628  0.00  0.00    +0.099 C 
ATOM      8  S   UNL     1      -1.176  -6.785   1.441  0.00  0.00    -0.067 S 
ATOM      9  H   UNL     1      -2.829  -2.582   2.068  0.00  0.00    +0.143 HD
ATOM     10  H   UNL     1      -2.890  -4.923   0.469  0.00  0.00    +0.144 HD
ENDROOT
BRANCH   1  14
ATOM     11  C   UNL     1      -0.018   1.503   0.010  0.00  0.00    +0.067 C 
ATOM     12  C   UNL     1       0.002  -0.004   0.002  0.00  0.00    +0.058 C 
ATOM     13  C   UNL     1      -1.086  -0.777   0.003  0.00  0.00    +0.029 C 
ATOM     14  C   UNL     1      -0.531  -2.190  -0.007  0.00  0.00    +0.190 C 
ATOM     15  N   UNL     1       0.926  -1.973  -0.013  0.00  0.00    -0.177 NA
ATOM     16  N   UNL     1       1.125  -0.756  -0.013  0.00  0.00    -0.159 NA
ENDBRANCH   1  14
BRANCH   7  17
ATOM     17  C   UNL     1       1.380  -7.435   0.028  0.00  0.00    +0.099 C 
BRANCH  17  18
ATOM     18  C   UNL     1       2.575  -6.702  -0.525  0.00  0.00    -0.041 A 
ATOM     19  C   UNL     1       2.568  -6.257  -1.834  0.00  0.00    +0.005 A 
ATOM     20  C   UNL     1       3.664  -5.585  -2.341  0.00  0.00    +0.020 A 
ATOM     21  C   UNL     1       4.768  -5.357  -1.539  0.00  0.00    +0.041 A 
ATOM     22  C   UNL     1       4.774  -5.802  -0.229  0.00  0.00    +0.020 A 
ATOM     23  C   UNL     1       3.675  -6.470   0.279  0.00  0.00    +0.005 A 
ATOM     24 CL   UNL     1       6.145  -4.513  -2.176  0.00  0.00    -0.084 Cl
ENDBRANCH  17  18
ENDBRANCH   7  17
TORSDOF 3
