REMARK  Name = ZINC03303586
REMARK  9 active torsions:
REMARK  status: ('A' for Active; 'I' for Inactive)
REMARK    1  A    between atoms: C_1  and  O_2
REMARK    2  A    between atoms: O_2  and  C_3
REMARK    3  A    between atoms: C_6  and  O_9
REMARK    4  A    between atoms: O_9  and  C_10
REMARK    5  A    between atoms: C_10  and  C_11
REMARK    6  A    between atoms: C_11  and  S_12
REMARK    7  A    between atoms: S_12  and  C_13
REMARK    8  A    between atoms: C_16  and  C_25
REMARK    9  A    between atoms: N_17  and  C_18
REMARK                            x       y       z     vdW  Elec       q    Type
REMARK                         _______ _______ _______ _____ _____    ______ ____
ROOT
ATOM      1  C   UNL     1       4.035  -6.582  -7.043  0.00  0.00    +0.196 A 
ATOM      2  N   UNL     1       4.530  -5.734  -7.914  0.00  0.00    -0.122 NA
ATOM      3  N   UNL     1       5.083  -6.367  -8.886  0.00  0.00    -0.128 NA
ATOM      4  C   UNL     1       4.976  -7.663  -8.697  0.00  0.00    +0.171 A 
ATOM      5  N   UNL     1       4.306  -7.843  -7.507  0.00  0.00    -0.270 N 
ENDROOT
BRANCH   4   6
ATOM      6  C   UNL     1       5.483  -8.725  -9.588  0.00  0.00    +0.045 A 
ATOM      7  C   UNL     1       5.369 -10.065  -9.400  0.00  0.00    +0.095 A 
ATOM      8  N   UNL     1       5.960 -10.727 -10.437  0.00  0.00    -0.360 N 
ATOM      9  H   UNL     1       6.006 -11.692 -10.525  0.00  0.00    +0.165 HD
ATOM     10  C   UNL     1       6.482  -9.828 -11.341  0.00  0.00    +0.047 A 
ATOM     11  C   UNL     1       6.205  -8.537 -10.858  0.00  0.00    +0.010 A 
ATOM     12  C   UNL     1       6.616  -7.419 -11.581  0.00  0.00    +0.011 A 
ATOM     13  C   UNL     1       7.292  -7.585 -12.769  0.00  0.00    +0.001 A 
ATOM     14  C   UNL     1       7.563  -8.859 -13.249  0.00  0.00    +0.002 A 
ATOM     15  C   UNL     1       7.170  -9.974 -12.542  0.00  0.00    +0.026 A 
ENDBRANCH   4   6
BRANCH   5  16
ATOM     16  C   UNL     1       3.968  -9.061  -6.899  0.00  0.00    +0.051 A 
ATOM     17  C   UNL     1       4.966  -9.908  -6.438  0.00  0.00    +0.028 A 
ATOM     18  C   UNL     1       4.631 -11.107  -5.840  0.00  0.00    +0.022 A 
ATOM     19  C   UNL     1       3.301 -11.464  -5.700  0.00  0.00    +0.041 A 
ATOM     20  C   UNL     1       2.304 -10.621  -6.160  0.00  0.00    +0.022 A 
ATOM     21  C   UNL     1       2.635  -9.418  -6.753  0.00  0.00    +0.028 A 
ATOM     22 CL   UNL     1       2.883 -12.972  -4.949  0.00  0.00    -0.084 Cl
ENDBRANCH   5  16
BRANCH   1  23
ATOM     23  S   UNL     1       3.189  -6.175  -5.552  0.00  0.00    -0.082 S 
BRANCH  23  24
ATOM     24  C   UNL     1       3.170  -4.362  -5.539  0.00  0.00    +0.118 C 
BRANCH  24  25
ATOM     25  C   UNL     1       2.454  -3.868  -4.280  0.00  0.00    +0.240 C 
BRANCH  25  26
ATOM     26  O   UNL     1       2.440  -2.439  -4.269  0.00  0.00    -0.491 OA
BRANCH  26  30
ATOM     27  C   UNL     1       0.606  -0.608  -1.056  0.00  0.00    +0.120 A 
ATOM     28  C   UNL     1       1.173   0.161  -2.062  0.00  0.00    +0.049 A 
ATOM     29  C   UNL     1       1.786  -0.452  -3.137  0.00  0.00    +0.049 A 
ATOM     30  C   UNL     1       1.836  -1.836  -3.211  0.00  0.00    +0.121 A 
ATOM     31  C   UNL     1       1.270  -2.604  -2.204  0.00  0.00    +0.049 A 
ATOM     32  C   UNL     1       0.661  -1.992  -1.127  0.00  0.00    +0.049 A 
BRANCH  27  34
ATOM     33  C   UNL     1      -0.017   1.425   0.010  0.00  0.00    +0.277 C 
ATOM     34  O   UNL     1       0.002  -0.004   0.002  0.00  0.00    -0.495 OA
ENDBRANCH  27  34
ENDBRANCH  26  30
ENDBRANCH  25  26
ENDBRANCH  24  25
ENDBRANCH  23  24
ENDBRANCH   1  23
TORSDOF 8
