REMARK  Name = ZINC16958779
REMARK  10 active torsions:
REMARK  status: ('A' for Active; 'I' for Inactive)
REMARK    1  A    between atoms: C_4  and  C_7
REMARK    2  A    between atoms: C_10  and  C_33
REMARK    3  A    between atoms: N_11  and  C_17
REMARK    4  A    between atoms: C_12  and  S_16
REMARK    5  A    between atoms: C_13  and  C_14
REMARK    6  A    between atoms: C_19  and  O_32
REMARK    7  A    between atoms: C_21  and  O_31
REMARK    8  A    between atoms: C_23  and  O_30
REMARK    9  A    between atoms: C_25  and  C_28
REMARK   10  A    between atoms: C_28  and  O_29
REMARK                            x       y       z     vdW  Elec       q    Type
REMARK                         _______ _______ _______ _____ _____    ______ ____
ROOT
ATOM      1  C   UNL     1       7.095   4.824   1.378  0.00  0.00    +0.086 C 
ATOM      2  C   UNL     1       5.975   5.433   0.586  0.00  0.00    +0.011 C 
ATOM      3  C   UNL     1       4.823   4.800   0.398  0.00  0.00    +0.041 C 
ATOM      4  N   UNL     1       4.604   3.533   0.939  0.00  0.00    -0.265 N 
ATOM      5  C   UNL     1       5.404   3.078   1.961  0.00  0.00    +0.081 C 
ATOM      6  C   UNL     1       6.607   3.670   2.205  0.00  0.00    +0.068 C 
ENDROOT
BRANCH   1  10
ATOM      7  C   UNL     1      10.119   3.444  -1.306  0.00  0.00    +0.000 A 
ATOM      8  C   UNL     1      10.422   4.402  -0.356  0.00  0.00    +0.000 A 
ATOM      9  C   UNL     1       9.444   4.848   0.512  0.00  0.00    +0.004 A 
ATOM     10  C   UNL     1       8.162   4.337   0.431  0.00  0.00    -0.035 A 
ATOM     11  C   UNL     1       7.860   3.375  -0.515  0.00  0.00    +0.004 A 
ATOM     12  C   UNL     1       8.837   2.932  -1.386  0.00  0.00    +0.000 A 
ENDBRANCH   1  10
BRANCH   4  13
ATOM     13  C   UNL     1       3.522   2.691   0.423  0.00  0.00    +0.243 C 
ATOM     14  C   UNL     1       3.710   2.482  -1.081  0.00  0.00    +0.193 C 
ATOM     15  C   UNL     1       2.542   1.651  -1.623  0.00  0.00    +0.178 C 
ATOM     16  C   UNL     1       1.227   2.365  -1.295  0.00  0.00    +0.177 C 
ATOM     17  C   UNL     1       1.135   2.578   0.218  0.00  0.00    +0.177 C 
ATOM     18  O   UNL     1       2.266   3.331   0.661  0.00  0.00    -0.348 OA
BRANCH  16  19
ATOM     19  O   UNL     1       0.128   1.564  -1.732  0.00  0.00    -0.386 OA
ATOM     20  H   UNL     1       0.122   1.388  -2.683  0.00  0.00    +0.210 HD
ENDBRANCH  16  19
BRANCH  15  21
ATOM     21  O   UNL     1       2.671   1.513  -3.040  0.00  0.00    -0.386 OA
ATOM     22  H   UNL     1       1.960   1.003  -3.451  0.00  0.00    +0.210 HD
ENDBRANCH  15  21
BRANCH  14  23
ATOM     23  O   UNL     1       4.939   1.792  -1.318  0.00  0.00    -0.385 OA
ATOM     24  H   UNL     1       5.123   1.625  -2.252  0.00  0.00    +0.210 HD
ENDBRANCH  14  23
BRANCH  17  25
ATOM     25  C   UNL     1      -0.148   3.344   0.548  0.00  0.00    +0.190 C 
BRANCH  25  26
ATOM     26  O   UNL     1      -0.298   3.433   1.966  0.00  0.00    -0.392 OA
ATOM     27  H   UNL     1      -1.129   3.839   2.249  0.00  0.00    +0.210 HD
ENDBRANCH  25  26
ENDBRANCH  17  25
ENDBRANCH   4  13
BRANCH   3  28
ATOM     28  C   UNL     1       3.755   5.448  -0.398  0.00  0.00    -0.004 A 
ATOM     29  C   UNL     1       3.988   5.802  -1.726  0.00  0.00    +0.010 A 
ATOM     30  C   UNL     1       2.988   6.402  -2.464  0.00  0.00    +0.001 A 
ATOM     31  C   UNL     1       1.759   6.661  -1.885  0.00  0.00    +0.000 A 
ATOM     32  C   UNL     1       1.523   6.318  -0.566  0.00  0.00    +0.001 A 
ATOM     33  C   UNL     1       2.514   5.713   0.180  0.00  0.00    +0.010 A 
ENDBRANCH   3  28
BRANCH   6  34
ATOM     34  C   UNL     1       7.421   3.183   3.279  0.00  0.00    +0.098 C 
ATOM     35  N   UNL     1       8.067   2.797   4.130  0.00  0.00    -0.191 NA
ENDBRANCH   6  34
BRANCH   5  36
ATOM     36  S   UNL     1       4.873   1.722   2.953  0.00  0.00    -0.126 S 
ATOM     37  H   UNL     1       5.970   1.617   3.832  0.00  0.00    +0.108 HD
ENDBRANCH   5  36
TORSDOF 10
