REMARK  Name = ZINC44813942
REMARK  11 active torsions:
REMARK  status: ('A' for Active; 'I' for Inactive)
REMARK    1  A    between atoms: C_1  and  C_2
REMARK    2  A    between atoms: C_2  and  C_3
REMARK    3  A    between atoms: C_2  and  C_4
REMARK    4  A    between atoms: C_4  and  C_5
REMARK    5  A    between atoms: C_4  and  N_8
REMARK    6  A    between atoms: C_5  and  C_6
REMARK    7  A    between atoms: C_5  and  C_7
REMARK    8  A    between atoms: C_9  and  C_11
REMARK    9  A    between atoms: N_16  and  C_18
REMARK   10  A    between atoms: C_18  and  C_19
REMARK   11  A    between atoms: C_21  and  C_24
REMARK                            x       y       z     vdW  Elec       q    Type
REMARK                         _______ _______ _______ _____ _____    ______ ____
ROOT
ATOM      1  C   UNL     1      -2.569  -3.982   1.251  0.00  0.00    +0.058 C 
ATOM      2  C   UNL     1      -1.340  -4.425   2.050  0.00  0.00    +0.009 C 
ATOM      3  C   UNL     1      -1.441  -5.927   2.333  0.00  0.00    -0.018 C 
ATOM      4  C   UNL     1      -2.749  -6.213   3.074  0.00  0.00    -0.078 C 
ATOM      5  N   UNL     1      -3.886  -5.792   2.248  0.00  0.00    +0.386 N 
ATOM      6  C   UNL     1      -3.835  -4.341   2.032  0.00  0.00    -0.065 C 
ATOM      7  H   UNL     1      -3.848  -6.264   1.358  0.00  0.00    -0.081 HD
ENDROOT
BRANCH   1   9
ATOM      8  N   UNL     1      -1.483  -1.944   0.366  0.00  0.00    -0.312 N 
ATOM      9  C   UNL     1      -2.517  -2.492   1.034  0.00  0.00    +0.215 C 
ATOM     10  O   UNL     1      -3.406  -1.786   1.459  0.00  0.00    -0.276 OA
ATOM     11  H   UNL     1      -0.771  -2.509   0.025  0.00  0.00    +0.149 HD
BRANCH   8  12
ATOM     12  C   UNL     1      -1.432  -0.495   0.154  0.00  0.00    +0.078 C 
BRANCH  12  14
ATOM     13  C   UNL     1       0.083   1.466  -0.161  0.00  0.00    +0.009 C 
ATOM     14  C   UNL     1       0.022  -0.057  -0.034  0.00  0.00    +0.003 C 
ATOM     15  C   UNL     1       0.849  -0.502   1.174  0.00  0.00    +0.009 C 
ENDBRANCH  12  14
BRANCH  12  16
ATOM     16  C   UNL     1      -2.239  -0.134  -1.094  0.00  0.00    +0.003 C 
ATOM     17  C   UNL     1      -1.735  -0.955  -2.283  0.00  0.00    +0.009 C 
ATOM     18  C   UNL     1      -3.718  -0.441  -0.852  0.00  0.00    +0.009 C 
ENDBRANCH  12  16
ENDBRANCH   8  12
ENDBRANCH   1   9
BRANCH   5  19
ATOM     19  C   UNL     1      -5.140  -6.139   2.930  0.00  0.00    +0.022 C 
BRANCH  19  20
ATOM     20  C   UNL     1      -5.256  -7.638   3.034  0.00  0.00    +0.211 A 
ATOM     21  N   UNL     1      -4.820  -8.369   4.021  0.00  0.00    -0.193 NA
ATOM     22  C   UNL     1      -5.091  -9.666   3.789  0.00  0.00    +0.202 A 
ATOM     23  N   UNL     1      -5.709  -9.764   2.638  0.00  0.00    -0.056 NA
ATOM     24  O   UNL     1      -5.830  -8.444   2.131  0.00  0.00    -0.340 OA
BRANCH  22  25
ATOM     25  C   UNL     1      -4.747 -10.796   4.686  0.00  0.00    +0.023 A 
ATOM     26  C   UNL     1      -4.091 -10.557   5.892  0.00  0.00    +0.012 A 
ATOM     27  C   UNL     1      -3.773 -11.612   6.723  0.00  0.00    +0.002 A 
ATOM     28  C   UNL     1      -4.105 -12.905   6.362  0.00  0.00    +0.015 A 
ATOM     29  C   UNL     1      -4.757 -13.149   5.166  0.00  0.00    +0.019 A 
ATOM     30  C   UNL     1      -5.085 -12.100   4.330  0.00  0.00    +0.027 A 
ATOM     31 BR   UNL     1      -5.206 -14.920   4.680  0.00  0.00    -0.050 Br
ENDBRANCH  22  25
ENDBRANCH  19  20
ENDBRANCH   5  19
TORSDOF 7
