REMARK  Name = ZINC02791365
REMARK  13 active torsions:
REMARK  status: ('A' for Active; 'I' for Inactive)
REMARK    1  A    between atoms: C_1  and  C_2
REMARK    2  A    between atoms: C_2  and  C_3
REMARK    3  A    between atoms: C_2  and  C_4
REMARK    4  A    between atoms: C_7  and  C_10
REMARK    5  A    between atoms: C_13  and  C_32
REMARK    6  A    between atoms: C_18  and  C_20
REMARK    7  A    between atoms: C_23  and  S_30
REMARK    8  A    between atoms: N_24  and  C_25
REMARK    9  A    between atoms: C_25  and  C_26
REMARK   10  A    between atoms: C_26  and  C_27
REMARK   11  A    between atoms: C_27  and  N_64
REMARK   12  A    between atoms: C_28  and  N_64
REMARK   13  A    between atoms: C_29  and  N_64
REMARK                            x       y       z     vdW  Elec       q    Type
REMARK                         _______ _______ _______ _____ _____    ______ ____
ROOT
ATOM      1  C   UNL     1      -2.254   1.283  -1.104  0.00  0.00    +0.104 C 
ATOM      2  C   UNL     1      -0.759   1.596  -1.230  0.00  0.00    +0.063 C 
ATOM      3  C   UNL     1      -0.013   1.086   0.008  0.00  0.00    +0.215 C 
ATOM      4  N   UNL     1      -0.703   1.561   1.210  0.00  0.00    -0.238 N 
ATOM      5  C   UNL     1      -2.002   1.991   1.215  0.00  0.00    +0.119 A 
ATOM      6  C   UNL     1      -2.316   2.357   2.474  0.00  0.00    +0.076 A 
ATOM      7  C   UNL     1      -1.174   2.144   3.278  0.00  0.00    +0.132 A 
ATOM      8  N   UNL     1      -0.213   1.665   2.509  0.00  0.00    -0.166 NA
ATOM      9  N   UNL     1      -2.790   2.012   0.061  0.00  0.00    -0.322 N 
ATOM     10  H   UNL     1      -3.640   2.479   0.029  0.00  0.00    +0.148 HD
ENDROOT
BRANCH   1  14
ATOM     11  C   UNL     1      -4.287   2.541  -4.644  0.00  0.00    -0.045 A 
ATOM     12  C   UNL     1      -3.956   1.210  -4.473  0.00  0.00    +0.004 A 
ATOM     13  C   UNL     1      -3.298   0.803  -3.328  0.00  0.00    +0.006 A 
ATOM     14  C   UNL     1      -2.971   1.727  -2.353  0.00  0.00    -0.027 A 
ATOM     15  C   UNL     1      -3.307   3.057  -2.521  0.00  0.00    +0.006 A 
ATOM     16  C   UNL     1      -3.960   3.465  -3.669  0.00  0.00    +0.004 A 
BRANCH  11  18
ATOM     17  C   UNL     1      -6.346   3.614  -5.514  0.00  0.00    +0.012 C 
ATOM     18  C   UNL     1      -5.004   2.985  -5.893  0.00  0.00    +0.013 C 
ATOM     19  C   UNL     1      -4.149   4.016  -6.633  0.00  0.00    +0.012 C 
ENDBRANCH  11  18
ENDBRANCH   1  14
BRANCH   7  20
ATOM     20  C   UNL     1      -1.073   2.410   4.729  0.00  0.00    +0.185 A 
ATOM     21  N   UNL     1      -2.019   2.891   5.502  0.00  0.00    -0.127 NA
ATOM     22  N   UNL     1      -1.590   2.992   6.709  0.00  0.00    -0.122 NA
ATOM     23  C   UNL     1      -0.341   2.591   6.779  0.00  0.00    +0.189 A 
ATOM     24  N   UNL     1       0.032   2.207   5.522  0.00  0.00    -0.301 N 
BRANCH  23  25
ATOM     25  S   UNL     1       0.666   2.556   8.225  0.00  0.00    -0.103 S 
ATOM     26  H   UNL     1       1.236   3.844   8.158  0.00  0.00    +0.110 HD
ENDBRANCH  23  25
BRANCH  24  27
ATOM     27  C   UNL     1       1.337   1.687   5.106  0.00  0.00    +0.124 C 
BRANCH  27  28
ATOM     28  C   UNL     1       2.238   2.849   4.683  0.00  0.00    +0.003 C 
BRANCH  28  29
ATOM     29  C   UNL     1       3.601   2.307   4.248  0.00  0.00    -0.078 C 
BRANCH  29  32
ATOM     30  C   UNL     1       5.850   2.971   3.646  0.00  0.00    -0.097 C 
ATOM     31  C   UNL     1       3.948   4.077   2.633  0.00  0.00    -0.097 C 
ATOM     32  N   UNL     1       4.466   3.442   3.864  0.00  0.00    +0.376 N 
ATOM     33  H   UNL     1       4.464   4.134   4.622  0.00  0.00    -0.083 HD
ENDBRANCH  29  32
ENDBRANCH  28  29
ENDBRANCH  27  28
ENDBRANCH  24  27
ENDBRANCH   7  20
BRANCH   3  34
ATOM     34  C   UNL     1       1.422   1.618  -0.003  0.00  0.00    +0.412 C 
ATOM     35  F   UNL     1       1.400   3.017   0.005  0.00  0.00    -0.168 F 
ATOM     36  F   UNL     1       2.099   1.155   1.131  0.00  0.00    -0.168 F 
ATOM     37  F   UNL     1       2.077   1.168  -1.154  0.00  0.00    -0.168 F 
ENDBRANCH   3  34
TORSDOF 9
