REMARK  Name = ZINC05211659
REMARK  7 active torsions:
REMARK  status: ('A' for Active; 'I' for Inactive)
REMARK    1  A    between atoms: C_1  and  C_2
REMARK    2  A    between atoms: C_2  and  C_4
REMARK    3  A    between atoms: C_2  and  C_32
REMARK    4  A    between atoms: C_10  and  C_31
REMARK    5  A    between atoms: C_11  and  O_30
REMARK    6  A    between atoms: C_22  and  C_29
REMARK    7  A    between atoms: C_25  and  O_28
REMARK                            x       y       z     vdW  Elec       q    Type
REMARK                         _______ _______ _______ _____ _____    ______ ____
ROOT
ATOM      1  C   UNL     1       3.171   2.582  -0.558  0.00  0.00    +0.011 C 
ATOM      2  C   UNL     1       3.738   2.445   0.881  0.00  0.00    +0.005 C 
ATOM      3  C   UNL     1       2.850   1.402   1.615  0.00  0.00    +0.005 C 
ATOM      4  C   UNL     1       2.118   0.699   0.466  0.00  0.00    +0.001 C 
ATOM      5  C   UNL     1       1.812   1.873  -0.491  0.00  0.00    +0.001 C 
ATOM      6  C   UNL     1       1.232   1.294  -1.752  0.00  0.00    +0.121 C 
ATOM      7  C   UNL     1      -0.123   0.634  -1.444  0.00  0.00    +0.036 C 
ATOM      8  C   UNL     1      -0.345   0.279   0.010  0.00  0.00    +0.001 C 
ATOM      9  C   UNL     1       0.895  -0.100   0.800  0.00  0.00    -0.004 C 
ATOM     10  C   UNL     1       0.599  -0.061   2.304  0.00  0.00    +0.004 C 
ATOM     11  C   UNL     1      -0.759  -0.725   2.575  0.00  0.00    +0.004 C 
ATOM     12  C   UNL     1      -1.069  -1.644   1.405  0.00  0.00    -0.002 C 
ATOM     13  C   UNL     1      -1.395  -0.832   0.151  0.00  0.00    -0.026 C 
ATOM     14  C   UNL     1      -1.426  -1.783  -1.038  0.00  0.00    +0.010 C 
ATOM     15  C   UNL     1      -2.493  -2.859  -0.810  0.00  0.00    +0.032 C 
ATOM     16  C   UNL     1      -2.277  -3.609   0.499  0.00  0.00    +0.115 C 
ATOM     17  C   UNL     1      -2.176  -2.647   1.688  0.00  0.00    +0.035 C 
ATOM     18  C   UNL     1      -2.756  -0.150   0.294  0.00  0.00    +0.012 C 
ATOM     19  C   UNL     1       0.846   2.892   0.132  0.00  0.00    +0.014 C 
ENDROOT
BRANCH   1  21
ATOM     20  C   UNL     1       4.424   0.519  -1.171  0.00  0.00    +0.019 C 
ATOM     21  C   UNL     1       4.131   1.968  -1.564  0.00  0.00    +0.103 C 
BRANCH  21  22
ATOM     22  C   UNL     1       3.509   2.001  -2.936  0.00  0.00    +0.359 C 
ATOM     23  O   UNL     1       2.727   2.876  -3.224  0.00  0.00    -0.246 OA
ATOM     24  O   UNL     1       3.823   1.058  -3.838  0.00  0.00    -0.246 OA
ENDBRANCH  21  22
ENDBRANCH   1  21
BRANCH  16  25
ATOM     25  O   UNL     1      -1.079  -4.386   0.413  0.00  0.00    -0.392 OA
ATOM     26  H   UNL     1      -1.087  -5.044  -0.294  0.00  0.00    +0.210 HD
ENDBRANCH  16  25
BRANCH   6  27
ATOM     27  O   UNL     1       2.085   0.288  -2.317  0.00  0.00    -0.391 OA
ATOM     28  H   UNL     1       1.742  -0.106  -3.131  0.00  0.00    +0.210 HD
ENDBRANCH   6  27
TORSDOF 4
