REMARK  Name = ZINC56017327
REMARK  6 active torsions:
REMARK  status: ('A' for Active; 'I' for Inactive)
REMARK    1  A    between atoms: C_1  and  C_2
REMARK    2  A    between atoms: C_6  and  C_28
REMARK    3  A    between atoms: C_10  and  C_12
REMARK    4  A    between atoms: C_12  and  C_13
REMARK    5  A    between atoms: C_13  and  N_14
REMARK    6  A    between atoms: N_17  and  C_18
REMARK                            x       y       z     vdW  Elec       q    Type
REMARK                         _______ _______ _______ _____ _____    ______ ____
ROOT
ATOM      1  C   UNL     1       2.633   1.033   4.026  0.00  0.00    +0.115 C 
ENDROOT
BRANCH   1   2
ATOM      2  N   UNL     1       3.535   0.548   5.074  0.00  0.00    -0.299 N 
ATOM      3  C   UNL     1       4.020   1.405   5.995  0.00  0.00    +0.300 C 
ATOM      4  O   UNL     1       3.709   2.580   5.955  0.00  0.00    -0.253 OA
ATOM      5  N   UNL     1       4.850   0.960   6.958  0.00  0.00    -0.294 N 
ATOM      6  H   UNL     1       3.784  -0.389   5.105  0.00  0.00    +0.150 HD
ATOM      7  H   UNL     1       5.099   0.023   6.990  0.00  0.00    +0.151 HD
BRANCH   5   8
ATOM      8  C   UNL     1       5.378   1.891   7.959  0.00  0.00    +0.037 C 
ATOM      9  C   UNL     1       4.217   2.520   8.732  0.00  0.00    +0.029 C 
ATOM     10  C   UNL     1       4.767   3.492   9.777  0.00  0.00    -0.008 C 
ATOM     11  C   UNL     1       5.677   2.737  10.748  0.00  0.00    +0.007 C 
ATOM     12  C   UNL     1       6.838   2.108   9.974  0.00  0.00    -0.008 C 
ATOM     13  C   UNL     1       6.287   1.136   8.930  0.00  0.00    +0.029 C 
ATOM     14  C   UNL     1       7.640   3.208   9.275  0.00  0.00    +0.007 C 
ATOM     15  C   UNL     1       6.730   3.963   8.304  0.00  0.00    -0.008 C 
ATOM     16  C   UNL     1       5.569   4.592   9.078  0.00  0.00    +0.007 C 
ATOM     17  C   UNL     1       6.179   2.991   7.260  0.00  0.00    +0.029 C 
ENDBRANCH   5   8
ENDBRANCH   1   2
BRANCH   1  18
ATOM     18  C   UNL     1       2.232  -0.133   3.120  0.00  0.00    +0.114 C 
BRANCH  18  26
ATOM     19  C   UNL     1       0.008   1.528  -0.006  0.00  0.00    +0.028 C 
ATOM     20  C   UNL     1       0.016  -0.002  -0.007  0.00  0.00    +0.073 C 
ATOM     21  C   UNL     1       0.633  -0.512  -1.313  0.00  0.00    +0.023 C 
ATOM     22  C   UNL     1       0.765  -2.035  -1.250  0.00  0.00    +0.016 C 
ATOM     23  C   UNL     1       1.692  -2.421  -0.095  0.00  0.00    +0.092 C 
ATOM     24  C   UNL     1       1.087  -1.933   1.225  0.00  0.00    +0.120 C 
ATOM     25  N   UNL     1       0.819  -0.492   1.122  0.00  0.00    -0.298 N 
ATOM     26  C   UNL     1       1.304   0.365   2.042  0.00  0.00    +0.217 C 
ATOM     27  O   UNL     1       0.994   1.537   2.003  0.00  0.00    -0.276 OA
BRANCH  23  28
ATOM     28  C   UNL     1       1.847  -3.920  -0.054  0.00  0.00    +0.215 C 
ATOM     29  O   UNL     1       1.274  -4.611  -0.869  0.00  0.00    -0.276 OA
ATOM     30  N   UNL     1       2.624  -4.491   0.887  0.00  0.00    -0.329 N 
ATOM     31  H   UNL     1       3.083  -3.938   1.539  0.00  0.00    +0.145 HD
ATOM     32  H   UNL     1       2.725  -5.455   0.914  0.00  0.00    +0.145 HD
ENDBRANCH  23  28
ENDBRANCH  18  26
ENDBRANCH   1  18
TORSDOF 5
