REMARK  Name = ZINC13592670
REMARK  3 active torsions:
REMARK  status: ('A' for Active; 'I' for Inactive)
REMARK    1  A    between atoms: C_11  and  C_13
REMARK    2  A    between atoms: C_13  and  N_14
REMARK    3  A    between atoms: C_15  and  C_17
REMARK                            x       y       z     vdW  Elec       q    Type
REMARK                         _______ _______ _______ _____ _____    ______ ____
ROOT
ATOM      1  N   UNL     1       6.040   1.946  -1.104  0.00  0.00    -0.301 N 
ATOM      2  C   UNL     1       6.227   3.220  -1.504  0.00  0.00    +0.265 C 
ATOM      3  O   UNL     1       5.282   3.984  -1.559  0.00  0.00    -0.268 OA
ATOM      4  H   UNL     1       6.794   1.337  -1.059  0.00  0.00    +0.150 HD
ENDROOT
BRANCH   2   5
ATOM      5  C   UNL     1       7.575   3.686  -1.873  0.00  0.00    +0.154 A 
ATOM      6  C   UNL     1       7.948   5.035  -2.321  0.00  0.00    +0.032 A 
ATOM      7  C   UNL     1       7.272   6.231  -2.541  0.00  0.00    +0.012 A 
ATOM      8  C   UNL     1       7.966   7.327  -2.973  0.00  0.00    +0.001 A 
ATOM      9  C   UNL     1       9.335   7.253  -3.194  0.00  0.00    +0.002 A 
ATOM     10  C   UNL     1      10.018   6.088  -2.984  0.00  0.00    +0.028 A 
ATOM     11  C   UNL     1       9.337   4.957  -2.543  0.00  0.00    +0.066 A 
ATOM     12  N   UNL     1       9.698   3.670  -2.242  0.00  0.00    -0.276 N 
ATOM     13  H   UNL     1      10.603   3.327  -2.304  0.00  0.00    +0.189 HD
ATOM     14  N   UNL     1       8.685   2.979  -1.862  0.00  0.00    -0.168 NA
ENDBRANCH   2   5
BRANCH   1  15
ATOM     15  C   UNL     1       4.700   1.482  -0.737  0.00  0.00    +0.201 C 
BRANCH  15  26
ATOM     16  C   UNL     1       3.777  -4.737   0.699  0.00  0.00    +0.000 A 
ATOM     17  C   UNL     1       4.868  -4.093   0.143  0.00  0.00    +0.002 A 
ATOM     18  C   UNL     1       4.813  -2.736  -0.105  0.00  0.00    +0.024 A 
ATOM     19  C   UNL     1       3.663  -2.018   0.202  0.00  0.00    +0.039 A 
ATOM     20  C   UNL     1       2.569  -2.664   0.756  0.00  0.00    -0.026 A 
ATOM     21  C   UNL     1       2.633  -4.026   1.004  0.00  0.00    +0.005 A 
ATOM     22  C   UNL     1       1.304  -1.921   1.092  0.00  0.00    +0.038 C 
ATOM     23  C   UNL     1       1.582  -0.425   1.232  0.00  0.00    +0.024 C 
ATOM     24  C   UNL     1       2.338   0.058  -0.013  0.00  0.00    +0.114 C 
ATOM     25  N   UNL     1       3.630  -0.640  -0.053  0.00  0.00    -0.270 N 
ATOM     26  C   UNL     1       4.764   0.033  -0.330  0.00  0.00    +0.237 C 
ATOM     27  O   UNL     1       5.837  -0.528  -0.251  0.00  0.00    -0.274 OA
ENDBRANCH  15  26
ENDBRANCH   1  15
TORSDOF 3
