REMARK  Name = ZINC12894161
REMARK  8 active torsions:
REMARK  status: ('A' for Active; 'I' for Inactive)
REMARK    1  A    between atoms: C_4  and  C_7
REMARK    2  A    between atoms: C_8  and  N_20
REMARK    3  A    between atoms: C_10  and  S_12
REMARK    4  A    between atoms: S_12  and  C_13
REMARK    5  A    between atoms: C_13  and  C_14
REMARK    6  A    between atoms: N_16  and  C_17
REMARK    7  A    between atoms: C_21  and  C_23
REMARK    8  A    between atoms: N_28  and  C_30
REMARK                            x       y       z     vdW  Elec       q    Type
REMARK                         _______ _______ _______ _____ _____    ______ ____
ROOT
ATOM      1  C   UNL     1       1.120   2.026  -0.023  0.00  0.00    +0.101 A 
ATOM      2  C   UNL     1       2.321   1.361  -0.040  0.00  0.00    +0.100 A 
ATOM      3  S   UNL     1       1.763  -0.337  -0.068  0.00  0.00    -0.045 S 
ATOM      4  C   UNL     1       0.008   0.000  -0.055  0.00  0.00    +0.137 A 
ATOM      5  N   UNL     1      -0.011   1.319  -0.031  0.00  0.00    -0.231 NA
ENDROOT
BRANCH   1   9
ATOM      6  C   UNL     1       1.006   6.274   0.053  0.00  0.00    +0.000 A 
ATOM      7  C   UNL     1       0.039   5.571  -0.644  0.00  0.00    +0.001 A 
ATOM      8  C   UNL     1       0.070   4.192  -0.672  0.00  0.00    +0.010 A 
ATOM      9  C   UNL     1       1.080   3.506   0.003  0.00  0.00    +0.003 A 
ATOM     10  C   UNL     1       2.049   4.220   0.709  0.00  0.00    +0.010 A 
ATOM     11  C   UNL     1       2.010   5.599   0.725  0.00  0.00    +0.001 A 
ENDBRANCH   1   9
BRANCH   2  12
ATOM     12  N   UNL     1       3.620   1.871  -0.035  0.00  0.00    -0.278 N 
ATOM     13  C   UNL     1       4.674   1.031  -0.055  0.00  0.00    +0.223 C 
ATOM     14  O   UNL     1       4.493  -0.169  -0.076  0.00  0.00    -0.275 OA
ATOM     15  H   UNL     1       3.765   2.830  -0.018  0.00  0.00    +0.155 HD
BRANCH  13  16
ATOM     16  C   UNL     1       6.077   1.581  -0.050  0.00  0.00    +0.102 C 
ATOM     17  C   UNL     1       6.345   2.403   1.233  0.00  0.00    +0.110 C 
ATOM     18  C   UNL     1       7.783   2.088   1.581  0.00  0.00    +0.221 C 
ATOM     19  O   UNL     1       8.469   2.733   2.346  0.00  0.00    -0.275 OA
ATOM     20  N   UNL     1       8.190   0.992   0.918  0.00  0.00    -0.271 N 
ATOM     21  C   UNL     1       7.116   0.446   0.081  0.00  0.00    +0.127 C 
BRANCH  20  22
ATOM     22  C   UNL     1       9.474   0.443   1.014  0.00  0.00    +0.036 A 
ATOM     23  C   UNL     1      10.461   1.102   1.734  0.00  0.00    +0.026 A 
ATOM     24  C   UNL     1      11.726   0.556   1.832  0.00  0.00    +0.040 A 
ATOM     25  C   UNL     1      12.013  -0.644   1.203  0.00  0.00    +0.124 A 
ATOM     26  C   UNL     1      11.032  -1.301   0.479  0.00  0.00    +0.040 A 
ATOM     27  C   UNL     1       9.764  -0.760   0.384  0.00  0.00    +0.026 A 
ATOM     28  F   UNL     1      13.252  -1.173   1.294  0.00  0.00    -0.205 F 
ENDBRANCH  20  22
ENDBRANCH  13  16
ENDBRANCH   2  12
BRANCH   4  29
ATOM     29  S   UNL     1      -1.342  -1.132  -0.070  0.00  0.00    -0.089 S 
BRANCH  29  30
ATOM     30  C   UNL     1      -0.438  -2.699  -0.102  0.00  0.00    +0.172 C 
BRANCH  30  31
ATOM     31  C   UNL     1      -1.417  -3.844  -0.118  0.00  0.00    +0.223 C 
ATOM     32  O   UNL     1      -2.610  -3.623  -0.110  0.00  0.00    -0.275 OA
ATOM     33  N   UNL     1      -0.968  -5.115  -0.143  0.00  0.00    -0.312 N 
ATOM     34  H   UNL     1      -0.015  -5.293  -0.150  0.00  0.00    +0.149 HD
BRANCH  33  35
ATOM     35  C   UNL     1      -1.921  -6.228  -0.159  0.00  0.00    +0.073 C 
ATOM     36  C   UNL     1      -1.631  -7.419   0.757  0.00  0.00    +0.024 C 
ATOM     37  C   UNL     1      -1.447  -7.554  -0.757  0.00  0.00    +0.024 C 
ENDBRANCH  33  35
ENDBRANCH  30  31
ENDBRANCH  29  30
ENDBRANCH   4  29
TORSDOF 8
