REMARK  Name = ZINC08743795
REMARK  11 active torsions:
REMARK  status: ('A' for Active; 'I' for Inactive)
REMARK    1  A    between atoms: C_1  and  N_55
REMARK    2  A    between atoms: C_2  and  N_55
REMARK    3  A    between atoms: C_3  and  C_4
REMARK    4  A    between atoms: C_3  and  N_55
REMARK    5  A    between atoms: C_4  and  C_5
REMARK    6  A    between atoms: C_5  and  N_6
REMARK    7  A    between atoms: C_7  and  C_24
REMARK    8  A    between atoms: C_10  and  C_11
REMARK    9  A    between atoms: C_10  and  O_19
REMARK   10  A    between atoms: C_14  and  O_17
REMARK   11  A    between atoms: O_17  and  C_18
REMARK                            x       y       z     vdW  Elec       q    Type
REMARK                         _______ _______ _______ _____ _____    ______ ____
ROOT
ATOM      1  N   UNL     1       0.587  -1.232  -1.058  0.00  0.00    -0.284 N 
ATOM      2  C   UNL     1       0.017  -1.112  -2.404  0.00  0.00    +0.144 C 
ATOM      3  C   UNL     1       1.093  -1.549  -3.370  0.00  0.00    +0.071 C 
ATOM      4  C   UNL     1       1.001  -1.596  -4.748  0.00  0.00    +0.133 C 
ATOM      5  C   UNL     1       2.202  -1.901  -2.587  0.00  0.00    +0.249 C 
ATOM      6  O   UNL     1       3.270  -2.310  -3.004  0.00  0.00    -0.282 OA
ATOM      7  C   UNL     1       1.846  -1.690  -1.158  0.00  0.00    +0.288 C 
ATOM      8  O   UNL     1       2.586  -1.902  -0.218  0.00  0.00    -0.266 OA
ENDROOT
BRANCH   2   9
ATOM      9  C   UNL     1      -1.191  -2.003  -2.534  0.00  0.00    -0.021 A 
ATOM     10  C   UNL     1      -1.180  -3.268  -1.974  0.00  0.00    +0.007 A 
ATOM     11  C   UNL     1      -2.289  -4.085  -2.089  0.00  0.00    +0.022 A 
ATOM     12  C   UNL     1      -3.407  -3.642  -2.773  0.00  0.00    +0.059 A 
ATOM     13  C   UNL     1      -3.416  -2.378  -3.338  0.00  0.00    +0.060 A 
ATOM     14  C   UNL     1      -2.307  -1.559  -3.218  0.00  0.00    +0.027 A 
ATOM     15 CL   UNL     1      -4.818  -1.820  -4.197  0.00  0.00    -0.082 Cl
ATOM     16 CL   UNL     1      -4.797  -4.670  -2.924  0.00  0.00    -0.082 Cl
ENDBRANCH   2   9
BRANCH   4  17
ATOM     17  C   UNL     1       2.191  -1.913  -5.554  0.00  0.00    +0.017 A 
ATOM     18  C   UNL     1       3.383  -1.206  -5.354  0.00  0.00    +0.015 A 
ATOM     19  C   UNL     1       4.494  -1.509  -6.107  0.00  0.00    +0.046 A 
ATOM     20  C   UNL     1       4.431  -2.509  -7.072  0.00  0.00    +0.120 A 
ATOM     21  C   UNL     1       3.248  -3.210  -7.278  0.00  0.00    +0.046 A 
ATOM     22  C   UNL     1       2.133  -2.918  -6.527  0.00  0.00    +0.015 A 
BRANCH  20  23
ATOM     23  O   UNL     1       5.529  -2.801  -7.815  0.00  0.00    -0.495 OA
ATOM     24  C   UNL     1       6.711  -2.043  -7.552  0.00  0.00    +0.277 C 
ENDBRANCH  20  23
ENDBRANCH   4  17
BRANCH   4  25
ATOM     25  O   UNL     1      -0.180  -1.351  -5.355  0.00  0.00    -0.506 OA
ATOM     26  H   UNL     1      -0.067  -1.427  -6.346  0.00  0.00    +0.292 HD
ENDBRANCH   4  25
BRANCH   1  27
ATOM     27  C   UNL     1      -0.106  -0.912   0.192  0.00  0.00    +0.107 C 
BRANCH  27  28
ATOM     28  C   UNL     1       0.139   0.556   0.549  0.00  0.00    +0.000 C 
BRANCH  28  29
ATOM     29  C   UNL     1      -0.585   0.891   1.854  0.00  0.00    -0.078 C 
BRANCH  29  32
ATOM     30  C   UNL     1      -0.974   3.193   1.212  0.00  0.00    -0.097 C 
ATOM     31  C   UNL     1      -0.825   2.598   3.554  0.00  0.00    -0.097 C 
ATOM     32  N   UNL     1      -0.321   2.304   2.196  0.00  0.00    +0.376 N 
ATOM     33  H   UNL     1       0.692   2.470   2.174  0.00  0.00    -0.083 HD
ENDBRANCH  29  32
ENDBRANCH  28  29
ENDBRANCH  27  28
ENDBRANCH   1  27
TORSDOF 8
