REMARK  Name = ZINC19848872
REMARK  6 active torsions:
REMARK  status: ('A' for Active; 'I' for Inactive)
REMARK    1  A    between atoms: C_1  and  C_2
REMARK    2  A    between atoms: C_2  and  C_3
REMARK    3  A    between atoms: C_3  and  C_33
REMARK    4  A    between atoms: C_8  and  C_11
REMARK    5  A    between atoms: C_16  and  O_17
REMARK    6  A    between atoms: N_20  and  C_23
REMARK                            x       y       z     vdW  Elec       q    Type
REMARK                         _______ _______ _______ _____ _____    ______ ____
ROOT
ATOM      1  C   UNL     1      -4.226  -2.347  -1.199  0.00  0.00    +0.048 C 
ATOM      2  C   UNL     1      -2.870  -2.137  -0.568  0.00  0.00    +0.086 C 
ATOM      3  C   UNL     1      -3.349  -1.564   0.825  0.00  0.00    +0.077 C 
ATOM      4  C   UNL     1      -4.377  -2.567   1.207  0.00  0.00    -0.023 C 
ATOM      5  N   UNL     1      -5.002  -2.994  -0.087  0.00  0.00    +0.396 N 
ATOM      6  C   UNL     1      -2.055  -1.169   1.378  0.00  0.00    +0.229 C 
ATOM      7  O   UNL     1      -1.693  -1.231   2.533  0.00  0.00    -0.275 OA
ATOM      8  N   UNL     1      -1.340  -0.708   0.301  0.00  0.00    -0.209 N 
ATOM      9  C   UNL     1      -1.903  -1.065  -0.896  0.00  0.00    +0.229 C 
ATOM     10  O   UNL     1      -1.660  -0.604  -1.990  0.00  0.00    -0.275 OA
ATOM     11  H   UNL     1      -6.051  -2.667  -0.134  0.00  0.00    -0.083 HD
ATOM     12  H   UNL     1      -4.954  -4.088  -0.195  0.00  0.00    -0.083 HD
ENDROOT
BRANCH   8  13
ATOM     13  C   UNL     1      -0.162   0.040   0.413  0.00  0.00    +0.052 A 
ATOM     14  C   UNL     1      -0.215   1.415   0.468  0.00  0.00    +0.024 A 
ATOM     15  C   UNL     1       0.950   2.169   0.580  0.00  0.00    +0.002 A 
ATOM     16  C   UNL     1       2.171   1.570   0.636  0.00  0.00    +0.008 A 
ATOM     17  C   UNL     1       2.268   0.169   0.583  0.00  0.00    -0.016 A 
ATOM     18  C   UNL     1       1.089  -0.608   0.470  0.00  0.00    +0.004 A 
ATOM     19  C   UNL     1       1.188  -2.007   0.416  0.00  0.00    +0.010 A 
ATOM     20  C   UNL     1       2.413  -2.599   0.474  0.00  0.00    +0.001 A 
ATOM     21  C   UNL     1       3.574  -1.836   0.586  0.00  0.00    +0.001 A 
ATOM     22  C   UNL     1       3.516  -0.477   0.640  0.00  0.00    +0.008 A 
ENDBRANCH   8  13
BRANCH   4  23
ATOM     23  C   UNL     1      -3.716  -3.740   1.884  0.00  0.00    -0.019 A 
ATOM     24  C   UNL     1      -3.320  -4.835   1.140  0.00  0.00    +0.005 A 
ATOM     25  C   UNL     1      -2.710  -5.910   1.760  0.00  0.00    +0.000 A 
ATOM     26  C   UNL     1      -2.504  -5.896   3.128  0.00  0.00    +0.004 A 
ATOM     27  C   UNL     1      -2.904  -4.807   3.877  0.00  0.00    +0.045 A 
ATOM     28  C   UNL     1      -3.511  -3.725   3.256  0.00  0.00    +0.118 A 
BRANCH  28  29
ATOM     29  O   UNL     1      -3.905  -2.652   3.991  0.00  0.00    -0.507 OA
ATOM     30  H   UNL     1      -3.743  -2.640   5.079  0.00  0.00    +0.292 HD
ENDBRANCH  28  29
ENDBRANCH   4  23
BRANCH   1  31
ATOM     31  C   UNL     1      -4.126  -3.266  -2.389  0.00  0.00    +0.346 C 
ATOM     32  O   UNL     1      -3.082  -3.365  -2.990  0.00  0.00    -0.248 OA
ATOM     33  O   UNL     1      -5.196  -3.975  -2.781  0.00  0.00    -0.248 OA
ENDBRANCH   1  31
BRANCH   1  35
ATOM     34  C   UNL     1      -6.275  -1.247  -2.111  0.00  0.00    +0.003 C 
ATOM     35  C   UNL     1      -4.855  -1.010  -1.594  0.00  0.00    -0.004 C 
ENDBRANCH   1  35
TORSDOF 5
