REMARK  Name = ZINC37034052
REMARK  3 active torsions:
REMARK  status: ('A' for Active; 'I' for Inactive)
REMARK    1  A    between atoms: C_6  and  N_7
REMARK    2  A    between atoms: C_8  and  C_10
REMARK    3  A    between atoms: C_13  and  O_17
REMARK                            x       y       z     vdW  Elec       q    Type
REMARK                         _______ _______ _______ _____ _____    ______ ____
ROOT
ATOM      1  C   UNL     1       0.069   1.236   0.627  0.00  0.00    +0.052 A 
ATOM      2  C   UNL     1       1.263   1.941   0.629  0.00  0.00    +0.069 A 
ATOM      3  C   UNL     1       2.393   1.400   0.013  0.00  0.00    +0.068 A 
ATOM      4  C   UNL     1       2.320   0.158  -0.600  0.00  0.00    +0.045 A 
ATOM      5  C   UNL     1       1.130  -0.542  -0.601  0.00  0.00    +0.041 A 
ATOM      6  C   UNL     1       0.003  -0.005   0.013  0.00  0.00    +0.049 A 
ATOM      7 BR   UNL     1       1.032  -2.235  -1.437  0.00  0.00    -0.048 Br
ATOM      8  N   UNL     1       3.423   2.326   0.177  0.00  0.00    -0.306 N 
ATOM      9  H   UNL     1       4.332   2.227  -0.147  0.00  0.00    +0.170 HD
ATOM     10  C   UNL     1       2.940   3.380   0.861  0.00  0.00    +0.325 A 
ATOM     11  O   UNL     1       3.581   4.367   1.171  0.00  0.00    -0.247 OA
ATOM     12  N   UNL     1       1.640   3.178   1.147  0.00  0.00    -0.306 N 
ATOM     13  H   UNL     1       1.065   3.790   1.633  0.00  0.00    +0.170 HD
ENDROOT
BRANCH   6  14
ATOM     14  N   UNL     1      -1.202  -0.720   0.010  0.00  0.00    -0.286 N 
ATOM     15  C   UNL     1      -2.375  -0.065   0.126  0.00  0.00    +0.203 C 
ATOM     16  O   UNL     1      -2.394   1.148   0.133  0.00  0.00    -0.277 OA
ATOM     17  H   UNL     1      -1.193  -1.686  -0.076  0.00  0.00    +0.155 HD
BRANCH  15  18
ATOM     18  C   UNL     1      -3.662  -0.839   0.248  0.00  0.00    +0.019 C 
ATOM     19  C   UNL     1      -3.874  -1.306   1.710  0.00  0.00    +0.023 C 
ATOM     20  C   UNL     1      -5.415  -1.479   1.762  0.00  0.00    +0.097 C 
ATOM     21  C   UNL     1      -5.925  -0.337   0.859  0.00  0.00    -0.050 C 
ATOM     22  N   UNL     1      -4.818   0.034  -0.045  0.00  0.00    +0.388 N 
ATOM     23  H   UNL     1      -4.563   0.998   0.110  0.00  0.00    -0.085 HD
ATOM     24  H   UNL     1      -5.104  -0.090  -1.004  0.00  0.00    -0.085 HD
BRANCH  20  25
ATOM     25  O   UNL     1      -5.896  -1.324   3.099  0.00  0.00    -0.394 OA
ATOM     26  H   UNL     1      -6.854  -1.423   3.186  0.00  0.00    +0.210 HD
ENDBRANCH  20  25
ENDBRANCH  15  18
ENDBRANCH   6  14
TORSDOF 3
