REMARK  Name = ZINC09376683
REMARK  6 active torsions:
REMARK  status: ('A' for Active; 'I' for Inactive)
REMARK    1  A    between atoms: C_4  and  C_7
REMARK    2  A    between atoms: C_12  and  C_13
REMARK    3  A    between atoms: C_12  and  N_61
REMARK    4  A    between atoms: N_15  and  N_16
REMARK    5  A    between atoms: C_19  and  C_23
REMARK    6  A    between atoms: C_19  and  C_29
REMARK                            x       y       z     vdW  Elec       q    Type
REMARK                         _______ _______ _______ _____ _____    ______ ____
ROOT
ATOM      1  N   UNL     1       0.639   2.217   0.657  0.00  0.00    -0.137 N 
ATOM      2  C   UNL     1       1.960   1.960   0.728  0.00  0.00    +0.272 C 
ATOM      3  O   UNL     1       2.809   2.633   1.273  0.00  0.00    -0.270 OA
ATOM      4  C   UNL     1       2.165   0.655  -0.015  0.00  0.00    +0.165 C 
ATOM      5  N   UNL     1       0.808   0.294  -0.461  0.00  0.00    -0.276 N 
ATOM      6  C   UNL     1      -0.012   1.265  -0.021  0.00  0.00    +0.327 C 
ATOM      7  O   UNL     1      -1.212   1.277  -0.218  0.00  0.00    -0.251 OA
ATOM      8  H   UNL     1       0.556  -0.491  -0.972  0.00  0.00    +0.152 HD
ENDROOT
BRANCH   4   9
ATOM      9  C   UNL     1       2.718  -0.400   0.908  0.00  0.00    -0.011 A 
ATOM     10  C   UNL     1       2.127  -1.648   0.965  0.00  0.00    +0.006 A 
ATOM     11  C   UNL     1       2.637  -2.617   1.808  0.00  0.00    +0.000 A 
ATOM     12  C   UNL     1       3.732  -2.335   2.602  0.00  0.00    +0.000 A 
ATOM     13  C   UNL     1       4.321  -1.085   2.550  0.00  0.00    +0.000 A 
ATOM     14  C   UNL     1       3.813  -0.117   1.703  0.00  0.00    +0.006 A 
ENDBRANCH   4   9
BRANCH   4  15
ATOM     15  C   UNL     1       3.077   0.853  -1.198  0.00  0.00    -0.011 A 
ATOM     16  C   UNL     1       4.310   1.454  -1.028  0.00  0.00    +0.006 A 
ATOM     17  C   UNL     1       5.148   1.631  -2.113  0.00  0.00    +0.000 A 
ATOM     18  C   UNL     1       4.750   1.215  -3.370  0.00  0.00    +0.000 A 
ATOM     19  C   UNL     1       3.515   0.618  -3.541  0.00  0.00    +0.000 A 
ATOM     20  C   UNL     1       2.678   0.437  -2.455  0.00  0.00    +0.006 A 
ENDBRANCH   4  15
BRANCH   1  23
ATOM     21  C   UNL     1      -0.705   3.223   2.344  0.00  0.00    +0.213 C 
ATOM     22  O   UNL     1      -0.830   2.138   2.872  0.00  0.00    -0.276 OA
ATOM     23  N   UNL     1       0.025   3.344   1.218  0.00  0.00    -0.225 N 
ATOM     24  H   UNL     1       0.125   4.212   0.796  0.00  0.00    +0.173 HD
BRANCH  21  25
ATOM     25  C   UNL     1      -1.366   4.435   2.948  0.00  0.00    +0.021 C 
BRANCH  25  31
ATOM     26  C   UNL     1      -3.135   3.770   6.709  0.00  0.00    -0.048 C 
ATOM     27  C   UNL     1      -1.922   3.318   6.480  0.00  0.00    -0.041 C 
ATOM     28  C   UNL     1      -1.172   3.590   5.208  0.00  0.00    -0.050 C 
ATOM     29  C   UNL     1      -2.928   5.150   4.658  0.00  0.00    -0.073 C 
ATOM     30  C   UNL     1      -3.893   4.600   5.711  0.00  0.00    +0.017 C 
ATOM     31  N   UNL     1      -2.113   4.024   4.159  0.00  0.00    +0.388 N 
ATOM     32  H   UNL     1      -2.733   3.242   3.919  0.00  0.00    -0.081 HD
BRANCH  26  36
ATOM     33  C   UNL     1      -4.988   2.849  10.418  0.00  0.00    +0.000 A 
ATOM     34  C   UNL     1      -3.856   3.644  10.392  0.00  0.00    +0.001 A 
ATOM     35  C   UNL     1      -3.250   3.947   9.190  0.00  0.00    +0.008 A 
ATOM     36  C   UNL     1      -3.780   3.450   8.000  0.00  0.00    -0.022 A 
ATOM     37  C   UNL     1      -4.925   2.653   8.032  0.00  0.00    +0.008 A 
ATOM     38  C   UNL     1      -5.519   2.352   9.241  0.00  0.00    +0.001 A 
ENDBRANCH  26  36
ENDBRANCH  25  31
ENDBRANCH  21  25
ENDBRANCH   1  23
TORSDOF 6
