REMARK  Name = ZINC49122088
REMARK  5 active torsions:
REMARK  status: ('A' for Active; 'I' for Inactive)
REMARK    1  A    between atoms: C_1  and  C_2
REMARK    2  A    between atoms: C_2  and  C_3
REMARK    3  A    between atoms: C_9  and  N_11
REMARK    4  A    between atoms: C_12  and  C_16
REMARK    5  A    between atoms: C_21  and  N_22
REMARK                            x       y       z     vdW  Elec       q    Type
REMARK                         _______ _______ _______ _____ _____    ______ ____
ROOT
ATOM      1  N   UNL     1      -0.824  -2.316  -1.281  0.00  0.00    -0.222 N 
ATOM      2  C   UNL     1      -1.415  -3.288  -0.541  0.00  0.00    +0.184 A 
ATOM      3  N   UNL     1      -2.619  -3.473  -1.040  0.00  0.00    -0.108 NA
ATOM      4  N   UNL     1      -2.819  -2.687  -2.036  0.00  0.00    -0.023 NA
ATOM      5  N   UNL     1      -1.782  -1.949  -2.242  0.00  0.00    -0.043 NA
ENDROOT
BRANCH   2   6
ATOM      6  C   UNL     1      -0.819  -4.004   0.607  0.00  0.00    +0.043 A 
ATOM      7  C   UNL     1       0.468  -4.534   0.511  0.00  0.00    +0.033 A 
ATOM      8  C   UNL     1       1.018  -5.202   1.587  0.00  0.00    +0.042 A 
ATOM      9  C   UNL     1       0.298  -5.348   2.762  0.00  0.00    +0.022 A 
ATOM     10  C   UNL     1      -0.976  -4.828   2.868  0.00  0.00    +0.025 A 
ATOM     11  C   UNL     1      -1.542  -4.149   1.798  0.00  0.00    +0.035 A 
ATOM     12 CL   UNL     1       2.620  -5.861   1.466  0.00  0.00    -0.084 Cl
BRANCH  11  13
ATOM     13  N   UNL     1      -2.826  -3.618   1.907  0.00  0.00    -0.357 N 
ATOM     14  H   UNL     1      -3.221  -3.147   1.156  0.00  0.00    +0.142 HD
ATOM     15  H   UNL     1      -3.325  -3.719   2.732  0.00  0.00    +0.142 HD
ENDBRANCH  11  13
ENDBRANCH   2   6
BRANCH   1  21
ATOM     16  C   UNL     1       0.434  -0.242  -0.964  0.00  0.00    +0.013 C 
ATOM     17  C   UNL     1       1.840   0.335  -0.786  0.00  0.00    +0.005 C 
ATOM     18  C   UNL     1       2.692  -0.011  -2.008  0.00  0.00    +0.000 C 
ATOM     19  C   UNL     1       2.780  -1.531  -2.155  0.00  0.00    +0.002 C 
ATOM     20  C   UNL     1       1.375  -2.109  -2.333  0.00  0.00    +0.027 C 
ATOM     21  C   UNL     1       0.522  -1.763  -1.110  0.00  0.00    +0.114 C 
BRANCH  16  23
ATOM     22  C   UNL     1      -0.610   1.619   0.334  0.00  0.00    +0.004 C 
ATOM     23  C   UNL     1      -0.418   0.103   0.259  0.00  0.00    +0.002 C 
ENDBRANCH  16  23
ENDBRANCH   1  21
TORSDOF 4
