REMARK  Name = ZINC59045823
REMARK  10 active torsions:
REMARK  status: ('A' for Active; 'I' for Inactive)
REMARK    1  A    between atoms: C_1  and  C_2
REMARK    2  A    between atoms: C_2  and  S_3
REMARK    3  A    between atoms: S_3  and  C_4
REMARK    4  A    between atoms: C_9  and  N_10
REMARK    5  A    between atoms: C_11  and  C_13
REMARK    6  A    between atoms: C_13  and  S_14
REMARK    7  A    between atoms: S_14  and  C_15
REMARK    8  A    between atoms: C_18  and  C_21
REMARK    9  A    between atoms: N_19  and  N_20
REMARK   10  A    between atoms: C_26  and  O_27
REMARK                            x       y       z     vdW  Elec       q    Type
REMARK                         _______ _______ _______ _____ _____    ______ ____
ROOT
ATOM      1  C   UNL     1       4.963  -3.070  -7.792  0.00  0.00    +0.209 A 
ATOM      2  N   UNL     1       5.028  -1.762  -7.901  0.00  0.00    -0.121 NA
ATOM      3  N   UNL     1       5.726  -1.439  -8.930  0.00  0.00    -0.127 NA
ATOM      4  C   UNL     1       6.152  -2.520  -9.541  0.00  0.00    +0.185 A 
ATOM      5  N   UNL     1       5.681  -3.598  -8.828  0.00  0.00    -0.224 N 
ENDROOT
BRANCH   4   6
ATOM      6  C   UNL     1       6.984  -2.570 -10.761  0.00  0.00    +0.062 A 
ATOM      7  C   UNL     1       6.605  -3.375 -11.836  0.00  0.00    +0.015 A 
ATOM      8  C   UNL     1       7.385  -3.417 -12.973  0.00  0.00    +0.001 A 
ATOM      9  C   UNL     1       8.544  -2.664 -13.051  0.00  0.00    +0.004 A 
ATOM     10  C   UNL     1       8.930  -1.863 -11.993  0.00  0.00    +0.046 A 
ATOM     11  C   UNL     1       8.153  -1.804 -10.847  0.00  0.00    +0.128 A 
BRANCH  11  12
ATOM     12  O   UNL     1       8.528  -1.013  -9.809  0.00  0.00    -0.506 OA
ATOM     13  H   UNL     1       9.100  -1.453  -9.165  0.00  0.00    +0.292 HD
ENDBRANCH  11  12
ENDBRANCH   4   6
BRANCH   5  14
ATOM     14  N   UNL     1       5.885  -4.921  -9.100  0.00  0.00    -0.295 N 
ATOM     15  H   UNL     1       5.121  -5.302  -9.638  0.00  0.00    +0.163 HD
ATOM     16  H   UNL     1       6.765  -5.061  -9.573  0.00  0.00    +0.163 HD
ENDBRANCH   5  14
BRANCH   1  17
ATOM     17  S   UNL     1       4.117  -3.974  -6.538  0.00  0.00    -0.075 S 
BRANCH  17  18
ATOM     18  C   UNL     1       3.381  -2.688  -5.491  0.00  0.00    +0.173 C 
BRANCH  18  20
ATOM     19  N   UNL     1       1.983  -2.570  -3.454  0.00  0.00    -0.284 N 
ATOM     20  C   UNL     1       2.618  -3.335  -4.364  0.00  0.00    +0.228 C 
ATOM     21  O   UNL     1       2.574  -4.544  -4.276  0.00  0.00    -0.275 OA
ATOM     22  H   UNL     1       1.949  -1.607  -3.569  0.00  0.00    +0.155 HD
BRANCH  19  28
ATOM     23  C   UNL     1       0.321  -2.518  -1.692  0.00  0.00    +0.029 A 
ATOM     24  C   UNL     1      -0.283  -3.115  -0.595  0.00  0.00    +0.016 A 
ATOM     25  C   UNL     1       0.162  -4.344  -0.145  0.00  0.00    +0.001 A 
ATOM     26  C   UNL     1       1.208  -4.982  -0.786  0.00  0.00    +0.002 A 
ATOM     27  C   UNL     1       1.815  -4.394  -1.880  0.00  0.00    +0.024 A 
ATOM     28  C   UNL     1       1.372  -3.164  -2.342  0.00  0.00    +0.047 A 
BRANCH  23  29
ATOM     29  S   UNL     1      -0.244  -0.951  -2.268  0.00  0.00    -0.124 S 
BRANCH  29  31
ATOM     30  C   UNL     1      -2.180   0.831  -1.522  0.00  0.00    +0.015 C 
ATOM     31  C   UNL     1      -1.592  -0.526  -1.130  0.00  0.00    +0.071 C 
ENDBRANCH  29  31
ENDBRANCH  23  29
ENDBRANCH  19  28
ENDBRANCH  18  20
ENDBRANCH  17  18
ENDBRANCH   1  17
TORSDOF 9
