REMARK  Name = ZINC02652821
REMARK  6 active torsions:
REMARK  status: ('A' for Active; 'I' for Inactive)
REMARK    1  A    between atoms: C_4  and  C_7
REMARK    2  A    between atoms: C_7  and  N_8
REMARK    3  A    between atoms: C_9  and  N_26
REMARK    4  A    between atoms: C_10  and  N_17
REMARK    5  A    between atoms: N_17  and  C_18
REMARK    6  A    between atoms: C_18  and  C_19
REMARK                            x       y       z     vdW  Elec       q    Type
REMARK                         _______ _______ _______ _____ _____    ______ ____
ROOT
ATOM      1  N   UNL     1       4.152  -0.952   1.338  0.00  0.00    -0.276 N 
ATOM      2  C   UNL     1       4.936  -0.022   1.981  0.00  0.00    +0.127 A 
ATOM      3  C   UNL     1       5.342  -0.260   3.266  0.00  0.00    +0.131 A 
ATOM      4  C   UNL     1       4.946  -1.454   3.897  0.00  0.00    +0.277 A 
ATOM      5  O   UNL     1       5.295  -1.688   5.042  0.00  0.00    -0.266 OA
ATOM      6  N   UNL     1       4.177  -2.336   3.228  0.00  0.00    -0.273 N 
ATOM      7  H   UNL     1       3.903  -3.159   3.661  0.00  0.00    +0.173 HD
ATOM      8  C   UNL     1       3.783  -2.083   1.967  0.00  0.00    +0.331 A 
ATOM      9  O   UNL     1       3.086  -2.892   1.384  0.00  0.00    -0.246 OA
ENDROOT
BRANCH   2  10
ATOM     10  N   UNL     1       5.308   1.136   1.339  0.00  0.00    -0.343 N 
ATOM     11  H   UNL     1       5.018   1.300   0.428  0.00  0.00    +0.144 HD
ATOM     12  H   UNL     1       5.861   1.789   1.797  0.00  0.00    +0.144 HD
ENDBRANCH   2  10
BRANCH   3  13
ATOM     13  N   UNL     1       6.148   0.679   3.950  0.00  0.00    -0.333 N 
ATOM     14  H   UNL     1       6.418   1.499   3.508  0.00  0.00    +0.147 HD
BRANCH  13  15
ATOM     15  C   UNL     1       6.577   0.413   5.325  0.00  0.00    +0.140 C 
BRANCH  15  16
ATOM     16  C   UNL     1       7.419   1.560   5.820  0.00  0.00    +0.005 A 
ATOM     17  C   UNL     1       8.798   1.456   5.819  0.00  0.00    +0.008 A 
ATOM     18  C   UNL     1       9.571   2.509   6.273  0.00  0.00    +0.000 A 
ATOM     19  C   UNL     1       8.966   3.666   6.728  0.00  0.00    +0.003 A 
ATOM     20  C   UNL     1       7.589   3.772   6.730  0.00  0.00    +0.038 A 
ATOM     21  C   UNL     1       6.813   2.720   6.270  0.00  0.00    +0.128 A 
ATOM     22  F   UNL     1       5.466   2.825   6.267  0.00  0.00    -0.205 F 
ENDBRANCH  15  16
ENDBRANCH  13  15
ENDBRANCH   3  13
BRANCH   1  23
ATOM     23  C   UNL     1       3.711  -0.707  -0.038  0.00  0.00    +0.163 C 
BRANCH  23  27
ATOM     24  C   UNL     1      -0.017   1.378   0.010  0.00  0.00    +0.000 A 
ATOM     25  C   UNL     1       1.171   2.086   0.002  0.00  0.00    +0.000 A 
ATOM     26  C   UNL     1       2.377   1.411  -0.013  0.00  0.00    +0.005 A 
ATOM     27  C   UNL     1       2.396   0.029  -0.020  0.00  0.00    -0.028 A 
ATOM     28  C   UNL     1       1.208  -0.679  -0.012  0.00  0.00    +0.005 A 
ATOM     29  C   UNL     1       0.002  -0.004   0.002  0.00  0.00    +0.000 A 
ENDBRANCH  23  27
ENDBRANCH   1  23
TORSDOF 6
