REMARK  Name = ZINC23543265
REMARK  9 active torsions:
REMARK  status: ('A' for Active; 'I' for Inactive)
REMARK    1  A    between atoms: C_1  and  C_2
REMARK    2  A    between atoms: C_4  and  C_30
REMARK    3  A    between atoms: C_5  and  N_9
REMARK    4  A    between atoms: C_12  and  C_15
REMARK    5  A    between atoms: C_15  and  S_16
REMARK    6  A    between atoms: S_16  and  C_17
REMARK    7  A    between atoms: C_20  and  C_23
REMARK    8  A    between atoms: N_21  and  N_22
REMARK    9  A    between atoms: C_27  and  C_29
REMARK                            x       y       z     vdW  Elec       q    Type
REMARK                         _______ _______ _______ _____ _____    ______ ____
ROOT
ATOM      1  N   UNL     1      -6.965   5.969   6.798  0.00  0.00    -0.217 N 
ATOM      2  C   UNL     1      -5.607   5.678   6.717  0.00  0.00    +0.172 A 
ATOM      3  N   UNL     1      -4.990   4.810   5.938  0.00  0.00    -0.228 NA
ATOM      4  C   UNL     1      -3.682   4.656   5.988  0.00  0.00    +0.061 A 
ATOM      5  C   UNL     1      -2.976   5.409   6.867  0.00  0.00    +0.072 A 
ATOM      6  S   UNL     1      -4.288   6.362   7.617  0.00  0.00    -0.060 S 
ATOM      7  C   UNL     1      -7.829   5.397   5.936  0.00  0.00    +0.223 C 
ATOM      8  O   UNL     1      -7.438   4.559   5.152  0.00  0.00    -0.275 OA
ATOM      9  C   UNL     1      -9.281   5.800   5.947  0.00  0.00    +0.110 C 
ENDROOT
BRANCH   1  14
ATOM     10  C   UNL     1      -8.864   9.565  10.757  0.00  0.00    +0.044 C 
ATOM     11  C   UNL     1      -8.360   8.611   9.705  0.00  0.00    -0.049 A 
ATOM     12  C   UNL     1      -8.280   7.258   9.982  0.00  0.00    +0.008 A 
ATOM     13  C   UNL     1      -7.824   6.380   9.019  0.00  0.00    -0.027 A 
ATOM     14  C   UNL     1      -7.434   6.857   7.775  0.00  0.00    +0.064 A 
ATOM     15  C   UNL     1      -7.515   8.216   7.499  0.00  0.00    +0.063 A 
ATOM     16  C   UNL     1      -7.978   9.089   8.466  0.00  0.00    +0.025 A 
ATOM     17 CL   UNL     1      -7.035   8.818   5.943  0.00  0.00    -0.082 Cl
ATOM     18  C   UNL     1      -7.744   4.905   9.320  0.00  0.00    +0.046 C 
ENDBRANCH   1  14
BRANCH   4  19
ATOM     19  C   UNL     1      -2.988   3.662   5.093  0.00  0.00    +0.133 C 
BRANCH  19  20
ATOM     20  S   UNL     1      -2.521   4.469   3.542  0.00  0.00    -0.078 S 
BRANCH  20  21
ATOM     21  C   UNL     1      -1.753   3.118   2.713  0.00  0.00    +0.209 A 
ATOM     22  N   UNL     1      -1.607   1.898   3.176  0.00  0.00    -0.121 NA
ATOM     23  N   UNL     1      -1.007   1.168   2.305  0.00  0.00    -0.123 NA
ATOM     24  C   UNL     1      -0.728   1.875   1.246  0.00  0.00    +0.255 A 
ATOM     25  N   UNL     1      -1.196   3.141   1.466  0.00  0.00    -0.220 N 
BRANCH  24  26
ATOM     26  C   UNL     1      -0.025   1.385   0.006  0.00  0.00    +0.454 C 
ATOM     27  F   UNL     1      -0.003  -0.013   0.004  0.00  0.00    -0.163 F 
ATOM     28  F   UNL     1       1.287   1.872  -0.008  0.00  0.00    -0.163 F 
ATOM     29  F   UNL     1      -0.705   1.844  -1.127  0.00  0.00    -0.163 F 
ENDBRANCH  24  26
BRANCH  25  30
ATOM     30  N   UNL     1      -1.122   4.207   0.615  0.00  0.00    -0.295 N 
ATOM     31  H   UNL     1      -0.644   4.093  -0.369  0.00  0.00    +0.163 HD
ATOM     32  H   UNL     1      -1.541   5.179   0.914  0.00  0.00    +0.163 HD
ENDBRANCH  25  30
ENDBRANCH  20  21
ENDBRANCH  19  20
ENDBRANCH   4  19
TORSDOF 6
