REMARK  Name = ZINC28629383
REMARK  9 active torsions:
REMARK  status: ('A' for Active; 'I' for Inactive)
REMARK    1  A    between atoms: C_1  and  C_2
REMARK    2  A    between atoms: C_5  and  C_8
REMARK    3  A    between atoms: C_8  and  O_32
REMARK    4  A    between atoms: C_9  and  C_26
REMARK    5  A    between atoms: C_11  and  C_17
REMARK    6  A    between atoms: C_20  and  C_23
REMARK    7  A    between atoms: C_23  and  C_24
REMARK    8  A    between atoms: C_23  and  C_25
REMARK    9  A    between atoms: C_26  and  C_28
REMARK                            x       y       z     vdW  Elec       q    Type
REMARK                         _______ _______ _______ _____ _____    ______ ____
ROOT
ATOM      1  C   UNL     1      -2.717   2.950   4.762  0.00  0.00    +0.172 C 
ATOM      2  C   UNL     1      -3.169   1.748   5.599  0.00  0.00    +0.144 C 
ATOM      3  C   UNL     1      -1.925   0.995   6.082  0.00  0.00    +0.120 C 
ATOM      4  N   UNL     1      -1.053   1.922   6.804  0.00  0.00    -0.292 N 
ATOM      5  C   UNL     1      -1.029   3.230   6.511  0.00  0.00    +0.302 C 
ATOM      6  O   UNL     1      -0.279   3.955   7.134  0.00  0.00    -0.253 OA
ATOM      7  N   UNL     1      -1.802   3.771   5.556  0.00  0.00    -0.267 N 
ATOM      8  H   UNL     1      -0.399   1.549   7.607  0.00  0.00    +0.151 HD
ATOM      9  H   UNL     1      -1.736   4.854   5.375  0.00  0.00    +0.153 HD
ENDROOT
BRANCH   1  14
ATOM     10  C   UNL     1      -0.013   1.086   0.008  0.00  0.00    +0.044 C 
ATOM     11  C   UNL     1      -0.718   1.572   1.248  0.00  0.00    -0.050 A 
ATOM     12  C   UNL     1      -2.083   1.789   1.226  0.00  0.00    +0.004 A 
ATOM     13  C   UNL     1      -2.731   2.231   2.365  0.00  0.00    +0.008 A 
ATOM     14  C   UNL     1      -2.012   2.464   3.522  0.00  0.00    +0.003 A 
ATOM     15  C   UNL     1      -0.646   2.251   3.543  0.00  0.00    +0.008 A 
ATOM     16  C   UNL     1       0.001   1.806   2.405  0.00  0.00    +0.004 A 
ENDBRANCH   1  14
BRANCH   3  17
ATOM     17  C   UNL     1      -2.341  -0.125   7.000  0.00  0.00    -0.026 A 
ATOM     18  C   UNL     1      -2.651   0.142   8.321  0.00  0.00    +0.006 A 
ATOM     19  C   UNL     1      -3.035  -0.885   9.162  0.00  0.00    +0.004 A 
ATOM     20  C   UNL     1      -3.102  -2.181   8.685  0.00  0.00    -0.045 A 
ATOM     21  C   UNL     1      -2.788  -2.449   7.366  0.00  0.00    +0.004 A 
ATOM     22  C   UNL     1      -2.407  -1.421   6.524  0.00  0.00    +0.006 A 
BRANCH  20  23
ATOM     23  C   UNL     1      -3.517  -3.301   9.604  0.00  0.00    +0.013 C 
ATOM     24  C   UNL     1      -2.538  -3.388  10.776  0.00  0.00    +0.012 C 
ATOM     25  C   UNL     1      -4.926  -3.030  10.135  0.00  0.00    +0.012 C 
ENDBRANCH  20  23
ENDBRANCH   3  17
BRANCH   2  26
ATOM     26  C   UNL     1      -3.963   2.228   6.787  0.00  0.00    +0.245 C 
ATOM     27  O   UNL     1      -3.791   3.343   7.217  0.00  0.00    -0.287 OA
BRANCH  26  28
ATOM     28  C   UNL     1      -4.971   1.317   7.437  0.00  0.00    +0.451 C 
ATOM     29  F   UNL     1      -6.240   1.903   7.372  0.00  0.00    -0.163 F 
ATOM     30  F   UNL     1      -4.991   0.089   6.766  0.00  0.00    -0.163 F 
ATOM     31  F   UNL     1      -4.620   1.111   8.775  0.00  0.00    -0.163 F 
ENDBRANCH  26  28
ENDBRANCH   2  26
BRANCH   1  32
ATOM     32  O   UNL     1      -3.856   3.729   4.390  0.00  0.00    -0.367 OA
ATOM     33  H   UNL     1      -4.498   4.171   5.166  0.00  0.00    +0.212 HD
ENDBRANCH   1  32
TORSDOF 6
