REMARK  Name = ZINC00904251
REMARK  5 active torsions:
REMARK  status: ('A' for Active; 'I' for Inactive)
REMARK    1  A    between atoms: C_3  and  C_9
REMARK    2  A    between atoms: C_4  and  O_8
REMARK    3  A    between atoms: C_6  and  O_7
REMARK    4  A    between atoms: C_10  and  N_19
REMARK    5  A    between atoms: N_19  and  C_20
REMARK                            x       y       z     vdW  Elec       q    Type
REMARK                         _______ _______ _______ _____ _____    ______ ____
ROOT
ATOM      1  C   UNL     1      -0.403  -0.003   2.541  0.00  0.00    +0.115 A 
ATOM      2  C   UNL     1      -0.102  -0.561   3.765  0.00  0.00    +0.131 A 
ATOM      3  N   UNL     1       0.019   0.473   4.652  0.00  0.00    -0.286 N 
ATOM      4  C   UNL     1       0.305   0.511   5.991  0.00  0.00    +0.109 A 
ATOM      5  C   UNL     1       0.358   1.687   6.648  0.00  0.00    +0.035 A 
ATOM      6  C   UNL     1       0.119   2.894   5.966  0.00  0.00    +0.020 A 
ATOM      7  C   UNL     1      -0.166   2.873   4.636  0.00  0.00    +0.048 A 
ATOM      8  C   UNL     1      -0.219   1.637   3.959  0.00  0.00    +0.140 A 
ATOM      9  N   UNL     1      -0.470   1.331   2.696  0.00  0.00    -0.226 NA
ATOM     10 BR   UNL     1       0.755   1.715   8.497  0.00  0.00    -0.049 Br
ENDROOT
BRANCH   1  13
ATOM     11  C   UNL     1      -0.725  -2.822   0.076  0.00  0.00    +0.046 A 
ATOM     12  C   UNL     1      -0.521  -2.135   1.255  0.00  0.00    +0.017 A 
ATOM     13  C   UNL     1      -0.621  -0.745   1.276  0.00  0.00    +0.045 A 
ATOM     14  C   UNL     1      -0.927  -0.052   0.100  0.00  0.00    +0.130 A 
ATOM     15  C   UNL     1      -1.135  -0.750  -1.077  0.00  0.00    +0.091 A 
ATOM     16  C   UNL     1      -1.029  -2.134  -1.090  0.00  0.00    +0.120 A 
BRANCH  16  17
ATOM     17  O   UNL     1      -1.229  -2.817  -2.248  0.00  0.00    -0.507 OA
ATOM     18  H   UNL     1      -2.148  -3.079  -2.396  0.00  0.00    +0.292 HD
ENDBRANCH  16  17
BRANCH  14  19
ATOM     19  O   UNL     1      -1.026   1.304   0.114  0.00  0.00    -0.506 OA
ATOM     20  H   UNL     1      -0.193   1.760  -0.069  0.00  0.00    +0.292 HD
ENDBRANCH  14  19
ENDBRANCH   1  13
BRANCH   2  21
ATOM     21  N   UNL     1       0.054  -1.921   4.045  0.00  0.00    -0.326 N 
ATOM     22  H   UNL     1       0.842  -2.305   3.545  0.00  0.00    +0.148 HD
BRANCH  21  23
ATOM     23  C   UNL     1       0.186  -2.149   5.490  0.00  0.00    +0.072 C 
ATOM     24  C   UNL     1       1.668  -2.047   5.908  0.00  0.00    +0.022 C 
ATOM     25  C   UNL     1       1.830  -3.137   6.997  0.00  0.00    +0.002 C 
ATOM     26  C   UNL     1       0.944  -4.290   6.463  0.00  0.00    +0.002 C 
ATOM     27  C   UNL     1      -0.274  -3.574   5.843  0.00  0.00    +0.022 C 
ENDBRANCH  21  23
ENDBRANCH   2  21
TORSDOF 5
