REMARK  Name = ZINC46728380
REMARK  6 active torsions:
REMARK  status: ('A' for Active; 'I' for Inactive)
REMARK    1  A    between atoms: C_9  and  C_12
REMARK    2  A    between atoms: C_12  and  N_13
REMARK    3  A    between atoms: N_16  and  C_17
REMARK    4  A    between atoms: C_17  and  C_18
REMARK    5  A    between atoms: C_18  and  C_20
REMARK    6  A    between atoms: C_18  and  N_25
REMARK                            x       y       z     vdW  Elec       q    Type
REMARK                         _______ _______ _______ _____ _____    ______ ____
ROOT
ATOM      1  N   UNL     1       6.044  -2.821  -1.476  0.00  0.00    -0.296 N 
ATOM      2  C   UNL     1       7.344  -3.134  -1.306  0.00  0.00    +0.300 C 
ATOM      3  O   UNL     1       7.655  -4.222  -0.863  0.00  0.00    -0.253 OA
ATOM      4  N   UNL     1       8.300  -2.240  -1.628  0.00  0.00    -0.301 N 
ATOM      5  H   UNL     1       5.796  -1.953  -1.830  0.00  0.00    +0.150 HD
ATOM      6  H   UNL     1       8.052  -1.371  -1.982  0.00  0.00    +0.150 HD
ENDROOT
BRANCH   1   7
ATOM      7  C   UNL     1       5.005  -3.793  -1.126  0.00  0.00    +0.153 C 
BRANCH   7  16
ATOM      8  C   UNL     1      -0.409  -0.532  -0.338  0.00  0.00    +0.004 A 
ATOM      9  C   UNL     1       0.671   0.260   0.003  0.00  0.00    +0.004 A 
ATOM     10  C   UNL     1       1.956  -0.241  -0.091  0.00  0.00    +0.049 A 
ATOM     11  C   UNL     1       2.165  -1.540  -0.530  0.00  0.00    +0.163 A 
ATOM     12  C   UNL     1       1.079  -2.336  -0.875  0.00  0.00    +0.162 A 
ATOM     13  C   UNL     1      -0.208  -1.827  -0.776  0.00  0.00    +0.049 A 
ATOM     14  O   UNL     1       1.262  -3.611  -1.316  0.00  0.00    -0.485 OA
ATOM     15  C   UNL     1       2.535  -4.207  -1.048  0.00  0.00    +0.275 C 
ATOM     16  C   UNL     1       3.628  -3.193  -1.413  0.00  0.00    +0.228 C 
ATOM     17  O   UNL     1       3.435  -2.021  -0.614  0.00  0.00    -0.480 OA
ENDBRANCH   7  16
ENDBRANCH   1   7
BRANCH   4  18
ATOM     18  C   UNL     1       9.713  -2.579  -1.444  0.00  0.00    +0.098 C 
BRANCH  18  19
ATOM     19  C   UNL     1      10.585  -1.453  -2.003  0.00  0.00    +0.016 C 
BRANCH  19  20
ATOM     20  N   UNL     1      10.250  -1.230  -3.416  0.00  0.00    +0.387 N 
ATOM     21  C   UNL     1      10.386  -2.491  -4.155  0.00  0.00    -0.078 C 
ATOM     22  C   UNL     1       9.960  -2.283  -5.610  0.00  0.00    -0.019 C 
ATOM     23  C   UNL     1      10.853  -1.216  -6.249  0.00  0.00    -0.004 C 
ATOM     24  C   UNL     1      10.760   0.073  -5.427  0.00  0.00    -0.019 C 
ATOM     25  C   UNL     1      11.156  -0.223  -3.979  0.00  0.00    -0.078 C 
ATOM     26  H   UNL     1       9.298  -0.902  -3.487  0.00  0.00    -0.081 HD
ENDBRANCH  19  20
BRANCH  19  27
ATOM     27  C   UNL     1      12.037  -1.838  -1.886  0.00  0.00    +0.093 A 
ATOM     28  C   UNL     1      12.926  -1.302  -1.030  0.00  0.00    +0.043 A 
ATOM     29  C   UNL     1      14.160  -1.953  -1.261  0.00  0.00    +0.041 A 
ATOM     30  C   UNL     1      13.951  -2.847  -2.244  0.00  0.00    +0.195 A 
ATOM     31  O   UNL     1      12.662  -2.777  -2.615  0.00  0.00    -0.469 OA
ENDBRANCH  19  27
ENDBRANCH  18  19
ENDBRANCH   4  18
TORSDOF 6
