REMARK  Name = ZINC38889489
REMARK  6 active torsions:
REMARK  status: ('A' for Active; 'I' for Inactive)
REMARK    1  A    between atoms: C_1  and  C_2
REMARK    2  A    between atoms: C_2  and  C_20
REMARK    3  A    between atoms: N_3  and  N_4
REMARK    4  A    between atoms: C_5  and  C_7
REMARK    5  A    between atoms: C_10  and  C_12
REMARK    6  A    between atoms: C_23  and  N_26
REMARK                            x       y       z     vdW  Elec       q    Type
REMARK                         _______ _______ _______ _____ _____    ______ ____
ROOT
ATOM      1  N   UNL     1       0.024   0.035   2.340  0.00  0.00    -0.202 N 
ATOM      2  C   UNL     1       0.044  -0.645   3.503  0.00  0.00    +0.280 C 
ATOM      3  O   UNL     1       0.060  -1.863   3.497  0.00  0.00    -0.267 OA
ATOM      4  H   UNL     1       0.011   1.005   2.345  0.00  0.00    +0.178 HD
ENDROOT
BRANCH   2   5
ATOM      5  C   UNL     1       0.046   0.080   4.776  0.00  0.00    +0.132 C 
ATOM      6  N   UNL     1       0.025   1.376   4.954  0.00  0.00    -0.148 NA
ATOM      7  N   UNL     1       0.033   1.740   6.176  0.00  0.00    -0.153 NA
ATOM      8  C   UNL     1       0.061   0.747   7.035  0.00  0.00    +0.078 C 
ATOM      9  C   UNL     1       0.068  -0.508   6.177  0.00  0.00    +0.120 C 
BRANCH   8  10
ATOM     10  C   UNL     1       0.078   0.830   8.499  0.00  0.00    +0.017 A 
ATOM     11  C   UNL     1       0.115  -0.340   9.271  0.00  0.00    +0.012 A 
ATOM     12  C   UNL     1       0.131  -0.253  10.645  0.00  0.00    +0.021 A 
ATOM     13  C   UNL     1       0.110   0.987  11.266  0.00  0.00    +0.042 A 
ATOM     14  C   UNL     1       0.072   2.148  10.512  0.00  0.00    +0.040 A 
ATOM     15  C   UNL     1       0.062   2.080   9.134  0.00  0.00    +0.051 A 
ATOM     16 CL   UNL     1       0.023   3.536   8.191  0.00  0.00    -0.083 Cl
ATOM     17 CL   UNL     1       0.130   1.083  12.999  0.00  0.00    -0.083 Cl
ENDBRANCH   8  10
ENDBRANCH   2   5
BRANCH   1  20
ATOM     18  C   UNL     1      -0.018   1.503   0.010  0.00  0.00    +0.068 C 
ATOM     19  C   UNL     1       0.002  -0.004   0.002  0.00  0.00    +0.063 C 
ATOM     20  N   UNL     1       0.022  -0.659   1.123  0.00  0.00    -0.184 NA
BRANCH  19  21
ATOM     21  C   UNL     1      -0.000  -0.734  -1.279  0.00  0.00    -0.002 A 
ATOM     22  C   UNL     1      -0.015  -0.033  -2.487  0.00  0.00    +0.012 A 
ATOM     23  C   UNL     1      -0.017  -0.722  -3.681  0.00  0.00    +0.033 A 
ATOM     24  C   UNL     1      -0.003  -2.106  -3.685  0.00  0.00    +0.126 A 
ATOM     25  C   UNL     1       0.012  -2.808  -2.492  0.00  0.00    +0.033 A 
ATOM     26  C   UNL     1       0.019  -2.131  -1.290  0.00  0.00    +0.012 A 
BRANCH  24  27
ATOM     27  N   UNL     1      -0.005  -2.839  -4.971  0.00  0.00    +0.056 N 
ATOM     28  O   UNL     1      -0.019  -2.229  -6.014  0.00  0.00    -0.126 OA
ATOM     29  O   UNL     1       0.006  -4.048  -4.978  0.00  0.00    -0.126 OA
ENDBRANCH  24  27
ENDBRANCH  19  21
ENDBRANCH   1  20
TORSDOF 5
