REMARK  Name = ZINC42269869
REMARK  7 active torsions:
REMARK  status: ('A' for Active; 'I' for Inactive)
REMARK    1  A    between atoms: C_1  and  C_2
REMARK    2  A    between atoms: C_3  and  N_22
REMARK    3  A    between atoms: C_7  and  S_8
REMARK    4  A    between atoms: S_8  and  N_11
REMARK    5  A    between atoms: N_11  and  C_12
REMARK    6  A    between atoms: N_11  and  C_13
REMARK    7  A    between atoms: C_19  and  C_21
REMARK                            x       y       z     vdW  Elec       q    Type
REMARK                         _______ _______ _______ _____ _____    ______ ____
ROOT
ATOM      1  S   UNL     1       0.318   0.106   2.466  0.00  0.00    +0.061 S 
ATOM      2  O   UNL     1      -0.825   0.929   2.277  0.00  0.00    -0.153 OA
ATOM      3  O   UNL     1       0.415  -0.831   3.529  0.00  0.00    -0.153 OA
ENDROOT
BRANCH   1  10
ATOM      4  C   UNL     1       0.241   1.334  -0.296  0.00  0.00    +0.047 C 
ATOM      5  C   UNL     1       0.483  -0.153  -0.245  0.00  0.00    -0.004 A 
ATOM      6  C   UNL     1       0.660  -0.870  -1.422  0.00  0.00    +0.029 A 
ATOM      7  C   UNL     1       0.884  -2.239  -1.370  0.00  0.00    +0.023 A 
ATOM      8  C   UNL     1       0.930  -2.884  -0.150  0.00  0.00    +0.004 A 
ATOM      9  C   UNL     1       0.753  -2.168   1.020  0.00  0.00    +0.029 A 
ATOM     10  C   UNL     1       0.535  -0.803   0.972  0.00  0.00    +0.110 A 
BRANCH   6  11
ATOM     11  N   UNL     1       0.613  -0.214  -2.655  0.00  0.00    -0.358 N 
ATOM     12  H   UNL     1       0.456   0.743  -2.689  0.00  0.00    +0.142 HD
ATOM     13  H   UNL     1       0.737  -0.716  -3.475  0.00  0.00    +0.142 HD
ENDBRANCH   6  11
ENDBRANCH   1  10
BRANCH   1  14
ATOM     14  N   UNL     1       1.615   1.125   2.612  0.00  0.00    -0.176 NA
ATOM     15  C   UNL     1       1.500   2.523   2.192  0.00  0.00    +0.132 C 
BRANCH  14  16
ATOM     16  C   UNL     1       2.878   0.627   3.163  0.00  0.00    +0.082 C 
ATOM     17  C   UNL     1       3.988   0.793   2.123  0.00  0.00    +0.021 C 
ATOM     18  C   UNL     1       5.308   0.274   2.697  0.00  0.00    +0.002 C 
ATOM     19  C   UNL     1       5.664   1.068   3.955  0.00  0.00    +0.000 C 
ATOM     20  C   UNL     1       4.554   0.902   4.995  0.00  0.00    +0.005 C 
ATOM     21  C   UNL     1       3.235   1.422   4.420  0.00  0.00    +0.005 C 
ATOM     22  C   UNL     1       2.125   1.256   5.460  0.00  0.00    +0.009 C 
ENDBRANCH  14  16
ENDBRANCH   1  14
TORSDOF 4
