REMARK  Name = ZINC04831715
REMARK  6 active torsions:
REMARK  status: ('A' for Active; 'I' for Inactive)
REMARK    1  A    between atoms: C_1  and  C_2
REMARK    2  A    between atoms: C_5  and  O_37
REMARK    3  A    between atoms: C_16  and  O_36
REMARK    4  A    between atoms: C_19  and  C_35
REMARK    5  A    between atoms: C_22  and  O_34
REMARK    6  A    between atoms: C_25  and  C_27
REMARK                            x       y       z     vdW  Elec       q    Type
REMARK                         _______ _______ _______ _____ _____    ______ ____
ROOT
ATOM      1  C   UNL     1       3.615   1.920   1.005  0.00  0.00    +0.012 C 
ATOM      2  C   UNL     1       2.657   3.111   1.183  0.00  0.00    -0.024 C 
ATOM      3  C   UNL     1       1.977   2.701   2.457  0.00  0.00    +0.010 C 
ATOM      4  C   UNL     1       1.680   3.800   3.445  0.00  0.00    +0.032 C 
ATOM      5  C   UNL     1       2.849   4.745   3.617  0.00  0.00    +0.115 C 
ATOM      6  C   UNL     1       3.327   5.293   2.299  0.00  0.00    +0.035 C 
ATOM      7  C   UNL     1       3.642   4.232   1.246  0.00  0.00    -0.002 C 
ATOM      8  C   UNL     1       3.956   4.999  -0.032  0.00  0.00    +0.004 C 
ATOM      9  C   UNL     1       3.250   4.480  -1.274  0.00  0.00    +0.004 C 
ATOM     10  C   UNL     1       1.783   4.244  -0.863  0.00  0.00    +0.001 C 
ATOM     11  C   UNL     1       1.813   2.941  -0.066  0.00  0.00    +0.027 C 
ATOM     12  C   UNL     1       0.441   2.358   0.200  0.00  0.00    +0.119 C 
ATOM     13  C   UNL     1      -0.551   2.505  -0.966  0.00  0.00    +0.039 C 
ATOM     14  C   UNL     1       0.187   2.838  -2.245  0.00  0.00    -0.017 C 
ATOM     15  C   UNL     1       0.862   4.210  -2.027  0.00  0.00    +0.028 C 
ATOM     16  C   UNL     1       1.337   4.577  -3.427  0.00  0.00    +0.119 C 
ATOM     17  C   UNL     1       0.146   4.125  -4.320  0.00  0.00    +0.040 C 
ATOM     18  C   UNL     1      -0.708   3.155  -3.465  0.00  0.00    +0.031 C 
ATOM     19  C   UNL     1       1.155   1.729  -2.670  0.00  0.00    +0.012 C 
ENDROOT
BRANCH  18  20
ATOM     20  C   UNL     1      -2.013   3.799  -3.071  0.00  0.00    -0.009 A 
ATOM     21  C   UNL     1      -2.049   5.161  -2.726  0.00  0.00    +0.014 A 
ATOM     22  C   UNL     1      -3.242   5.724  -2.379  0.00  0.00    +0.092 A 
ATOM     23  C   UNL     1      -4.397   4.921  -2.364  0.00  0.00    +0.337 A 
ATOM     24  O   UNL     1      -5.471   5.405  -2.051  0.00  0.00    -0.245 OA
ATOM     25  O   UNL     1      -4.317   3.621  -2.696  0.00  0.00    -0.430 OA
ATOM     26  C   UNL     1      -3.146   3.068  -3.044  0.00  0.00    +0.203 A 
ENDBRANCH  18  20
BRANCH  16  27
ATOM     27  O   UNL     1       1.527   5.991  -3.539  0.00  0.00    -0.391 OA
ATOM     28  H   UNL     1       1.830   6.279  -4.411  0.00  0.00    +0.210 HD
ENDBRANCH  16  27
BRANCH  12  29
ATOM     29  O   UNL     1       0.562   0.960   0.509  0.00  0.00    -0.391 OA
ATOM     30  H   UNL     1      -0.281   0.523   0.691  0.00  0.00    +0.210 HD
ENDBRANCH  12  29
BRANCH   5  31
ATOM     31  O   UNL     1       3.924   4.046   4.247  0.00  0.00    -0.392 OA
ATOM     32  H   UNL     1       3.695   3.662   5.104  0.00  0.00    +0.210 HD
ENDBRANCH   5  31
TORSDOF 4
