REMARK  Name = ZINC14027859
REMARK  8 active torsions:
REMARK  status: ('A' for Active; 'I' for Inactive)
REMARK    1  A    between atoms: C_4  and  C_7
REMARK    2  A    between atoms: C_7  and  O_8
REMARK    3  A    between atoms: O_8  and  C_9
REMARK    4  A    between atoms: C_12  and  C_15
REMARK    5  A    between atoms: N_17  and  N_18
REMARK    6  A    between atoms: C_19  and  C_21
REMARK    7  A    between atoms: C_21  and  O_22
REMARK    8  A    between atoms: O_22  and  C_23
REMARK                            x       y       z     vdW  Elec       q    Type
REMARK                         _______ _______ _______ _____ _____    ______ ____
ROOT
ATOM      1  C   UNL     1       4.016  12.513   0.024  0.00  0.00    +0.260 C 
ATOM      2  O   UNL     1       5.146  12.062   0.011  0.00  0.00    -0.269 OA
ATOM      3  N   UNL     1       2.958  11.678   0.030  0.00  0.00    -0.230 N 
ATOM      4  H   UNL     1       2.057  12.038   0.040  0.00  0.00    +0.173 HD
ENDROOT
BRANCH   1   8
ATOM      5  C   UNL     1       3.408  16.715   0.050  0.00  0.00    +0.121 A 
ATOM      6  C   UNL     1       4.699  16.202   0.035  0.00  0.00    +0.046 A 
ATOM      7  C   UNL     1       4.901  14.840   0.026  0.00  0.00    +0.016 A 
ATOM      8  C   UNL     1       3.805  13.973   0.033  0.00  0.00    +0.038 A 
ATOM      9  C   UNL     1       2.508  14.493   0.042  0.00  0.00    +0.016 A 
ATOM     10  C   UNL     1       2.315  15.857   0.056  0.00  0.00    +0.046 A 
BRANCH   5  11
ATOM     11  O   UNL     1       3.213  18.059   0.058  0.00  0.00    -0.487 OA
BRANCH  11  12
ATOM     12  C   UNL     1       1.860  18.518   0.073  0.00  0.00    +0.264 C 
BRANCH  12  16
ATOM     13  C   UNL     1       1.807  22.789   0.093  0.00  0.00    +0.000 A 
ATOM     14  C   UNL     1       1.804  22.104  -1.107  0.00  0.00    +0.000 A 
ATOM     15  C   UNL     1       1.821  20.722  -1.114  0.00  0.00    +0.007 A 
ATOM     16  C   UNL     1       1.841  20.025   0.080  0.00  0.00    -0.010 A 
ATOM     17  C   UNL     1       1.839  20.710   1.280  0.00  0.00    +0.007 A 
ATOM     18  C   UNL     1       1.827  22.093   1.287  0.00  0.00    +0.000 A 
ENDBRANCH  12  16
ENDBRANCH  11  12
ENDBRANCH   5  11
ENDBRANCH   1   8
BRANCH   3  19
ATOM     19  N   UNL     1       3.159  10.292   0.022  0.00  0.00    -0.231 N 
ATOM     20  C   UNL     1       2.100   9.458   0.028  0.00  0.00    +0.267 C 
ATOM     21  O   UNL     1       0.974   9.907   0.041  0.00  0.00    -0.271 OA
ATOM     22  H   UNL     1       4.060   9.932   0.011  0.00  0.00    +0.173 HD
BRANCH  20  23
ATOM     23  C   UNL     1       2.316   7.966   0.019  0.00  0.00    +0.326 C 
BRANCH  23  24
ATOM     24  O   UNL     1       1.051   7.302   0.028  0.00  0.00    -0.482 OA
BRANCH  24  25
ATOM     25  C   UNL     1       1.068   5.943   0.021  0.00  0.00    +0.136 A 
ATOM     26  C   UNL     1       2.293   5.268   0.006  0.00  0.00    +0.047 A 
ATOM     27  C   UNL     1       2.342   3.909  -0.000  0.00  0.00    +0.012 A 
ATOM     28  C   UNL     1       1.148   3.167   0.008  0.00  0.00    -0.017 A 
ATOM     29  C   UNL     1       1.163   1.762   0.000  0.00  0.00    +0.008 A 
ATOM     30  C   UNL     1      -0.013   1.076   0.008  0.00  0.00    +0.001 A 
ATOM     31  C   UNL     1      -1.235   1.746   0.017  0.00  0.00    +0.001 A 
ATOM     32  C   UNL     1      -1.288   3.106   0.030  0.00  0.00    +0.010 A 
ATOM     33  C   UNL     1      -0.095   3.849   0.023  0.00  0.00    -0.000 A 
ATOM     34  C   UNL     1      -0.112   5.254   0.029  0.00  0.00    +0.067 A 
ATOM     35 BR   UNL     1      -1.757   6.185   0.049  0.00  0.00    -0.046 Br
ENDBRANCH  24  25
ENDBRANCH  23  24
ENDBRANCH  20  23
ENDBRANCH   3  19
TORSDOF 8
