REMARK  Name = ZINC01215609
REMARK  10 active torsions:
REMARK  status: ('A' for Active; 'I' for Inactive)
REMARK    1  A    between atoms: C_1  and  C_2
REMARK    2  A    between atoms: C_2  and  O_3
REMARK    3  A    between atoms: O_3  and  C_4
REMARK    4  A    between atoms: C_6  and  C_19
REMARK    5  A    between atoms: C_9  and  O_10
REMARK    6  A    between atoms: O_10  and  C_11
REMARK    7  A    between atoms: C_11  and  C_12
REMARK    8  A    between atoms: N_20  and  N_21
REMARK    9  A    between atoms: N_21  and  C_22
REMARK   10  A    between atoms: C_22  and  N_24
REMARK                            x       y       z     vdW  Elec       q    Type
REMARK                         _______ _______ _______ _____ _____    ______ ____
ROOT
ATOM      1  C   UNL     1       6.476  -0.871  -1.690  0.00  0.00    +0.164 A 
ATOM      2  C   UNL     1       7.672  -1.537  -1.882  0.00  0.00    +0.059 A 
ATOM      3  C   UNL     1       7.684  -2.930  -1.981  0.00  0.00    -0.001 A 
ATOM      4  C   UNL     1       6.487  -3.644  -1.881  0.00  0.00    +0.027 A 
ATOM      5  C   UNL     1       5.298  -2.973  -1.685  0.00  0.00    +0.059 A 
ATOM      6  C   UNL     1       5.288  -1.589  -1.586  0.00  0.00    +0.175 A 
ATOM      7  I   UNL     1       3.505  -4.046  -1.534  0.00  0.00    -0.040 I 
ENDROOT
BRANCH   3   8
ATOM      8  C   UNL     1       8.956  -3.646  -2.192  0.00  0.00    +0.138 C 
ATOM      9  N   UNL     1       8.965  -4.940  -2.285  0.00  0.00    -0.188 NA
BRANCH   9  10
ATOM     10  N   UNL     1      10.173  -5.620  -2.485  0.00  0.00    -0.219 N 
ATOM     11  H   UNL     1      11.003  -5.123  -2.554  0.00  0.00    +0.176 HD
BRANCH  10  12
ATOM     12  C   UNL     1      10.182  -6.964  -2.581  0.00  0.00    +0.147 C 
ATOM     13  S   UNL     1      11.659  -7.795  -2.826  0.00  0.00    -0.017 S 
BRANCH  12  14
ATOM     14  N   UNL     1       9.029  -7.655  -2.485  0.00  0.00    -0.339 N 
ATOM     15  H   UNL     1       8.192  -7.184  -2.346  0.00  0.00    +0.144 HD
ATOM     16  H   UNL     1       9.036  -8.622  -2.554  0.00  0.00    +0.144 HD
ENDBRANCH  12  14
ENDBRANCH  10  12
ENDBRANCH   9  10
ENDBRANCH   3   8
BRANCH   1  17
ATOM     17  O   UNL     1       6.461   0.486  -1.599  0.00  0.00    -0.489 OA
BRANCH  17  19
ATOM     18  C   UNL     1       7.501   2.668  -1.588  0.00  0.00    +0.048 C 
ATOM     19  C   UNL     1       7.717   1.158  -1.715  0.00  0.00    +0.226 C 
ENDBRANCH  17  19
ENDBRANCH   1  17
BRANCH   6  20
ATOM     20  O   UNL     1       4.113  -0.932  -1.392  0.00  0.00    -0.483 OA
BRANCH  20  21
ATOM     21  C   UNL     1       3.711  -0.707  -0.039  0.00  0.00    +0.264 C 
BRANCH  21  22
ATOM     22  C   UNL     1       2.396   0.029  -0.022  0.00  0.00    -0.010 A 
ATOM     23  C   UNL     1       1.208  -0.679  -0.014  0.00  0.00    +0.007 A 
ATOM     24  C   UNL     1       0.002  -0.004   0.002  0.00  0.00    +0.000 A 
ATOM     25  C   UNL     1      -0.017   1.378   0.010  0.00  0.00    +0.000 A 
ATOM     26  C   UNL     1       1.171   2.086   0.002  0.00  0.00    +0.000 A 
ATOM     27  C   UNL     1       2.377   1.411  -0.014  0.00  0.00    +0.007 A 
ENDBRANCH  21  22
ENDBRANCH  20  21
ENDBRANCH   6  20
TORSDOF 9
