REMARK  Name = ZINC09614127
REMARK  4 active torsions:
REMARK  status: ('A' for Active; 'I' for Inactive)
REMARK    1  A    between atoms: C_9  and  C_12
REMARK    2  A    between atoms: C_15  and  C_17
REMARK    3  A    between atoms: N_20  and  C_23
REMARK    4  A    between atoms: C_26  and  C_28
REMARK                            x       y       z     vdW  Elec       q    Type
REMARK                         _______ _______ _______ _____ _____    ______ ____
ROOT
ATOM      1  C   UNL     1       3.790   1.827  -0.628  0.00  0.00    +0.078 C 
ATOM      2  C   UNL     1       2.964   1.095   0.433  0.00  0.00    +0.032 C 
ATOM      3  C   UNL     1       3.103  -0.415   0.230  0.00  0.00    +0.107 C 
ATOM      4  N   UNL     1       4.517  -0.796   0.336  0.00  0.00    -0.315 N 
ATOM      5  C   UNL     1       5.323  -0.142  -0.703  0.00  0.00    +0.107 C 
ATOM      6  C   UNL     1       5.250   1.376  -0.528  0.00  0.00    +0.032 C 
ENDROOT
BRANCH   1  17
ATOM      7  C   UNL     1       3.387   7.442   0.243  0.00  0.00    +0.002 A 
ATOM      8  C   UNL     1       2.175   8.061  -0.002  0.00  0.00    +0.004 A 
ATOM      9  C   UNL     1       1.126   7.348  -0.549  0.00  0.00    +0.047 A 
ATOM     10  C   UNL     1       1.280   6.001  -0.844  0.00  0.00    +0.143 A 
ATOM     11  C   UNL     1       2.498   5.378  -0.588  0.00  0.00    +0.078 A 
ATOM     12  C   UNL     1       3.550   6.099  -0.046  0.00  0.00    +0.027 A 
ATOM     13  N   UNL     1       2.657   4.012  -0.878  0.00  0.00    -0.264 N 
ATOM     14  C   UNL     1       1.638   3.369  -1.727  0.00  0.00    +0.168 C 
ATOM     15  C   UNL     1       0.265   3.882  -1.271  0.00  0.00    +0.276 C 
ATOM     16  O   UNL     1       0.244   5.307  -1.384  0.00  0.00    -0.476 OA
ATOM     17  C   UNL     1       3.705   3.313  -0.397  0.00  0.00    +0.223 C 
ATOM     18  O   UNL     1       4.579   3.882   0.223  0.00  0.00    -0.275 OA
BRANCH  15  19
ATOM     19  C   UNL     1      -0.811   3.290  -2.145  0.00  0.00    +0.253 C 
ATOM     20  O   UNL     1      -1.466   4.008  -2.870  0.00  0.00    -0.272 OA
ATOM     21  N   UNL     1      -1.044   1.963  -2.121  0.00  0.00    -0.326 N 
ATOM     22  H   UNL     1      -0.520   1.389  -1.541  0.00  0.00    +0.145 HD
ATOM     23  H   UNL     1      -1.736   1.582  -2.683  0.00  0.00    +0.145 HD
ENDBRANCH  15  19
ENDBRANCH   1  17
BRANCH   4  24
ATOM     24  C   UNL     1       4.666  -2.178   0.287  0.00  0.00    +0.117 A 
ATOM     25  C   UNL     1       4.701  -2.911   1.470  0.00  0.00    +0.079 A 
ATOM     26  C   UNL     1       4.844  -4.285   1.406  0.00  0.00    +0.037 A 
ATOM     27  C   UNL     1       4.959  -4.882   0.157  0.00  0.00    +0.072 A 
ATOM     28  C   UNL     1       4.922  -4.093  -0.975  0.00  0.00    +0.096 A 
ATOM     29 CL   UNL     1       4.561  -2.111   3.005  0.00  0.00    -0.080 Cl
ATOM     30  N   UNL     1       4.777  -2.741  -0.950  0.00  0.00    -0.348 N 
ATOM     31  H   UNL     1       4.753  -2.179  -1.809  0.00  0.00    +0.167 HD
BRANCH  27  32
ATOM     32  C   UNL     1       5.123  -6.375   0.039  0.00  0.00    +0.419 C 
ATOM     33  F   UNL     1       5.217  -6.729  -1.312  0.00  0.00    -0.166 F 
ATOM     34  F   UNL     1       6.288  -6.771   0.706  0.00  0.00    -0.166 F 
ATOM     35  F   UNL     1       4.018  -7.013   0.612  0.00  0.00    -0.166 F 
ENDBRANCH  27  32
ENDBRANCH   4  24
TORSDOF 4
