REMARK  Name = ZINC05275763
REMARK  4 active torsions:
REMARK  status: ('A' for Active; 'I' for Inactive)
REMARK    1  A    between atoms: C_1  and  C_2
REMARK    2  A    between atoms: C_11  and  O_27
REMARK    3  A    between atoms: C_16  and  O_26
REMARK    4  A    between atoms: C_20  and  C_25
REMARK                            x       y       z     vdW  Elec       q    Type
REMARK                         _______ _______ _______ _____ _____    ______ ____
ROOT
ATOM      1  C   UNL     1      -1.470  -1.695   3.891  0.00  0.00    +0.011 C 
ATOM      2  C   UNL     1       0.034  -1.438   3.992  0.00  0.00    -0.029 C 
ATOM      3  C   UNL     1       0.528  -2.036   5.325  0.00  0.00    +0.007 C 
ATOM      4  C   UNL     1       0.645  -3.552   5.032  0.00  0.00    +0.001 C 
ATOM      5  C   UNL     1       0.603  -3.710   3.488  0.00  0.00    +0.004 C 
ATOM      6  C   UNL     1       0.829  -2.278   2.973  0.00  0.00    -0.002 C 
ATOM      7  C   UNL     1       0.337  -2.034   1.552  0.00  0.00    -0.001 C 
ATOM      8  C   UNL     1       1.474  -2.456   0.612  0.00  0.00    +0.035 C 
ATOM      9  C   UNL     1       1.112  -2.105  -0.829  0.00  0.00    +0.119 C 
ATOM     10  C   UNL     1       0.991  -0.593  -0.959  0.00  0.00    +0.026 C 
ATOM     11  C   UNL     1       2.353   0.074  -0.944  0.00  0.00    +0.038 C 
ATOM     12  C   UNL     1       2.200   1.581  -1.147  0.00  0.00    +0.115 C 
ATOM     13  C   UNL     1       1.363   2.146   0.001  0.00  0.00    +0.032 C 
ATOM     14  C   UNL     1      -0.019   1.519   0.010  0.00  0.00    +0.010 C 
ATOM     15  C   UNL     1       0.002  -0.004   0.002  0.00  0.00    -0.024 C 
ATOM     16  C   UNL     1       0.032  -0.554   1.403  0.00  0.00    -0.001 C 
ATOM     17  C   UNL     1       0.860   0.269   2.383  0.00  0.00    +0.005 C 
ATOM     18  C   UNL     1       0.345   0.031   3.815  0.00  0.00    +0.007 C 
ATOM     19  C   UNL     1      -1.385  -0.398  -0.549  0.00  0.00    +0.012 C 
ENDROOT
BRANCH  12  20
ATOM     20  O   UNL     1       3.487   2.196  -1.152  0.00  0.00    -0.392 OA
ATOM     21  H   UNL     1       3.465   3.155  -1.277  0.00  0.00    +0.210 HD
ENDBRANCH  12  20
BRANCH   9  22
ATOM     22  O   UNL     1       2.139  -2.581  -1.706  0.00  0.00    -0.391 OA
ATOM     23  H   UNL     1       2.270  -3.539  -1.674  0.00  0.00    +0.210 HD
ENDBRANCH   9  22
TORSDOF 2
