REMARK  Name = ZINC58993700
REMARK  7 active torsions:
REMARK  status: ('A' for Active; 'I' for Inactive)
REMARK    1  A    between atoms: C_1  and  C_2
REMARK    2  A    between atoms: C_10  and  C_11
REMARK    3  A    between atoms: C_11  and  C_12
REMARK    4  A    between atoms: C_11  and  N_13
REMARK    5  A    between atoms: C_14  and  C_16
REMARK    6  A    between atoms: C_20  and  S_22
REMARK    7  A    between atoms: S_22  and  N_25
REMARK                            x       y       z     vdW  Elec       q    Type
REMARK                         _______ _______ _______ _____ _____    ______ ____
ROOT
ATOM      1  N   UNL     1       1.025  -1.119   3.258  0.00  0.00    -0.302 N 
ATOM      2  C   UNL     1       1.577  -0.595   4.370  0.00  0.00    +0.245 C 
ATOM      3  O   UNL     1       1.250   0.514   4.747  0.00  0.00    -0.270 OA
ATOM      4  H   UNL     1       1.286  -2.003   2.958  0.00  0.00    +0.150 HD
ENDROOT
BRANCH   2   5
ATOM      5  C   UNL     1       2.580  -1.368   5.132  0.00  0.00    +0.039 A 
ATOM      6  C   UNL     1       2.962  -2.639   4.699  0.00  0.00    +0.014 A 
ATOM      7  C   UNL     1       3.899  -3.355   5.413  0.00  0.00    +0.023 A 
ATOM      8  C   UNL     1       4.461  -2.816   6.559  0.00  0.00    +0.067 A 
ATOM      9  C   UNL     1       4.086  -1.556   6.994  0.00  0.00    +0.124 A 
ATOM     10  C   UNL     1       3.154  -0.828   6.285  0.00  0.00    +0.043 A 
ATOM     11 CL   UNL     1       5.639  -3.724   7.454  0.00  0.00    -0.082 Cl
BRANCH   9  12
ATOM     12  S   UNL     1       4.806  -0.879   8.452  0.00  0.00    +0.057 S 
ATOM     13  O   UNL     1       6.212  -1.048   8.328  0.00  0.00    -0.153 OA
ATOM     14  O   UNL     1       4.207   0.395   8.648  0.00  0.00    -0.153 OA
BRANCH  12  15
ATOM     15  N   UNL     1       4.326  -1.828   9.722  0.00  0.00    -0.203 NA
ATOM     16  H   UNL     1       3.750  -2.593   9.565  0.00  0.00    +0.144 HD
ATOM     17  H   UNL     1       4.620  -1.619  10.622  0.00  0.00    +0.144 HD
ENDBRANCH  12  15
ENDBRANCH   9  12
ENDBRANCH   2   5
BRANCH   1  18
ATOM     18  C   UNL     1       0.030  -0.352   2.503  0.00  0.00    +0.137 C 
ATOM     19  C   UNL     1      -1.354  -0.570   3.116  0.00  0.00    +0.036 C 
BRANCH  18  29
ATOM     20  C   UNL     1      -0.018   1.503   0.010  0.00  0.00    +0.048 C 
ATOM     21  C   UNL     1       0.002  -0.004   0.002  0.00  0.00    +0.000 A 
ATOM     22  C   UNL     1       0.009  -0.879  -1.177  0.00  0.00    +0.023 A 
ATOM     23  C   UNL     1       0.000  -0.660  -2.553  0.00  0.00    +0.012 A 
ATOM     24  C   UNL     1       0.011  -1.726  -3.409  0.00  0.00    +0.001 A 
ATOM     25  C   UNL     1       0.031  -3.023  -2.916  0.00  0.00    +0.004 A 
ATOM     26  C   UNL     1       0.040  -3.259  -1.558  0.00  0.00    +0.047 A 
ATOM     27  C   UNL     1       0.029  -2.190  -0.671  0.00  0.00    +0.136 A 
ATOM     28  O   UNL     1       0.033  -2.100   0.674  0.00  0.00    -0.458 OA
ATOM     29  C   UNL     1       0.023  -0.814   1.069  0.00  0.00    +0.129 A 
ENDBRANCH  18  29
ENDBRANCH   1  18
TORSDOF 5
