REMARK  Name = ZINC34971003
REMARK  7 active torsions:
REMARK  status: ('A' for Active; 'I' for Inactive)
REMARK    1  A    between atoms: C_1  and  C_2
REMARK    2  A    between atoms: C_2  and  C_4
REMARK    3  A    between atoms: C_2  and  N_18
REMARK    4  A    between atoms: C_8  and  C_17
REMARK    5  A    between atoms: C_13  and  C_15
REMARK    6  A    between atoms: C_13  and  C_16
REMARK    7  A    between atoms: N_21  and  C_22
REMARK                            x       y       z     vdW  Elec       q    Type
REMARK                         _______ _______ _______ _____ _____    ______ ____
ROOT
ATOM      1  C   UNL     1       0.182   1.480  -0.692  0.00  0.00    +0.038 C 
ATOM      2  C   UNL     1       0.184   0.157   0.075  0.00  0.00    +0.157 C 
ENDROOT
BRANCH   2   3
ATOM      3  C   UNL     1      -1.232  -0.227   0.420  0.00  0.00    +0.236 C 
ATOM      4  O   UNL     1      -1.853  -0.970  -0.310  0.00  0.00    -0.274 OA
ATOM      5  N   UNL     1      -1.808   0.255   1.539  0.00  0.00    -0.296 N 
ATOM      6  C   UNL     1      -1.220   1.250   2.450  0.00  0.00    +0.114 C 
ATOM      7  C   UNL     1      -2.230   1.434   3.606  0.00  0.00    -0.014 C 
ATOM      8  C   UNL     1      -3.580   1.100   2.916  0.00  0.00    +0.030 C 
ATOM      9  C   UNL     1      -3.141  -0.112   2.058  0.00  0.00    +0.077 C 
ATOM     10  C   UNL     1      -3.002  -1.306   2.998  0.00  0.00    +0.029 C 
ATOM     11  C   UNL     1      -2.057  -1.065   4.162  0.00  0.00    -0.033 C 
ATOM     12  C   UNL     1      -1.976   0.363   4.664  0.00  0.00    +0.014 C 
ATOM     13  C   UNL     1      -0.653  -1.577   3.803  0.00  0.00    +0.011 C 
ATOM     14  C   UNL     1      -2.551  -1.940   5.341  0.00  0.00    +0.011 C 
ATOM     15  C   UNL     1      -2.204   2.858   4.183  0.00  0.00    +0.013 C 
ENDBRANCH   2   3
BRANCH   2  16
ATOM     16  N   UNL     1       0.785  -0.889  -0.756  0.00  0.00    -0.288 N 
ATOM     17  C   UNL     1       2.124  -1.047  -0.777  0.00  0.00    +0.304 C 
ATOM     18  O   UNL     1       2.832  -0.322  -0.106  0.00  0.00    -0.252 OA
ATOM     19  N   UNL     1       2.676  -2.009  -1.542  0.00  0.00    -0.269 N 
ATOM     20  H   UNL     1       0.220  -1.468  -1.292  0.00  0.00    +0.151 HD
ATOM     21  H   UNL     1       2.110  -2.636  -2.018  0.00  0.00    +0.156 HD
BRANCH  19  22
ATOM     22  C   UNL     1       4.069  -2.103  -1.650  0.00  0.00    +0.035 A 
ATOM     23  C   UNL     1       4.649  -2.476  -2.856  0.00  0.00    +0.024 A 
ATOM     24  C   UNL     1       6.024  -2.568  -2.960  0.00  0.00    +0.017 A 
ATOM     25  C   UNL     1       6.822  -2.290  -1.864  0.00  0.00    +0.018 A 
ATOM     26  C   UNL     1       6.246  -1.919  -0.662  0.00  0.00    +0.017 A 
ATOM     27  C   UNL     1       4.873  -1.820  -0.554  0.00  0.00    +0.024 A 
ATOM     28 BR   UNL     1       8.703  -2.418  -2.010  0.00  0.00    -0.050 Br
ENDBRANCH  19  22
ENDBRANCH   2  16
TORSDOF 3
