REMARK  Name = ZINC34798995
REMARK  11 active torsions:
REMARK  status: ('A' for Active; 'I' for Inactive)
REMARK    1  A    between atoms: C_1  and  C_2
REMARK    2  A    between atoms: C_2  and  C_3
REMARK    3  A    between atoms: C_3  and  N_4
REMARK    4  A    between atoms: N_4  and  C_5
REMARK    5  A    between atoms: C_5  and  C_6
REMARK    6  A    between atoms: C_6  and  C_8
REMARK    7  A    between atoms: C_9  and  C_21
REMARK    8  A    between atoms: N_11  and  C_14
REMARK    9  A    between atoms: C_12  and  O_13
REMARK   10  A    between atoms: C_27  and  C_29
REMARK   11  A    between atoms: C_33  and  N_35
REMARK                            x       y       z     vdW  Elec       q    Type
REMARK                         _______ _______ _______ _____ _____    ______ ____
ROOT
ATOM      1  C   UNL     1      -1.711  -3.872  -3.200  0.00  0.00    +0.108 A 
ATOM      2  C   UNL     1      -1.950  -4.237  -4.604  0.00  0.00    +0.107 A 
ATOM      3  N   UNL     1      -3.056  -4.942  -4.636  0.00  0.00    -0.162 NA
ATOM      4  N   UNL     1      -3.566  -5.069  -3.342  0.00  0.00    -0.199 N 
ATOM      5  C   UNL     1      -2.759  -4.431  -2.470  0.00  0.00    +0.227 A 
ENDROOT
BRANCH   4   6
ATOM      6  C   UNL     1      -4.736  -5.758  -3.000  0.00  0.00    +0.070 A 
ATOM      7  C   UNL     1      -4.815  -6.441  -1.793  0.00  0.00    +0.028 A 
ATOM      8  C   UNL     1      -5.970  -7.119  -1.458  0.00  0.00    +0.003 A 
ATOM      9  C   UNL     1      -7.049  -7.120  -2.324  0.00  0.00    +0.020 A 
ATOM     10  C   UNL     1      -6.975  -6.441  -3.527  0.00  0.00    +0.043 A 
ATOM     11  C   UNL     1      -5.822  -5.755  -3.865  0.00  0.00    +0.048 A 
ATOM     12 CL   UNL     1      -8.331  -6.444  -4.610  0.00  0.00    -0.083 Cl
ENDBRANCH   4   6
BRANCH   2  13
ATOM     13  C   UNL     1      -1.101  -3.876  -5.764  0.00  0.00    +0.003 A 
ATOM     14  C   UNL     1       0.283  -4.022  -5.691  0.00  0.00    +0.010 A 
ATOM     15  C   UNL     1       1.068  -3.684  -6.775  0.00  0.00    +0.001 A 
ATOM     16  C   UNL     1       0.483  -3.200  -7.932  0.00  0.00    +0.000 A 
ATOM     17  C   UNL     1      -0.890  -3.053  -8.010  0.00  0.00    +0.001 A 
ATOM     18  C   UNL     1      -1.685  -3.394  -6.935  0.00  0.00    +0.010 A 
ENDBRANCH   2  13
BRANCH   1  19
ATOM     19  C   UNL     1      -0.631  -3.112  -2.691  0.00  0.00    +0.188 C 
ATOM     20  O   UNL     1       0.160  -2.595  -3.453  0.00  0.00    -0.290 OA
BRANCH  19  21
ATOM     21  C   UNL     1      -0.463  -2.943  -1.203  0.00  0.00    +0.187 C 
BRANCH  21  22
ATOM     22  N   UNL     1       0.719  -2.121  -0.935  0.00  0.00    -0.290 N 
ATOM     23  C   UNL     1       1.898  -2.708  -0.649  0.00  0.00    +0.247 C 
ATOM     24  O   UNL     1       2.855  -2.029  -0.332  0.00  0.00    -0.270 OA
BRANCH  23  25
ATOM     25  C   UNL     1       2.028  -4.179  -0.722  0.00  0.00    +0.039 A 
ATOM     26  C   UNL     1       1.527  -4.873  -1.824  0.00  0.00    +0.013 A 
ATOM     27  C   UNL     1       1.652  -6.246  -1.886  0.00  0.00    +0.003 A 
ATOM     28  C   UNL     1       2.272  -6.934  -0.858  0.00  0.00    +0.033 A 
ATOM     29  C   UNL     1       2.770  -6.252   0.238  0.00  0.00    +0.127 A 
ATOM     30  C   UNL     1       2.657  -4.879   0.309  0.00  0.00    +0.045 A 
BRANCH  29  31
ATOM     31  N   UNL     1       3.430  -6.997   1.333  0.00  0.00    +0.056 N 
ATOM     32  O   UNL     1       3.534  -8.200   1.270  0.00  0.00    -0.126 OA
ATOM     33  O   UNL     1       3.866  -6.402   2.291  0.00  0.00    -0.126 OA
ENDBRANCH  29  31
ENDBRANCH  23  25
BRANCH  22  34
ATOM     34  C   UNL     1       0.620  -0.660  -0.977  0.00  0.00    +0.108 C 
BRANCH  34  36
ATOM     35  C   UNL     1       0.062   1.386   0.344  0.00  0.00    +0.005 C 
ATOM     36  C   UNL     1       0.165  -0.140   0.388  0.00  0.00    +0.016 C 
ENDBRANCH  34  36
ENDBRANCH  22  34
ENDBRANCH  21  22
ENDBRANCH  19  21
ENDBRANCH   1  19
BRANCH   5  37
ATOM     37  O   UNL     1      -2.935  -4.348  -1.132  0.00  0.00    -0.492 OA
ATOM     38  H   UNL     1      -3.456  -3.583  -0.851  0.00  0.00    +0.294 HD
ENDBRANCH   5  37
TORSDOF 10
