REMARK  Name = ZINC40087161
REMARK  8 active torsions:
REMARK  status: ('A' for Active; 'I' for Inactive)
REMARK    1  A    between atoms: C_4  and  N_7
REMARK    2  A    between atoms: C_8  and  N_34
REMARK    3  A    between atoms: C_9  and  C_32
REMARK    4  A    between atoms: C_10  and  C_12
REMARK    5  A    between atoms: C_12  and  C_13
REMARK    6  A    between atoms: C_13  and  C_14
REMARK    7  A    between atoms: C_14  and  N_15
REMARK    8  A    between atoms: C_16  and  C_18
REMARK                            x       y       z     vdW  Elec       q    Type
REMARK                         _______ _______ _______ _____ _____    ______ ____
ROOT
ATOM      1  C   UNL     1       8.625  -1.632  -2.946  0.00  0.00    +0.104 C 
ENDROOT
BRANCH   1   2
ATOM      2  N   UNL     1       8.685  -2.287  -4.255  0.00  0.00    -0.315 N 
ATOM      3  C   UNL     1       9.851  -2.338  -4.930  0.00  0.00    +0.225 C 
ATOM      4  O   UNL     1      10.850  -1.842  -4.454  0.00  0.00    -0.275 OA
ATOM      5  H   UNL     1       7.887  -2.684  -4.636  0.00  0.00    +0.149 HD
BRANCH   3   6
ATOM      6  C   UNL     1       9.913  -3.012  -6.277  0.00  0.00    +0.142 C 
ATOM      7  C   UNL     1       8.953  -2.335  -7.216  0.00  0.00    +0.011 A 
ATOM      8  C   UNL     1       7.601  -2.614  -7.123  0.00  0.00    +0.008 A 
ATOM      9  C   UNL     1       6.703  -2.003  -7.977  0.00  0.00    +0.001 A 
ATOM     10  C   UNL     1       7.154  -1.108  -8.930  0.00  0.00    +0.004 A 
ATOM     11  C   UNL     1       8.502  -0.826  -9.028  0.00  0.00    +0.046 A 
ATOM     12  C   UNL     1       9.408  -1.439  -8.170  0.00  0.00    +0.133 A 
ATOM     13  O   UNL     1      10.726  -1.150  -8.283  0.00  0.00    -0.455 OA
ATOM     14  C   UNL     1      11.652  -2.005  -7.785  0.00  0.00    +0.133 A 
ATOM     15  C   UNL     1      11.318  -2.930  -6.810  0.00  0.00    +0.011 A 
ATOM     16  C   UNL     1      12.282  -3.792  -6.317  0.00  0.00    +0.008 A 
ATOM     17  C   UNL     1      13.577  -3.732  -6.795  0.00  0.00    +0.001 A 
ATOM     18  C   UNL     1      13.914  -2.810  -7.768  0.00  0.00    +0.004 A 
ATOM     19  C   UNL     1      12.957  -1.947  -8.263  0.00  0.00    +0.046 A 
ENDBRANCH   3   6
ENDBRANCH   1   2
BRANCH   1  20
ATOM     20  C   UNL     1       7.198  -1.714  -2.400  0.00  0.00    +0.025 C 
BRANCH  20  21
ATOM     21  C   UNL     1       7.135  -1.030  -1.033  0.00  0.00    +0.060 C 
BRANCH  21  25
ATOM     22  N   UNL     1       3.623  -0.652  -0.037  0.00  0.00    -0.217 N 
ATOM     23  C   UNL     1       3.881  -1.828   0.579  0.00  0.00    +0.138 A 
ATOM     24  C   UNL     1       5.208  -2.149   0.309  0.00  0.00    +0.114 A 
ATOM     25  C   UNL     1       5.730  -1.109  -0.496  0.00  0.00    +0.083 A 
ATOM     26  N   UNL     1       4.784  -0.235  -0.697  0.00  0.00    -0.168 NA
BRANCH  22  30
ATOM     27  C   UNL     1      -0.017   1.379   0.010  0.00  0.00    +0.000 A 
ATOM     28  C   UNL     1       1.170   2.089   0.002  0.00  0.00    +0.002 A 
ATOM     29  C   UNL     1       2.377   1.419  -0.013  0.00  0.00    +0.028 A 
ATOM     30  C   UNL     1       2.400   0.031  -0.021  0.00  0.00    +0.067 A 
ATOM     31  C   UNL     1       1.207  -0.680  -0.013  0.00  0.00    +0.028 A 
ATOM     32  C   UNL     1       0.002  -0.004   0.002  0.00  0.00    +0.002 A 
ENDBRANCH  22  30
BRANCH  23  33
ATOM     33  N   UNL     1       2.994  -2.571   1.334  0.00  0.00    -0.342 N 
ATOM     34  H   UNL     1       2.085  -2.257   1.462  0.00  0.00    +0.144 HD
ATOM     35  H   UNL     1       3.279  -3.406   1.736  0.00  0.00    +0.144 HD
ENDBRANCH  23  33
BRANCH  24  36
ATOM     36  C   UNL     1       5.912  -3.311   0.762  0.00  0.00    +0.104 C 
ATOM     37  N   UNL     1       6.471  -4.232   1.121  0.00  0.00    -0.191 NA
ENDBRANCH  24  36
ENDBRANCH  21  25
ENDBRANCH  20  21
ENDBRANCH   1  20
TORSDOF 8
