REMARK  Name = ZINC59350301
REMARK  12 active torsions:
REMARK  status: ('A' for Active; 'I' for Inactive)
REMARK    1  A    between atoms: C_1  and  C_2
REMARK    2  A    between atoms: C_2  and  C_3
REMARK    3  A    between atoms: C_3  and  N_4
REMARK    4  A    between atoms: N_4  and  C_5
REMARK    5  A    between atoms: N_4  and  C_20
REMARK    6  A    between atoms: C_5  and  C_6
REMARK    7  A    between atoms: N_8  and  C_9
REMARK    8  A    between atoms: C_9  and  C_10
REMARK    9  A    between atoms: C_13  and  S_16
REMARK   10  A    between atoms: S_16  and  N_19
REMARK   11  A    between atoms: C_20  and  C_22
REMARK   12  A    between atoms: C_20  and  C_23
REMARK                            x       y       z     vdW  Elec       q    Type
REMARK                         _______ _______ _______ _____ _____    ______ ____
ROOT
ATOM      1  C   UNL     1       1.077  -1.745  -1.286  0.00  0.00    +0.197 C 
ATOM      2  O   UNL     1       0.025  -1.143  -1.265  0.00  0.00    -0.278 OA
ATOM      3  N   UNL     1       1.757  -1.872  -2.443  0.00  0.00    -0.313 N 
ATOM      4  H   UNL     1       2.599  -2.353  -2.461  0.00  0.00    +0.149 HD
ENDROOT
BRANCH   1   5
ATOM      5  C   UNL     1       1.626  -2.350  -0.020  0.00  0.00    +0.019 C 
BRANCH   5   6
ATOM      6  N   UNL     1       0.787  -1.948   1.117  0.00  0.00    +0.390 N 
ATOM      7  H   UNL     1      -0.177  -2.170   0.919  0.00  0.00    -0.080 HD
BRANCH   6   8
ATOM      8  C   UNL     1       1.218  -2.670   2.322  0.00  0.00    -0.040 C 
ATOM      9  C   UNL     1       0.345  -2.252   3.507  0.00  0.00    -0.008 C 
BRANCH   8  10
ATOM     10  C   UNL     1       1.080  -4.154   2.095  0.00  0.00    -0.060 A 
ATOM     11  C   UNL     1      -0.015  -4.649   1.412  0.00  0.00    +0.003 A 
ATOM     12  C   UNL     1      -0.143  -6.010   1.204  0.00  0.00    +0.021 A 
ATOM     13  C   UNL     1       0.825  -6.876   1.679  0.00  0.00    +0.059 A 
ATOM     14  C   UNL     1       1.922  -6.380   2.363  0.00  0.00    +0.059 A 
ATOM     15  C   UNL     1       2.051  -5.018   2.566  0.00  0.00    +0.023 A 
ATOM     16 CL   UNL     1       3.138  -7.466   2.960  0.00  0.00    -0.082 Cl
ATOM     17 CL   UNL     1       0.665  -8.585   1.418  0.00  0.00    -0.082 Cl
ENDBRANCH   8  10
ENDBRANCH   6   8
BRANCH   6  18
ATOM     18  C   UNL     1       0.922  -0.502   1.339  0.00  0.00    -0.078 C 
BRANCH  18  20
ATOM     19  C   UNL     1       2.507   1.327   1.957  0.00  0.00    +0.002 C 
ATOM     20  C   UNL     1       2.354  -0.184   1.772  0.00  0.00    -0.022 C 
ENDBRANCH  18  20
ENDBRANCH   6  18
ENDBRANCH   5   6
ENDBRANCH   1   5
BRANCH   3  21
ATOM     21  C   UNL     1       1.224  -1.283  -3.675  0.00  0.00    +0.139 C 
BRANCH  21  22
ATOM     22  C   UNL     1       2.167  -1.566  -4.815  0.00  0.00    -0.030 A 
ATOM     23  C   UNL     1       3.190  -0.680  -5.103  0.00  0.00    +0.007 A 
ATOM     24  C   UNL     1       4.055  -0.939  -6.149  0.00  0.00    +0.029 A 
ATOM     25  C   UNL     1       3.898  -2.084  -6.908  0.00  0.00    +0.105 A 
ATOM     26  C   UNL     1       2.877  -2.970  -6.621  0.00  0.00    +0.029 A 
ATOM     27  C   UNL     1       2.014  -2.713  -5.571  0.00  0.00    +0.007 A 
BRANCH  25  28
ATOM     28  S   UNL     1       5.000  -2.413  -8.243  0.00  0.00    +0.056 S 
ATOM     29  O   UNL     1       4.308  -3.272  -9.139  0.00  0.00    -0.153 OA
ATOM     30  O   UNL     1       5.533  -1.160  -8.648  0.00  0.00    -0.153 OA
BRANCH  28  31
ATOM     31  N   UNL     1       6.264  -3.289  -7.629  0.00  0.00    -0.204 NA
ATOM     32  H   UNL     1       6.733  -3.925  -8.192  0.00  0.00    +0.144 HD
ATOM     33  H   UNL     1       6.537  -3.166  -6.706  0.00  0.00    +0.144 HD
ENDBRANCH  28  31
ENDBRANCH  25  28
ENDBRANCH  21  22
ENDBRANCH   3  21
TORSDOF 10
