REMARK  Name = ZINC09408031
REMARK  5 active torsions:
REMARK  status: ('A' for Active; 'I' for Inactive)
REMARK    1  A    between atoms: C_6  and  S_7
REMARK    2  A    between atoms: S_7  and  N_10
REMARK    3  A    between atoms: N_20  and  C_21
REMARK    4  A    between atoms: C_21  and  C_22
REMARK    5  A    between atoms: N_24  and  C_25
REMARK                            x       y       z     vdW  Elec       q    Type
REMARK                         _______ _______ _______ _____ _____    ______ ____
ROOT
ATOM      1  C   UNL     1       4.047  -0.695  -0.040  0.00  0.00    +0.031 A 
ATOM      2  C   UNL     1       3.481   0.565  -0.028  0.00  0.00    +0.031 A 
ATOM      3  C   UNL     1       2.102   0.701  -0.014  0.00  0.00    +0.091 A 
ATOM      4  C   UNL     1       1.288  -0.432  -0.013  0.00  0.00    +0.159 A 
ATOM      5  C   UNL     1       1.865  -1.692  -0.025  0.00  0.00    +0.077 A 
ATOM      6  C   UNL     1       3.241  -1.820  -0.039  0.00  0.00    +0.109 A 
ATOM      7  O   UNL     1       0.002  -0.004   0.002  0.00  0.00    -0.407 OA
ATOM      8  C   UNL     1      -0.016   1.338   0.009  0.00  0.00    +0.422 A 
ATOM      9  O   UNL     1      -1.018   2.027   0.018  0.00  0.00    -0.223 OA
ATOM     10  N   UNL     1       1.248   1.804  -0.000  0.00  0.00    -0.265 N 
ENDROOT
BRANCH   6  11
ATOM     11  S   UNL     1       3.972  -3.423  -0.054  0.00  0.00    +0.061 S 
ATOM     12  O   UNL     1       5.279  -3.278   0.485  0.00  0.00    -0.153 OA
ATOM     13  O   UNL     1       3.013  -4.312   0.502  0.00  0.00    -0.153 OA
BRANCH  11  14
ATOM     14  N   UNL     1       4.160  -3.860  -1.640  0.00  0.00    -0.177 NA
ATOM     15  C   UNL     1       3.087  -4.575  -2.293  0.00  0.00    +0.109 C 
ATOM     16  C   UNL     1       3.271  -6.095  -2.096  0.00  0.00    +0.017 C 
ATOM     17  C   UNL     1       4.407  -6.579  -2.894  0.00  0.00    +0.001 C 
ATOM     18  C   UNL     1       5.754  -5.979  -2.499  0.00  0.00    +0.001 C 
ATOM     19  C   UNL     1       5.940  -4.660  -3.206  0.00  0.00    +0.017 C 
ATOM     20  C   UNL     1       5.419  -3.510  -2.326  0.00  0.00    +0.109 C 
ENDBRANCH  11  14
ENDBRANCH   6  11
BRANCH  10  21
ATOM     21  C   UNL     1       1.653   3.212   0.004  0.00  0.00    +0.224 C 
BRANCH  21  22
ATOM     22  C   UNL     1       1.805   3.688   1.425  0.00  0.00    +0.233 C 
ATOM     23  O   UNL     1       1.597   2.925   2.345  0.00  0.00    -0.274 OA
ATOM     24  N   UNL     1       2.173   4.960   1.675  0.00  0.00    -0.311 N 
ATOM     25  H   UNL     1       2.340   5.570   0.940  0.00  0.00    +0.149 HD
BRANCH  24  26
ATOM     26  C   UNL     1       2.322   5.422   3.058  0.00  0.00    +0.073 C 
ATOM     27  C   UNL     1       0.932   5.796   3.611  0.00  0.00    +0.022 C 
ATOM     28  C   UNL     1       0.994   5.772   5.114  0.00  0.00    +0.002 C 
ATOM     29  C   UNL     1       1.290   7.160   5.714  0.00  0.00    +0.000 C 
ATOM     30  C   UNL     1       2.369   7.931   4.931  0.00  0.00    +0.000 C 
ATOM     31  C   UNL     1       3.517   7.052   4.514  0.00  0.00    +0.002 C 
ATOM     32  C   UNL     1       3.249   6.543   3.083  0.00  0.00    +0.022 C 
ENDBRANCH  24  26
ENDBRANCH  21  22
ENDBRANCH  10  21
TORSDOF 5
