REMARK  Name = ZINC05643719
REMARK  8 active torsions:
REMARK  status: ('A' for Active; 'I' for Inactive)
REMARK    1  A    between atoms: C_1  and  C_2
REMARK    2  A    between atoms: C_2  and  C_3
REMARK    3  A    between atoms: C_3  and  N_4
REMARK    4  A    between atoms: N_12  and  N_13
REMARK    5  A    between atoms: C_14  and  C_16
REMARK    6  A    between atoms: C_16  and  N_17
REMARK    7  A    between atoms: C_18  and  C_20
REMARK    8  A    between atoms: C_25  and  O_26
REMARK                            x       y       z     vdW  Elec       q    Type
REMARK                         _______ _______ _______ _____ _____    ______ ____
ROOT
ATOM      1  N   UNL     1       3.272  -5.019  -0.225  0.00  0.00    -0.205 N 
ATOM      2  C   UNL     1       3.972  -6.097  -0.631  0.00  0.00    +0.249 C 
ATOM      3  O   UNL     1       3.562  -7.212  -0.390  0.00  0.00    -0.272 OA
ATOM      4  H   UNL     1       3.600  -4.127  -0.418  0.00  0.00    +0.177 HD
ENDROOT
BRANCH   1  13
ATOM      5  N   UNL     1       0.762  -1.976   1.234  0.00  0.00    -0.266 N 
ATOM      6  C   UNL     1      -0.220  -2.775   1.808  0.00  0.00    +0.046 A 
ATOM      7  C   UNL     1      -1.389  -2.456   2.491  0.00  0.00    +0.024 A 
ATOM      8  C   UNL     1      -2.206  -3.459   2.971  0.00  0.00    +0.002 A 
ATOM      9  C   UNL     1      -1.876  -4.790   2.781  0.00  0.00    +0.001 A 
ATOM     10  C   UNL     1      -0.719  -5.126   2.107  0.00  0.00    +0.012 A 
ATOM     11  C   UNL     1       0.111  -4.123   1.619  0.00  0.00    +0.028 A 
ATOM     12  C   UNL     1       1.390  -4.139   0.872  0.00  0.00    +0.153 C 
ATOM     13  N   UNL     1       2.071  -5.187   0.477  0.00  0.00    -0.174 NA
ATOM     14  C   UNL     1       1.728  -2.716   0.665  0.00  0.00    +0.271 C 
ATOM     15  O   UNL     1       2.709  -2.290   0.084  0.00  0.00    -0.268 OA
BRANCH   5  16
ATOM     16  C   UNL     1       0.742  -0.511   1.242  0.00  0.00    +0.114 C 
BRANCH  16  18
ATOM     17  C   UNL     1      -0.019   1.526   0.010  0.00  0.00    +0.005 C 
ATOM     18  C   UNL     1       0.002  -0.004   0.002  0.00  0.00    +0.016 C 
ENDBRANCH  16  18
ENDBRANCH   5  16
ENDBRANCH   1  13
BRANCH   2  19
ATOM     19  C   UNL     1       5.263  -5.916  -1.386  0.00  0.00    +0.202 C 
BRANCH  19  20
ATOM     20  N   UNL     1       5.827  -7.228  -1.712  0.00  0.00    -0.303 N 
ATOM     21  C   UNL     1       6.988  -7.313  -2.390  0.00  0.00    +0.248 C 
ATOM     22  O   UNL     1       7.569  -6.301  -2.731  0.00  0.00    -0.270 OA
ATOM     23  H   UNL     1       5.363  -8.036  -1.440  0.00  0.00    +0.150 HD
BRANCH  21  24
ATOM     24  C   UNL     1       7.555  -8.635  -2.719  0.00  0.00    +0.078 A 
ATOM     25  C   UNL     1       6.888  -9.801  -2.334  0.00  0.00    +0.017 A 
ATOM     26  C   UNL     1       7.423 -11.032  -2.645  0.00  0.00    +0.001 A 
ATOM     27  C   UNL     1       8.620 -11.120  -3.337  0.00  0.00    +0.004 A 
ATOM     28  C   UNL     1       9.289  -9.976  -3.723  0.00  0.00    +0.046 A 
ATOM     29  C   UNL     1       8.763  -8.728  -3.423  0.00  0.00    +0.129 A 
BRANCH  29  30
ATOM     30  O   UNL     1       9.417  -7.603  -3.806  0.00  0.00    -0.506 OA
ATOM     31  H   UNL     1      10.052  -7.276  -3.155  0.00  0.00    +0.292 HD
ENDBRANCH  29  30
ENDBRANCH  21  24
ENDBRANCH  19  20
ENDBRANCH   2  19
TORSDOF 7
