REMARK  Name = ZINC39654397
REMARK  8 active torsions:
REMARK  status: ('A' for Active; 'I' for Inactive)
REMARK    1  A    between atoms: C_1  and  C_2
REMARK    2  A    between atoms: C_2  and  C_3
REMARK    3  A    between atoms: C_6  and  C_9
REMARK    4  A    between atoms: C_9  and  C_10
REMARK    5  A    between atoms: C_10  and  N_11
REMARK    6  A    between atoms: C_12  and  C_14
REMARK    7  A    between atoms: C_25  and  C_27
REMARK    8  A    between atoms: C_31  and  C_34
REMARK                            x       y       z     vdW  Elec       q    Type
REMARK                         _______ _______ _______ _____ _____    ______ ____
ROOT
ATOM      1  C   UNL     1       5.056  -0.741  -8.911  0.00  0.00    +0.100 C 
ATOM      2  C   UNL     1       6.391  -1.422  -8.537  0.00  0.00    +0.121 C 
ATOM      3  N   UNL     1       7.327  -1.028  -9.617  0.00  0.00    -0.296 N 
ATOM      4  C   UNL     1       6.992   0.389  -9.896  0.00  0.00    +0.115 C 
ATOM      5  C   UNL     1       5.454   0.447  -9.802  0.00  0.00    -0.004 C 
ATOM      6  C   UNL     1       4.834   0.299 -11.188  0.00  0.00    -0.010 C 
ATOM      7  C   UNL     1       5.198   1.520 -12.038  0.00  0.00    -0.082 C 
ATOM      8  N   UNL     1       4.701   2.737 -11.386  0.00  0.00    +0.379 N 
ATOM      9  C   UNL     1       5.371   2.922 -10.092  0.00  0.00    -0.082 C 
ATOM     10  C   UNL     1       5.015   1.760  -9.161  0.00  0.00    -0.010 C 
ATOM     11  C   UNL     1       8.271  -1.786 -10.210  0.00  0.00    +0.251 C 
ATOM     12  O   UNL     1       8.967  -1.314 -11.088  0.00  0.00    -0.270 OA
ATOM     13  H   UNL     1       4.888   3.534 -11.976  0.00  0.00    -0.086 HD
ATOM     14  H   UNL     1       3.706   2.657 -11.239  0.00  0.00    -0.086 HD
ENDROOT
BRANCH  11  15
ATOM     15  C   UNL     1       8.460  -3.189  -9.793  0.00  0.00    +0.091 A 
ATOM     16  C   UNL     1       7.748  -4.212 -10.428  0.00  0.00    +0.056 A 
ATOM     17  C   UNL     1       7.930  -5.522 -10.033  0.00  0.00    +0.021 A 
ATOM     18  C   UNL     1       8.814  -5.826  -9.012  0.00  0.00    +0.007 A 
ATOM     19  C   UNL     1       9.521  -4.821  -8.379  0.00  0.00    -0.014 A 
ATOM     20  C   UNL     1       9.355  -3.504  -8.766  0.00  0.00    +0.140 A 
ATOM     21  F   UNL     1      10.051  -2.523  -8.150  0.00  0.00    -0.204 F 
ATOM     22  C   UNL     1      10.480  -5.162  -7.268  0.00  0.00    +0.047 C 
ATOM     23 CL   UNL     1       6.638  -3.836 -11.708  0.00  0.00    -0.083 Cl
ENDBRANCH  11  15
BRANCH   1  25
ATOM     24  N   UNL     1       3.006  -0.167  -7.651  0.00  0.00    -0.315 N 
ATOM     25  C   UNL     1       4.351  -0.254  -7.671  0.00  0.00    +0.218 C 
ATOM     26  O   UNL     1       4.993   0.059  -6.692  0.00  0.00    -0.275 OA
ATOM     27  H   UNL     1       2.492  -0.418  -8.435  0.00  0.00    +0.149 HD
BRANCH  24  28
ATOM     28  C   UNL     1       2.320   0.306  -6.446  0.00  0.00    +0.109 C 
BRANCH  28  29
ATOM     29  C   UNL     1       0.809   0.309  -6.687  0.00  0.00    +0.054 C 
BRANCH  29  33
ATOM     30  C   UNL     1      -1.192   1.689  -3.175  0.00  0.00    -0.048 A 
ATOM     31  C   UNL     1      -0.800   2.591  -4.146  0.00  0.00    +0.004 A 
ATOM     32  C   UNL     1      -0.152   2.145  -5.283  0.00  0.00    +0.004 A 
ATOM     33  C   UNL     1       0.104   0.796  -5.447  0.00  0.00    -0.046 A 
ATOM     34  C   UNL     1      -0.287  -0.105  -4.475  0.00  0.00    +0.004 A 
ATOM     35  C   UNL     1      -0.930   0.342  -3.337  0.00  0.00    +0.004 A 
BRANCH  30  37
ATOM     36  C   UNL     1      -0.865   2.508  -0.857  0.00  0.00    +0.009 C 
ATOM     37  C   UNL     1      -1.898   2.176  -1.935  0.00  0.00    +0.032 C 
ENDBRANCH  30  37
ENDBRANCH  29  33
ENDBRANCH  28  29
ENDBRANCH  24  28
ENDBRANCH   1  25
TORSDOF 6
