REMARK  Name = ZINC38979495
REMARK  10 active torsions:
REMARK  status: ('A' for Active; 'I' for Inactive)
REMARK    1  A    between atoms: C_1  and  C_2
REMARK    2  A    between atoms: C_2  and  C_3
REMARK    3  A    between atoms: C_3  and  C_5
REMARK    4  A    between atoms: C_3  and  C_6
REMARK    5  A    between atoms: C_9  and  N_12
REMARK    6  A    between atoms: N_12  and  C_13
REMARK    7  A    between atoms: N_16  and  S_17
REMARK    8  A    between atoms: S_17  and  C_20
REMARK    9  A    between atoms: C_23  and  O_26
REMARK   10  A    between atoms: O_26  and  C_27
REMARK                            x       y       z     vdW  Elec       q    Type
REMARK                         _______ _______ _______ _____ _____    ______ ____
ROOT
ATOM      1  C   UNL     1      -1.915  -6.838   1.637  0.00  0.00    +0.237 C 
ATOM      2  C   UNL     1      -2.744  -8.014   1.174  0.00  0.00    +0.192 C 
ATOM      3  N   UNL     1      -3.739  -7.839   0.354  0.00  0.00    -0.110 NA
ATOM      4  N   UNL     1      -2.439  -9.243   1.622  0.00  0.00    -0.226 NA
ATOM      5  C   UNL     1      -1.437  -9.446   2.452  0.00  0.00    +0.089 A 
ATOM      6  C   UNL     1      -1.143 -10.757   2.904  0.00  0.00    +0.030 A 
ATOM      7  C   UNL     1      -0.117 -10.972   3.756  0.00  0.00    +0.002 A 
ATOM      8  C   UNL     1       0.702  -9.936   4.235  0.00  0.00    +0.002 A 
ATOM      9  C   UNL     1       0.509  -8.650   3.867  0.00  0.00    +0.027 A 
ATOM     10  C   UNL     1      -0.588  -8.332   2.941  0.00  0.00    +0.063 A 
ATOM     11  N   UNL     1      -0.804  -7.104   2.564  0.00  0.00    -0.359 N 
ATOM     12  H   UNL     1      -0.244  -6.381   2.887  0.00  0.00    +0.162 HD
ENDROOT
BRANCH   3  13
ATOM     13  S   UNL     1      -4.639  -9.136  -0.144  0.00  0.00    +0.100 S 
ATOM     14  O   UNL     1      -3.778  -9.951  -0.928  0.00  0.00    -0.146 OA
ATOM     15  O   UNL     1      -5.315  -9.628   1.005  0.00  0.00    -0.146 OA
BRANCH  13  16
ATOM     16  C   UNL     1      -5.880  -8.521  -1.234  0.00  0.00    +0.113 A 
ATOM     17  C   UNL     1      -7.103  -8.119  -0.730  0.00  0.00    +0.032 A 
ATOM     18  C   UNL     1      -8.078  -7.637  -1.582  0.00  0.00    +0.047 A 
ATOM     19  C   UNL     1      -7.828  -7.556  -2.944  0.00  0.00    +0.120 A 
ATOM     20  C   UNL     1      -6.599  -7.959  -3.447  0.00  0.00    +0.047 A 
ATOM     21  C   UNL     1      -5.626  -8.436  -2.591  0.00  0.00    +0.032 A 
BRANCH  19  22
ATOM     22  O   UNL     1      -8.785  -7.082  -3.785  0.00  0.00    -0.495 OA
ATOM     23  C   UNL     1      -8.458  -7.027  -5.175  0.00  0.00    +0.277 C 
ENDBRANCH  19  22
ENDBRANCH  13  16
ENDBRANCH   3  13
BRANCH   1  24
ATOM     24  N   UNL     1      -1.359  -6.187   0.448  0.00  0.00    -0.318 N 
ATOM     25  H   UNL     1      -0.887  -6.713  -0.217  0.00  0.00    +0.148 HD
BRANCH  24  29
ATOM     26  C   UNL     1      -1.808  -2.082  -0.081  0.00  0.00    -0.044 A 
ATOM     27  C   UNL     1      -2.178  -2.668   1.116  0.00  0.00    +0.006 A 
ATOM     28  C   UNL     1      -2.030  -4.029   1.294  0.00  0.00    +0.023 A 
ATOM     29  C   UNL     1      -1.510  -4.810   0.270  0.00  0.00    +0.029 A 
ATOM     30  C   UNL     1      -1.140  -4.218  -0.931  0.00  0.00    +0.023 A 
ATOM     31  C   UNL     1      -1.295  -2.857  -1.104  0.00  0.00    +0.006 A 
BRANCH  26  32
ATOM     32  C   UNL     1      -1.970  -0.596  -0.272  0.00  0.00    +0.016 C 
ATOM     33  C   UNL     1      -1.134   0.147   0.773  0.00  0.00    +0.012 C 
BRANCH  32  35
ATOM     34  C   UNL     1      -3.628   1.268  -0.424  0.00  0.00    +0.004 C 
ATOM     35  C   UNL     1      -3.444  -0.218  -0.108  0.00  0.00    +0.004 C 
ENDBRANCH  32  35
ENDBRANCH  26  32
ENDBRANCH  24  29
ENDBRANCH   1  24
TORSDOF 7
