REMARK  Name = ZINC00139823
REMARK  5 active torsions:
REMARK  status: ('A' for Active; 'I' for Inactive)
REMARK    1  A    between atoms: C_1  and  C_2
REMARK    2  A    between atoms: N_12  and  C_14
REMARK    3  A    between atoms: C_14  and  C_15
REMARK    4  A    between atoms: C_14  and  C_16
REMARK    5  A    between atoms: C_14  and  C_17
REMARK                            x       y       z     vdW  Elec       q    Type
REMARK                         _______ _______ _______ _____ _____    ______ ____
ROOT
ATOM      1  C   UNL     1      -2.922   1.554  -2.471  0.00  0.00    +0.007 C 
ATOM      2  C   UNL     1      -2.185   1.055  -1.226  0.00  0.00    -0.011 C 
ATOM      3  C   UNL     1      -0.753   1.593  -1.231  0.00  0.00    +0.003 C 
ATOM      4  C   UNL     1      -0.013   1.086   0.008  0.00  0.00    +0.004 C 
ATOM      5  C   UNL     1      -0.730   1.580   1.267  0.00  0.00    +0.043 C 
ATOM      6  C   UNL     1      -2.167   1.068   1.271  0.00  0.00    +0.100 C 
ATOM      7  C   UNL     1      -2.910   1.549   0.028  0.00  0.00    +0.046 C 
ATOM      8  N   UNL     1      -2.863   1.509   2.485  0.00  0.00    -0.306 N 
ATOM      9  C   UNL     1      -3.225   0.395   3.150  0.00  0.00    +0.149 C 
ATOM     10  S   UNL     1      -4.071   0.395   4.638  0.00  0.00    -0.017 S 
ATOM     11  N   UNL     1      -2.841  -0.714   2.502  0.00  0.00    -0.241 N 
ATOM     12  N   UNL     1      -2.187  -0.403   1.343  0.00  0.00    -0.215 NA
ATOM     13  H   UNL     1      -3.030   2.425   2.757  0.00  0.00    +0.150 HD
ATOM     14  H   UNL     1      -2.660  -0.798   0.544  0.00  0.00    +0.147 HD
ENDROOT
BRANCH  11  15
ATOM     15  C   UNL     1      -3.090  -2.078   2.974  0.00  0.00    +0.044 C 
ATOM     16  C   UNL     1      -4.597  -2.306   3.104  0.00  0.00    +0.033 C 
ATOM     17  C   UNL     1      -2.508  -3.078   1.973  0.00  0.00    +0.033 C 
ATOM     18  C   UNL     1      -2.425  -2.275   4.338  0.00  0.00    +0.033 C 
ENDBRANCH  11  15
TORSDOF 1
