REMARK  Name = ZINC11603957
REMARK  10 active torsions:
REMARK  status: ('A' for Active; 'I' for Inactive)
REMARK    1  A    between atoms: C_1  and  N_53
REMARK    2  A    between atoms: C_2  and  N_53
REMARK    3  A    between atoms: C_3  and  C_5
REMARK    4  A    between atoms: C_3  and  C_23
REMARK    5  A    between atoms: C_3  and  N_53
REMARK    6  A    between atoms: C_5  and  N_6
REMARK    7  A    between atoms: C_7  and  C_9
REMARK    8  A    between atoms: C_9  and  C_10
REMARK    9  A    between atoms: C_27  and  O_29
REMARK   10  A    between atoms: O_29  and  C_30
REMARK                            x       y       z     vdW  Elec       q    Type
REMARK                         _______ _______ _______ _____ _____    ______ ____
ROOT
ATOM      1  N   UNL     1       3.556   2.867   2.841  0.00  0.00    -0.316 N 
ATOM      2  C   UNL     1       2.981   2.176   1.837  0.00  0.00    +0.215 C 
ATOM      3  O   UNL     1       3.498   2.157   0.740  0.00  0.00    -0.276 OA
ATOM      4  H   UNL     1       3.143   2.882   3.718  0.00  0.00    +0.149 HD
ENDROOT
BRANCH   1   5
ATOM      5  C   UNL     1       4.806   3.594   2.608  0.00  0.00    +0.093 C 
BRANCH   5   6
ATOM      6  C   UNL     1       5.242   4.287   3.900  0.00  0.00    -0.021 C 
BRANCH   6   7
ATOM      7  C   UNL     1       6.460   5.133   3.630  0.00  0.00    -0.056 A 
ATOM      8  C   UNL     1       7.562   5.043   4.461  0.00  0.00    +0.002 A 
ATOM      9  C   UNL     1       8.680   5.818   4.216  0.00  0.00    +0.004 A 
ATOM     10  C   UNL     1       8.699   6.685   3.140  0.00  0.00    +0.045 A 
ATOM     11  C   UNL     1       7.595   6.777   2.306  0.00  0.00    +0.120 A 
ATOM     12  C   UNL     1       6.476   5.995   2.551  0.00  0.00    +0.047 A 
BRANCH  11  13
ATOM     13  O   UNL     1       7.612   7.628   1.246  0.00  0.00    -0.495 OA
ATOM     14  C   UNL     1       8.800   8.399   1.052  0.00  0.00    +0.277 C 
ENDBRANCH  11  13
ENDBRANCH   6   7
BRANCH   6  17
ATOM     15  C   UNL     1       4.460   5.676   5.723  0.00  0.00    -0.096 C 
ATOM     16  C   UNL     1       3.863   6.223   3.441  0.00  0.00    -0.096 C 
ATOM     17  N   UNL     1       4.128   5.123   4.392  0.00  0.00    +0.382 N 
ATOM     18  H   UNL     1       3.285   4.543   4.473  0.00  0.00    -0.082 HD
ENDBRANCH   6  17
ENDBRANCH   5   6
ENDBRANCH   1   5
BRANCH   2  19
ATOM     19  C   UNL     1       1.695   1.428   2.076  0.00  0.00    +0.119 C 
BRANCH  19  20
ATOM     20  C   UNL     1       1.259   0.735   0.784  0.00  0.00    +0.146 C 
ATOM     21  C   UNL     1      -0.087   0.088   0.984  0.00  0.00    +0.231 C 
ATOM     22  O   UNL     1      -1.074   0.677   0.595  0.00  0.00    -0.274 OA
ATOM     23  N   UNL     1      -0.245  -1.098   1.562  0.00  0.00    -0.284 N 
ATOM     24  C   UNL     1       0.763  -1.968   1.965  0.00  0.00    +0.048 A 
ATOM     25  C   UNL     1       0.458  -3.008   2.837  0.00  0.00    +0.044 A 
ATOM     26  C   UNL     1       1.444  -3.880   3.255  0.00  0.00    +0.043 A 
ATOM     27  C   UNL     1       2.744  -3.735   2.805  0.00  0.00    +0.021 A 
ATOM     28  C   UNL     1       3.058  -2.717   1.924  0.00  0.00    +0.018 A 
ATOM     29  C   UNL     1       2.072  -1.842   1.499  0.00  0.00    +0.030 A 
ATOM     30  S   UNL     1       2.460  -0.560   0.349  0.00  0.00    -0.110 S 
ATOM     31 CL   UNL     1       1.049  -5.166   4.353  0.00  0.00    -0.083 Cl
ATOM     32  H   UNL     1      -1.158  -1.387   1.719  0.00  0.00    +0.155 HD
ENDBRANCH  19  20
ENDBRANCH   2  19
TORSDOF 7
