REMARK  Name = ZINC40386823
REMARK  7 active torsions:
REMARK  status: ('A' for Active; 'I' for Inactive)
REMARK    1  A    between atoms: C_1  and  C_2
REMARK    2  A    between atoms: C_2  and  C_3
REMARK    3  A    between atoms: C_2  and  C_4
REMARK    4  A    between atoms: C_4  and  N_5
REMARK    5  A    between atoms: C_8  and  C_23
REMARK    6  A    between atoms: C_10  and  N_22
REMARK    7  A    between atoms: N_11  and  C_15
REMARK                            x       y       z     vdW  Elec       q    Type
REMARK                         _______ _______ _______ _____ _____    ______ ____
ROOT
ATOM      1  N   UNL     1      -1.554  -1.975  -0.710  0.00  0.00    -0.313 N 
ATOM      2  C   UNL     1      -2.713  -2.689  -0.463  0.00  0.00    +0.218 A 
ATOM      3  N   UNL     1      -2.675  -4.011  -0.592  0.00  0.00    -0.213 NA
ATOM      4  C   UNL     1      -3.743  -4.774  -0.372  0.00  0.00    +0.095 A 
ATOM      5  C   UNL     1      -4.951  -4.140   0.009  0.00  0.00    +0.087 A 
ATOM      6  C   UNL     1      -6.238  -4.558   0.318  0.00  0.00    +0.131 A 
ATOM      7  N   UNL     1      -6.962  -3.459   0.611  0.00  0.00    -0.216 N 
ATOM      8  N   UNL     1      -6.161  -2.317   0.498  0.00  0.00    -0.144 NA
ATOM      9  C   UNL     1      -4.946  -2.672   0.140  0.00  0.00    +0.189 A 
ATOM     10  N   UNL     1      -3.792  -2.021  -0.108  0.00  0.00    -0.193 NA
ATOM     11  H   UNL     1      -0.745  -2.440  -0.973  0.00  0.00    +0.149 HD
ENDROOT
BRANCH   7  12
ATOM     12  C   UNL     1      -8.315  -3.460   0.973  0.00  0.00    +0.070 A 
ATOM     13  C   UNL     1      -9.185  -4.385   0.412  0.00  0.00    +0.028 A 
ATOM     14  C   UNL     1     -10.518  -4.385   0.771  0.00  0.00    +0.005 A 
ATOM     15  C   UNL     1     -10.989  -3.464   1.689  0.00  0.00    +0.038 A 
ATOM     16  C   UNL     1     -10.125  -2.539   2.251  0.00  0.00    +0.125 A 
ATOM     17  C   UNL     1      -8.787  -2.539   1.899  0.00  0.00    +0.066 A 
ATOM     18  F   UNL     1     -10.587  -1.640   3.147  0.00  0.00    -0.205 F 
ENDBRANCH   7  12
BRANCH   4  19
ATOM     19  C   UNL     1      -3.672  -6.235  -0.523  0.00  0.00    +0.038 A 
ATOM     20  C   UNL     1      -4.561  -7.092  -1.149  0.00  0.00    +0.017 A 
ATOM     21  C   UNL     1      -4.221  -8.426  -1.127  0.00  0.00    +0.008 A 
ATOM     22  C   UNL     1      -3.073  -8.803  -0.515  0.00  0.00    +0.046 A 
ATOM     23  S   UNL     1      -2.414  -7.363   0.045  0.00  0.00    -0.095 S 
ENDBRANCH   4  19
BRANCH   6  24
ATOM     24  N   UNL     1      -6.695  -5.863   0.323  0.00  0.00    -0.342 N 
ATOM     25  H   UNL     1      -6.069  -6.596   0.214  0.00  0.00    +0.144 HD
ATOM     26  H   UNL     1      -7.641  -6.045   0.436  0.00  0.00    +0.144 HD
ENDBRANCH   6  24
BRANCH   1  27
ATOM     27  C   UNL     1      -1.550  -0.516  -0.575  0.00  0.00    +0.107 C 
BRANCH  27  29
ATOM     28  C   UNL     1      -0.182   1.552  -0.882  0.00  0.00    +0.009 C 
ATOM     29  C   UNL     1      -0.156   0.022  -0.902  0.00  0.00    -0.000 C 
ATOM     30  C   UNL     1       0.844  -0.484   0.139  0.00  0.00    +0.009 C 
ENDBRANCH  27  29
ENDBRANCH   1  27
TORSDOF 5
