REMARK  Name = ZINC38742838
REMARK  6 active torsions:
REMARK  status: ('A' for Active; 'I' for Inactive)
REMARK    1  A    between atoms: C_1  and  C_2
REMARK    2  A    between atoms: C_2  and  C_3
REMARK    3  A    between atoms: C_2  and  C_4
REMARK    4  A    between atoms: C_6  and  C_10
REMARK    5  A    between atoms: C_16  and  C_19
REMARK    6  A    between atoms: C_21  and  C_29
REMARK                            x       y       z     vdW  Elec       q    Type
REMARK                         _______ _______ _______ _____ _____    ______ ____
ROOT
ATOM      1  C   UNL     1      -3.603  -3.012  -0.224  0.00  0.00    +0.181 A 
ATOM      2  N   UNL     1      -3.170  -3.704   0.788  0.00  0.00    -0.129 NA
ATOM      3  N   UNL     1      -3.545  -4.930   0.677  0.00  0.00    -0.121 NA
ATOM      4  C   UNL     1      -4.220  -5.077  -0.420  0.00  0.00    +0.211 A 
ATOM      5  N   UNL     1      -4.330  -3.859  -1.041  0.00  0.00    -0.222 N 
ATOM      6  N   UNL     1      -5.063  -3.760  -2.186  0.00  0.00    -0.263 N 
ATOM      7  C   UNL     1      -5.260  -5.039  -2.919  0.00  0.00    +0.183 C 
ATOM      8  S   UNL     1      -5.088  -6.199  -1.495  0.00  0.00    -0.056 S 
ATOM      9  H   UNL     1      -5.946  -3.304  -2.012  0.00  0.00    +0.168 HD
ENDROOT
BRANCH   7  10
ATOM     10  C   UNL     1      -4.177  -5.265  -3.942  0.00  0.00    -0.004 A 
ATOM     11  C   UNL     1      -3.025  -4.539  -3.911  0.00  0.00    +0.036 A 
ATOM     12  C   UNL     1      -2.028  -4.767  -4.877  0.00  0.00    +0.079 A 
ATOM     13  N   UNL     1      -2.181  -5.676  -5.824  0.00  0.00    -0.246 NA
ATOM     14  C   UNL     1      -3.291  -6.416  -5.901  0.00  0.00    +0.072 A 
ATOM     15  C   UNL     1      -4.329  -6.236  -4.953  0.00  0.00    +0.006 A 
ATOM     16  C   UNL     1      -5.489  -7.021  -5.038  0.00  0.00    +0.010 A 
ATOM     17  C   UNL     1      -5.603  -7.950  -6.028  0.00  0.00    +0.001 A 
ATOM     18  C   UNL     1      -4.581  -8.133  -6.958  0.00  0.00    +0.002 A 
ATOM     19  C   UNL     1      -3.448  -7.381  -6.912  0.00  0.00    +0.028 A 
BRANCH  12  20
ATOM     20  C   UNL     1      -0.785  -3.974  -4.832  0.00  0.00    +0.038 A 
ATOM     21  C   UNL     1       0.302  -4.024  -5.665  0.00  0.00    +0.017 A 
ATOM     22  C   UNL     1       1.359  -3.177  -5.425  0.00  0.00    +0.008 A 
ATOM     23  C   UNL     1       1.294  -2.318  -4.373  0.00  0.00    +0.046 A 
ATOM     24  S   UNL     1      -0.309  -2.693  -3.683  0.00  0.00    -0.095 S 
ENDBRANCH  12  20
ENDBRANCH   7  10
BRANCH   1  27
ATOM     25  C   UNL     1      -1.412  -0.526   0.013  0.00  0.00    +0.064 C 
ATOM     26  C   UNL     1      -1.940  -1.303  -0.935  0.00  0.00    +0.034 C 
ATOM     27  C   UNL     1      -3.362  -1.543  -0.460  0.00  0.00    +0.222 C 
ATOM     28  N   UNL     1      -3.420  -0.792   0.805  0.00  0.00    -0.172 NA
ATOM     29  N   UNL     1      -2.315  -0.275   0.986  0.00  0.00    -0.158 NA
BRANCH  25  31
ATOM     30  C   UNL     1      -0.019   1.526   0.010  0.00  0.00    +0.014 C 
ATOM     31  C   UNL     1       0.002  -0.004   0.002  0.00  0.00    +0.033 C 
ATOM     32  C   UNL     1       0.742  -0.511   1.242  0.00  0.00    +0.014 C 
ENDBRANCH  25  31
ENDBRANCH   1  27
TORSDOF 4
