REMARK  Name = ZINC20918487
REMARK  15 active torsions:
REMARK  status: ('A' for Active; 'I' for Inactive)
REMARK    1  A    between atoms: C_1  and  C_2
REMARK    2  A    between atoms: C_5  and  C_38
REMARK    3  A    between atoms: N_8  and  C_10
REMARK    4  A    between atoms: C_10  and  C_11
REMARK    5  A    between atoms: C_11  and  C_12
REMARK    6  A    between atoms: C_12  and  N_13
REMARK    7  A    between atoms: C_14  and  C_16
REMARK    8  A    between atoms: C_16  and  C_37
REMARK    9  A    between atoms: C_21  and  O_35
REMARK   10  A    between atoms: N_29  and  C_30
REMARK   11  A    between atoms: C_30  and  C_31
REMARK   12  A    between atoms: C_31  and  C_32
REMARK   13  A    between atoms: C_32  and  C_33
REMARK   14  A    between atoms: C_32  and  C_34
REMARK   15  A    between atoms: O_35  and  C_36
REMARK                            x       y       z     vdW  Elec       q    Type
REMARK                         _______ _______ _______ _____ _____    ______ ____
ROOT
ATOM      1  C   UNL     1      -5.051   8.900   3.639  0.00  0.00    +0.128 C 
ATOM      2  C   UNL     1      -4.221   9.130   4.902  0.00  0.00    +0.157 C 
ATOM      3  N   UNL     1      -3.744   7.837   5.407  0.00  0.00    -0.334 N 
ATOM      4  C   UNL     1      -2.625   7.527   6.103  0.00  0.00    +0.053 A 
ATOM      5  C   UNL     1      -1.554   8.303   6.544  0.00  0.00    +0.072 A 
ATOM      6  C   UNL     1      -0.551   7.652   7.251  0.00  0.00    +0.122 A 
ATOM      7  C   UNL     1      -0.600   6.286   7.515  0.00  0.00    +0.046 A 
ATOM      8  C   UNL     1      -1.638   5.500   7.093  0.00  0.00    +0.013 A 
ATOM      9  C   UNL     1      -2.666   6.131   6.375  0.00  0.00    +0.001 A 
ATOM     10  C   UNL     1      -3.850   5.630   5.807  0.00  0.00    +0.041 A 
ATOM     11  C   UNL     1      -4.482   6.664   5.212  0.00  0.00    +0.106 A 
ATOM     12  C   UNL     1      -5.753   6.695   4.468  0.00  0.00    +0.264 C 
ATOM     13  O   UNL     1      -6.508   5.741   4.452  0.00  0.00    -0.268 OA
ATOM     14  N   UNL     1      -6.038   7.840   3.805  0.00  0.00    -0.281 N 
ATOM     15  C   UNL     1      -5.775  10.200   3.283  0.00  0.00    +0.043 C 
ENDROOT
BRANCH   1  17
ATOM     16  N   UNL     1      -3.789   7.244   2.304  0.00  0.00    -0.314 N 
ATOM     17  C   UNL     1      -4.125   8.533   2.508  0.00  0.00    +0.238 C 
ATOM     18  O   UNL     1      -3.683   9.398   1.781  0.00  0.00    -0.273 OA
ATOM     19  H   UNL     1      -4.190   6.460   2.963  0.00  0.00    +0.149 HD
BRANCH  16  20
ATOM     20  C   UNL     1      -2.890   6.887   1.204  0.00  0.00    +0.102 C 
BRANCH  20  21
ATOM     21  C   UNL     1      -2.673   5.373   1.193  0.00  0.00    +0.000 C 
BRANCH  21  22
ATOM     22  C   UNL     1      -1.734   5.000   0.044  0.00  0.00    -0.077 C 
BRANCH  22  28
ATOM     23  C   UNL     1      -2.173   1.018  -1.248  0.00  0.00    +0.005 C 
ATOM     24  C   UNL     1      -0.756   1.594  -1.230  0.00  0.00    -0.031 C 
ATOM     25  C   UNL     1      -0.013   1.086   0.008  0.00  0.00    +0.003 C 
ATOM     26  C   UNL     1      -0.732   1.581   1.266  0.00  0.00    -0.031 C 
ATOM     27  C   UNL     1      -0.804   3.109   1.238  0.00  0.00    -0.076 C 
ATOM     28  N   UNL     1      -1.525   3.546   0.035  0.00  0.00    +0.380 N 
ATOM     29  C   UNL     1      -0.826   3.122  -1.185  0.00  0.00    -0.076 C 
ATOM     30  C   UNL     1       0.039   1.127   2.507  0.00  0.00    +0.005 C 
ATOM     31  H   UNL     1      -2.512   3.061   0.041  0.00  0.00    -0.082 HD
ENDBRANCH  22  28
ENDBRANCH  21  22
ENDBRANCH  20  21
ENDBRANCH  16  20
ENDBRANCH   1  17
BRANCH   6  32
ATOM     32  O   UNL     1       0.510   8.371   7.699  0.00  0.00    -0.495 OA
ATOM     33  C   UNL     1       1.518   7.659   8.421  0.00  0.00    +0.277 C 
ENDBRANCH   6  32
BRANCH  14  34
ATOM     34  C   UNL     1      -7.376   8.019   3.236  0.00  0.00    +0.109 C 
BRANCH  34  35
ATOM     35  C   UNL     1      -7.399   7.477   1.806  0.00  0.00    +0.022 C 
BRANCH  35  36
ATOM     36  C   UNL     1      -8.797   7.664   1.212  0.00  0.00    -0.016 C 
ATOM     37  C   UNL     1      -9.101   9.158   1.084  0.00  0.00    +0.007 C 
ATOM     38  C   UNL     1      -8.856   7.011  -0.170  0.00  0.00    +0.007 C 
ENDBRANCH  35  36
ENDBRANCH  34  35
ENDBRANCH  14  34
TORSDOF 9
