REMARK  Name = ZINC01341469
REMARK  9 active torsions:
REMARK  status: ('A' for Active; 'I' for Inactive)
REMARK    1  A    between atoms: C_1  and  O_2
REMARK    2  A    between atoms: O_2  and  C_3
REMARK    3  A    between atoms: C_7  and  N_9
REMARK    4  A    between atoms: N_9  and  C_10
REMARK    5  A    between atoms: C_10  and  C_12
REMARK    6  A    between atoms: C_10  and  C_22
REMARK    7  A    between atoms: N_24  and  C_25
REMARK    8  A    between atoms: C_31  and  C_33
REMARK    9  A    between atoms: C_33  and  C_34
REMARK                            x       y       z     vdW  Elec       q    Type
REMARK                         _______ _______ _______ _____ _____    ______ ____
ROOT
ATOM      1  C   UNL     1      -0.023  -2.810   0.124  0.00  0.00    +0.199 C 
ENDROOT
BRANCH   1   2
ATOM      2  C   UNL     1      -0.029  -3.596   1.409  0.00  0.00    +0.007 A 
ATOM      3  C   UNL     1       1.036  -3.884   2.175  0.00  0.00    +0.089 A 
ATOM      4  N   UNL     1       0.644  -4.614   3.263  0.00  0.00    -0.360 N 
ATOM      5  H   UNL     1       1.238  -4.938   3.959  0.00  0.00    +0.165 HD
ATOM      6  C   UNL     1      -0.716  -4.820   3.224  0.00  0.00    +0.047 A 
ATOM      7  C   UNL     1      -1.199  -4.187   2.065  0.00  0.00    +0.005 A 
ATOM      8  C   UNL     1      -2.562  -4.226   1.765  0.00  0.00    +0.010 A 
ATOM      9  C   UNL     1      -3.422  -4.878   2.604  0.00  0.00    +0.001 A 
ATOM     10  C   UNL     1      -2.951  -5.501   3.751  0.00  0.00    +0.002 A 
ATOM     11  C   UNL     1      -1.609  -5.481   4.061  0.00  0.00    +0.026 A 
ENDBRANCH   1   2
BRANCH   1  12
ATOM     12  C   UNL     1      -0.060  -3.759  -1.046  0.00  0.00    +0.239 C 
ATOM     13  O   UNL     1       0.841  -3.757  -1.857  0.00  0.00    -0.273 OA
ATOM     14  N   UNL     1      -1.094  -4.612  -1.190  0.00  0.00    -0.311 N 
ATOM     15  H   UNL     1      -1.815  -4.614  -0.541  0.00  0.00    +0.149 HD
BRANCH  14  16
ATOM     16  C   UNL     1      -1.130  -5.535  -2.327  0.00  0.00    +0.073 C 
ATOM     17  C   UNL     1      -1.735  -4.826  -3.541  0.00  0.00    +0.022 C 
ATOM     18  C   UNL     1      -1.772  -5.790  -4.728  0.00  0.00    +0.002 C 
ATOM     19  C   UNL     1      -2.626  -7.007  -4.370  0.00  0.00    +0.000 C 
ATOM     20  C   UNL     1      -2.021  -7.716  -3.157  0.00  0.00    +0.002 C 
ATOM     21  C   UNL     1      -1.984  -6.752  -1.969  0.00  0.00    +0.022 C 
ENDBRANCH  14  16
ENDBRANCH   1  12
BRANCH   1  22
ATOM     22  N   UNL     1       1.193  -1.996   0.055  0.00  0.00    -0.255 N 
ATOM     23  C   UNL     1       2.400  -2.593  -0.012  0.00  0.00    +0.226 C 
ATOM     24  O   UNL     1       2.475  -3.799  -0.119  0.00  0.00    -0.275 OA
BRANCH  22  29
ATOM     25  C   UNL     1       0.390   1.436   1.111  0.00  0.00    +0.122 A 
ATOM     26  C   UNL     1       0.926   2.165   0.058  0.00  0.00    +0.046 A 
ATOM     27  C   UNL     1       1.546   1.512  -0.990  0.00  0.00    +0.005 A 
ATOM     28  C   UNL     1       1.636   0.134  -0.994  0.00  0.00    +0.024 A 
ATOM     29  C   UNL     1       1.102  -0.600   0.058  0.00  0.00    +0.041 A 
ATOM     30  C   UNL     1       0.478   0.053   1.111  0.00  0.00    +0.069 A 
BRANCH  25  32
ATOM     31  C   UNL     1      -0.275   3.506   2.074  0.00  0.00    +0.277 C 
ATOM     32  O   UNL     1      -0.221   2.079   2.141  0.00  0.00    -0.495 OA
ENDBRANCH  25  32
ENDBRANCH  22  29
BRANCH  23  33
ATOM     33  C   UNL     1       3.655  -1.761   0.047  0.00  0.00    +0.138 C 
BRANCH  33  34
ATOM     34  C   UNL     1       4.857  -2.669   0.090  0.00  0.00    -0.001 A 
ATOM     35  C   UNL     1       5.579  -3.180  -0.937  0.00  0.00    +0.011 A 
ATOM     36  C   UNL     1       6.658  -3.998  -0.657  0.00  0.00    +0.008 A 
ATOM     37  C   UNL     1       6.955  -4.273   0.636  0.00  0.00    +0.045 A 
ATOM     38  S   UNL     1       5.696  -3.357   1.509  0.00  0.00    -0.101 S 
ENDBRANCH  33  34
ENDBRANCH  23  33
ENDBRANCH   1  22
TORSDOF 8
