REMARK  Name = ZINC39726280
REMARK  6 active torsions:
REMARK  status: ('A' for Active; 'I' for Inactive)
REMARK    1  A    between atoms: C_8  and  C_21
REMARK    2  A    between atoms: C_11  and  S_12
REMARK    3  A    between atoms: S_12  and  N_15
REMARK    4  A    between atoms: N_23  and  C_24
REMARK    5  A    between atoms: C_24  and  C_25
REMARK    6  A    between atoms: C_25  and  C_26
REMARK                            x       y       z     vdW  Elec       q    Type
REMARK                         _______ _______ _______ _____ _____    ______ ____
ROOT
ATOM      1  C   UNL     1      -0.017   1.397  -0.041  0.00  0.00    +0.030 A 
ATOM      2  C   UNL     1       1.113   2.144  -0.031  0.00  0.00    +0.026 A 
ATOM      3  C   UNL     1       2.381   1.524  -0.029  0.00  0.00    +0.041 A 
ATOM      4  N   UNL     1       3.482   2.261  -0.019  0.00  0.00    -0.285 N 
ATOM      5  C   UNL     1       4.705   1.745  -0.017  0.00  0.00    +0.222 C 
ATOM      6  O   UNL     1       5.675   2.479  -0.007  0.00  0.00    -0.275 OA
ATOM      7  C   UNL     1       4.892   0.245  -0.025  0.00  0.00    +0.137 C 
ATOM      8  C   UNL     1       3.641  -0.612  -0.037  0.00  0.00    +0.032 C 
ATOM      9  C   UNL     1       2.429   0.046  -0.038  0.00  0.00    +0.007 A 
ATOM     10  C   UNL     1       1.168  -0.696  -0.049  0.00  0.00    +0.038 A 
ATOM     11  C   UNL     1       0.002  -0.004  -0.050  0.00  0.00    +0.106 A 
ATOM     12  H   UNL     1       3.389   3.227  -0.013  0.00  0.00    +0.155 HD
ENDROOT
BRANCH   8  13
ATOM     13  C   UNL     1       3.717  -2.088  -0.046  0.00  0.00    +0.241 C 
ATOM     14  O   UNL     1       2.702  -2.749   0.052  0.00  0.00    -0.271 OA
ATOM     15  N   UNL     1       4.912  -2.700  -0.163  0.00  0.00    -0.312 N 
ATOM     16  H   UNL     1       5.722  -2.172  -0.241  0.00  0.00    +0.149 HD
BRANCH  15  17
ATOM     17  C   UNL     1       4.987  -4.163  -0.172  0.00  0.00    +0.105 C 
BRANCH  17  18
ATOM     18  C   UNL     1       6.447  -4.597  -0.314  0.00  0.00    +0.025 C 
BRANCH  18  19
ATOM     19  C   UNL     1       6.527  -6.125  -0.324  0.00  0.00    -0.027 C 
ATOM     20  C   UNL     1       5.957  -6.674   0.986  0.00  0.00    +0.010 C 
ATOM     21  C   UNL     1       6.036  -8.202   0.977  0.00  0.00    -0.010 C 
ATOM     22  C   UNL     1       7.496  -8.636   0.834  0.00  0.00    +0.007 C 
ATOM     23  C   UNL     1       8.066  -8.088  -0.476  0.00  0.00    -0.010 C 
ATOM     24  C   UNL     1       7.987  -6.560  -0.466  0.00  0.00    +0.010 C 
ATOM     25  C   UNL     1       7.254  -8.633  -1.653  0.00  0.00    +0.007 C 
ATOM     26  C   UNL     1       5.794  -8.199  -1.510  0.00  0.00    -0.010 C 
ATOM     27  C   UNL     1       5.224  -8.747  -0.200  0.00  0.00    +0.007 C 
ATOM     28  C   UNL     1       5.715  -6.671  -1.501  0.00  0.00    +0.010 C 
ENDBRANCH  18  19
ENDBRANCH  17  18
ENDBRANCH  15  17
ENDBRANCH   8  13
BRANCH  11  29
ATOM     29  S   UNL     1      -1.523  -0.886  -0.063  0.00  0.00    +0.061 S 
ATOM     30  O   UNL     1      -1.254  -2.170   0.482  0.00  0.00    -0.153 OA
ATOM     31  O   UNL     1      -2.501  -0.014   0.489  0.00  0.00    -0.153 OA
BRANCH  29  32
ATOM     32  N   UNL     1      -1.940  -1.121  -1.648  0.00  0.00    -0.172 NA
ATOM     33  C   UNL     1      -2.756  -0.134  -2.371  0.00  0.00    +0.137 C 
ATOM     34  C   UNL     1      -2.054   0.200  -3.693  0.00  0.00    +0.177 C 
ATOM     35  O   UNL     1      -1.761  -1.014  -4.389  0.00  0.00    -0.377 OA
ATOM     36  C   UNL     1      -0.862  -1.884  -3.696  0.00  0.00    +0.177 C 
ATOM     37  C   UNL     1      -1.499  -2.321  -2.377  0.00  0.00    +0.137 C 
ENDBRANCH  29  32
ENDBRANCH  11  29
TORSDOF 6
