REMARK  Name = ZINC58056852
REMARK  7 active torsions:
REMARK  status: ('A' for Active; 'I' for Inactive)
REMARK    1  A    between atoms: C_1  and  C_2
REMARK    2  A    between atoms: C_2  and  C_3
REMARK    3  A    between atoms: C_2  and  C_4
REMARK    4  A    between atoms: C_8  and  O_10
REMARK    5  A    between atoms: O_10  and  C_11
REMARK    6  A    between atoms: C_11  and  C_12
REMARK    7  A    between atoms: C_16  and  N_20
REMARK                            x       y       z     vdW  Elec       q    Type
REMARK                         _______ _______ _______ _____ _____    ______ ____
ROOT
ATOM      1  C   UNL     1       0.003  -3.882   6.156  0.00  0.00    +0.152 A 
ATOM      2  N   UNL     1      -1.229  -4.118   5.796  0.00  0.00    -0.191 NA
ATOM      3  C   UNL     1      -2.038  -4.886   6.538  0.00  0.00    +0.298 A 
ATOM      4  O   UNL     1      -3.314  -5.115   6.141  0.00  0.00    -0.264 OA
ATOM      5  C   UNL     1      -1.563  -5.444   7.713  0.00  0.00    +0.157 A 
ATOM      6  C   UNL     1      -0.232  -5.181   8.088  0.00  0.00    +0.276 A 
ATOM      7  O   UNL     1       0.231  -5.652   9.116  0.00  0.00    -0.266 OA
ATOM      8  N   UNL     1       0.524  -4.402   7.287  0.00  0.00    -0.306 N 
ATOM      9  H   UNL     1       1.445  -4.212   7.526  0.00  0.00    +0.170 HD
ENDROOT
BRANCH   5  10
ATOM     10  N   UNL     1      -2.390  -6.254   8.512  0.00  0.00    -0.350 N 
ATOM     11  H   UNL     1      -3.306  -6.428   8.242  0.00  0.00    +0.143 HD
ATOM     12  H   UNL     1      -2.046  -6.639   9.332  0.00  0.00    +0.143 HD
ENDBRANCH   5  10
BRANCH   1  13
ATOM     13  C   UNL     1       0.868  -3.011   5.282  0.00  0.00    +0.303 C 
BRANCH  13  14
ATOM     14  O   UNL     1       0.114  -2.575   4.149  0.00  0.00    -0.484 OA
BRANCH  14  19
ATOM     15  C   UNL     1       0.731  -0.503   1.223  0.00  0.00    -0.041 A 
ATOM     16  C   UNL     1       2.051  -0.147   1.433  0.00  0.00    +0.004 A 
ATOM     17  C   UNL     1       2.722  -0.604   2.552  0.00  0.00    +0.004 A 
ATOM     18  C   UNL     1       2.076  -1.417   3.463  0.00  0.00    +0.045 A 
ATOM     19  C   UNL     1       0.752  -1.776   3.254  0.00  0.00    +0.121 A 
ATOM     20  C   UNL     1       0.079  -1.311   2.134  0.00  0.00    +0.049 A 
BRANCH  15  22
ATOM     21  C   UNL     1      -0.019   1.526   0.010  0.00  0.00    +0.012 C 
ATOM     22  C   UNL     1       0.002  -0.004   0.002  0.00  0.00    +0.013 C 
ATOM     23  C   UNL     1       0.718  -0.497  -1.257  0.00  0.00    +0.012 C 
ENDBRANCH  15  22
ENDBRANCH  14  19
ENDBRANCH  13  14
ENDBRANCH   1  13
TORSDOF 5
