REMARK  Name = ZINC39466908
REMARK  5 active torsions:
REMARK  status: ('A' for Active; 'I' for Inactive)
REMARK    1  A    between atoms: C_1  and  C_2
REMARK    2  A    between atoms: C_2  and  O_3
REMARK    3  A    between atoms: O_3  and  C_4
REMARK    4  A    between atoms: P_13  and  C_23
REMARK    5  A    between atoms: C_23  and  C_24
REMARK                            x       y       z     vdW  Elec       q    Type
REMARK                         _______ _______ _______ _____ _____    ______ ____
ROOT
ATOM      1  C   UNL     1       0.802  -1.824   1.306  0.00  0.00    +0.130 C 
ATOM      2  C   UNL     1       0.281  -2.642   0.389  0.00  0.00    +0.024 C 
ATOM      3  C   UNL     1       0.419  -4.137   0.559  0.00  0.00    +0.019 C 
ATOM      4  C   UNL     1      -0.660  -4.623   1.527  0.00  0.00    -0.002 C 
ATOM      5  C   UNL     1      -0.478  -6.114   1.831  0.00  0.00    -0.020 C 
ATOM      6  C   UNL     1      -1.594  -6.516   2.805  0.00  0.00    +0.156 C 
ATOM      7  O   UNL     1      -1.503  -7.924   3.086  0.00  0.00    -0.319 OA
ATOM      8  P   UNL     1      -0.054  -8.512   3.538  0.00  0.00    +0.262 P 
ATOM      9  O   UNL     1       0.017  -9.965   3.267  0.00  0.00    -0.274 OA
ATOM     10  N   UNL     1       1.048  -7.703   2.613  0.00  0.00    -0.291 NA
ATOM     11  N   UNL     1       0.846  -6.353   2.412  0.00  0.00    +0.397 N 
ATOM     12  C   UNL     1       1.899  -5.925   1.478  0.00  0.00    -0.046 C 
ATOM     13  C   UNL     1       1.799  -4.440   1.150  0.00  0.00    +0.006 C 
ATOM     14  C   UNL     1       1.999  -3.630   2.402  0.00  0.00    -0.006 C 
ATOM     15  C   UNL     1       1.502  -2.389   2.476  0.00  0.00    +0.055 C 
ATOM     16 BR   UNL     1       1.718  -1.359   4.047  0.00  0.00    -0.047 Br
ATOM     17  H   UNL     1       1.811  -8.161   2.228  0.00  0.00    +0.111 HD
ATOM     18  H   UNL     1       0.928  -5.859   3.287  0.00  0.00    -0.055 HD
ENDROOT
BRANCH   1  19
ATOM     19  O   UNL     1       0.693  -0.477   1.160  0.00  0.00    -0.491 OA
BRANCH  19  21
ATOM     20  C   UNL     1      -0.019   1.526   0.010  0.00  0.00    +0.048 C 
ATOM     21  C   UNL     1       0.002  -0.004   0.002  0.00  0.00    +0.226 C 
ENDBRANCH  19  21
ENDBRANCH   1  19
BRANCH   8  22
ATOM     22  C   UNL     1       0.237  -8.185   5.307  0.00  0.00    +0.147 C 
BRANCH  22  23
ATOM     23  C   UNL     1      -0.840  -8.849   6.125  0.00  0.00    -0.037 A 
ATOM     24  C   UNL     1      -2.003  -8.164   6.422  0.00  0.00    +0.004 A 
ATOM     25  C   UNL     1      -2.991  -8.774   7.172  0.00  0.00    +0.000 A 
ATOM     26  C   UNL     1      -2.816 -10.068   7.625  0.00  0.00    +0.000 A 
ATOM     27  C   UNL     1      -1.653 -10.753   7.327  0.00  0.00    +0.000 A 
ATOM     28  C   UNL     1      -0.667 -10.145   6.574  0.00  0.00    +0.004 A 
ENDBRANCH  22  23
ENDBRANCH   8  22
TORSDOF 4
