REMARK  Name = ZINC38685817
REMARK  13 active torsions:
REMARK  status: ('A' for Active; 'I' for Inactive)
REMARK    1  A    between atoms: C_1  and  C_2
REMARK    2  A    between atoms: C_2  and  O_3
REMARK    3  A    between atoms: O_3  and  C_4
REMARK    4  A    between atoms: C_7  and  C_10
REMARK    5  A    between atoms: C_15  and  O_24
REMARK    6  A    between atoms: C_19  and  N_23
REMARK    7  A    between atoms: C_20  and  C_21
REMARK    8  A    between atoms: O_24  and  C_25
REMARK    9  A    between atoms: C_25  and  C_27
REMARK   10  A    between atoms: C_27  and  O_28
REMARK   11  A    between atoms: O_28  and  C_29
REMARK   12  A    between atoms: C_30  and  C_36
REMARK   13  A    between atoms: C_34  and  C_35
REMARK                            x       y       z     vdW  Elec       q    Type
REMARK                         _______ _______ _______ _____ _____    ______ ____
ROOT
ATOM      1  C   UNL     1      -2.043  -6.125   0.025  0.00  0.00    +0.098 C 
ATOM      2  C   UNL     1      -2.795  -6.524  -1.217  0.00  0.00    +0.008 A 
ATOM      3  C   UNL     1      -2.163  -6.457  -2.446  0.00  0.00    +0.012 A 
ATOM      4  C   UNL     1      -2.837  -6.818  -3.596  0.00  0.00    +0.047 A 
ATOM      5  C   UNL     1      -4.153  -7.252  -3.521  0.00  0.00    +0.135 A 
ATOM      6  C   UNL     1      -4.789  -7.320  -2.292  0.00  0.00    +0.093 A 
ATOM      7  C   UNL     1      -4.110  -6.955  -1.137  0.00  0.00    +0.138 A 
ATOM      8  O   UNL     1      -4.746  -7.028   0.058  0.00  0.00    -0.441 OA
ATOM      9  C   UNL     1      -4.033  -7.062   1.196  0.00  0.00    +0.199 C 
ATOM     10  C   UNL     1      -2.748  -6.647   1.245  0.00  0.00    +0.098 C 
ENDROOT
BRANCH   1  14
ATOM     11  C   UNL     1      -1.818  -1.862   0.235  0.00  0.00    +0.121 A 
ATOM     12  C   UNL     1      -0.656  -2.618   0.175  0.00  0.00    +0.046 A 
ATOM     13  C   UNL     1      -0.731  -3.995   0.108  0.00  0.00    +0.008 A 
ATOM     14  C   UNL     1      -1.964  -4.622   0.099  0.00  0.00    -0.034 A 
ATOM     15  C   UNL     1      -3.124  -3.871   0.158  0.00  0.00    +0.008 A 
ATOM     16  C   UNL     1      -3.053  -2.493   0.232  0.00  0.00    +0.046 A 
BRANCH  11  17
ATOM     17  O   UNL     1      -1.746  -0.507   0.302  0.00  0.00    -0.492 OA
BRANCH  17  19
ATOM     18  C   UNL     1      -0.561   1.598   0.381  0.00  0.00    +0.048 C 
ATOM     19  C   UNL     1      -0.441   0.075   0.301  0.00  0.00    +0.225 C 
ENDBRANCH  17  19
ENDBRANCH  11  17
ENDBRANCH   1  14
BRANCH   9  20
ATOM     20  N   UNL     1      -4.627  -7.530   2.341  0.00  0.00    -0.328 N 
ATOM     21  H   UNL     1      -5.550  -7.830   2.321  0.00  0.00    +0.145 HD
ATOM     22  H   UNL     1      -4.125  -7.561   3.171  0.00  0.00    +0.145 HD
ENDBRANCH   9  20
BRANCH  10  23
ATOM     23  C   UNL     1      -2.043  -6.708   2.490  0.00  0.00    +0.101 C 
ATOM     24  N   UNL     1      -1.484  -6.756   3.478  0.00  0.00    -0.191 NA
ENDBRANCH  10  23
BRANCH   5  25
ATOM     25  O   UNL     1      -4.818  -7.608  -4.652  0.00  0.00    -0.423 OA
BRANCH  25  26
ATOM     26  C   UNL     1      -5.818  -6.816  -5.071  0.00  0.00    +0.350 C 
ATOM     27  O   UNL     1      -6.037  -5.770  -4.508  0.00  0.00    -0.247 OA
BRANCH  26  28
ATOM     28  C   UNL     1      -6.669  -7.234  -6.242  0.00  0.00    +0.349 C 
BRANCH  28  29
ATOM     29  O   UNL     1      -7.658  -6.234  -6.493  0.00  0.00    -0.480 OA
BRANCH  29  30
ATOM     30  C   UNL     1      -8.514  -6.457  -7.525  0.00  0.00    +0.127 A 
ATOM     31  C   UNL     1      -8.194  -6.018  -8.801  0.00  0.00    -0.009 A 
ATOM     32  C   UNL     1      -9.065  -6.246  -9.848  0.00  0.00    +0.007 A 
ATOM     33  C   UNL     1     -10.256  -6.913  -9.625  0.00  0.00    +0.001 A 
ATOM     34  C   UNL     1     -10.578  -7.352  -8.354  0.00  0.00    +0.007 A 
ATOM     35  C   UNL     1      -9.707  -7.131  -7.305  0.00  0.00    -0.009 A 
ATOM     36  C   UNL     1     -10.055  -7.615  -5.921  0.00  0.00    +0.047 C 
ATOM     37  C   UNL     1      -6.897  -5.290  -9.045  0.00  0.00    +0.047 C 
ENDBRANCH  29  30
ENDBRANCH  28  29
ENDBRANCH  26  28
ENDBRANCH  25  26
ENDBRANCH   5  25
TORSDOF 10
