REMARK  Name = ZINC39665587
REMARK  9 active torsions:
REMARK  status: ('A' for Active; 'I' for Inactive)
REMARK    1  A    between atoms: C_1  and  C_2
REMARK    2  A    between atoms: C_2  and  C_4
REMARK    3  A    between atoms: C_2  and  O_29
REMARK    4  A    between atoms: C_4  and  N_5
REMARK    5  A    between atoms: C_6  and  C_8
REMARK    6  A    between atoms: C_19  and  C_21
REMARK    7  A    between atoms: O_29  and  C_30
REMARK    8  A    between atoms: C_33  and  O_36
REMARK    9  A    between atoms: O_36  and  C_37
REMARK                            x       y       z     vdW  Elec       q    Type
REMARK                         _______ _______ _______ _____ _____    ______ ____
ROOT
ATOM      1  C   UNL     1      -2.122  -2.874  -0.429  0.00  0.00    +0.100 C 
ATOM      2  C   UNL     1      -1.585  -3.409   0.917  0.00  0.00    +0.121 C 
ATOM      3  N   UNL     1      -2.793  -3.840   1.658  0.00  0.00    -0.296 N 
ATOM      4  C   UNL     1      -3.655  -4.465   0.626  0.00  0.00    +0.115 C 
ATOM      5  C   UNL     1      -3.479  -3.572  -0.618  0.00  0.00    -0.004 C 
ATOM      6  C   UNL     1      -4.600  -2.539  -0.688  0.00  0.00    -0.010 C 
ATOM      7  C   UNL     1      -5.932  -3.253  -0.932  0.00  0.00    -0.082 C 
ATOM      8  N   UNL     1      -5.859  -4.011  -2.188  0.00  0.00    +0.379 N 
ATOM      9  C   UNL     1      -4.842  -5.063  -2.079  0.00  0.00    -0.082 C 
ATOM     10  C   UNL     1      -3.464  -4.426  -1.883  0.00  0.00    -0.010 C 
ATOM     11  C   UNL     1      -3.051  -3.696   2.973  0.00  0.00    +0.249 C 
ATOM     12  O   UNL     1      -2.278  -3.080   3.680  0.00  0.00    -0.270 OA
ATOM     13  H   UNL     1      -6.757  -4.431  -2.378  0.00  0.00    -0.086 HD
ATOM     14  H   UNL     1      -5.617  -3.386  -2.942  0.00  0.00    -0.086 HD
ENDROOT
BRANCH  11  15
ATOM     15  C   UNL     1      -4.273  -4.287   3.554  0.00  0.00    +0.072 A 
ATOM     16  C   UNL     1      -4.766  -5.500   3.067  0.00  0.00    +0.019 A 
ATOM     17  C   UNL     1      -5.906  -6.047   3.613  0.00  0.00    +0.039 A 
ATOM     18  C   UNL     1      -6.566  -5.396   4.646  0.00  0.00    +0.126 A 
ATOM     19  C   UNL     1      -6.085  -4.193   5.134  0.00  0.00    +0.077 A 
ATOM     20  C   UNL     1      -4.938  -3.637   4.599  0.00  0.00    +0.138 A 
ATOM     21  F   UNL     1      -4.465  -2.466   5.080  0.00  0.00    -0.205 F 
ATOM     22  F   UNL     1      -7.684  -5.938   5.176  0.00  0.00    -0.205 F 
ENDBRANCH  11  15
BRANCH   1  24
ATOM     23  N   UNL     1      -2.273  -0.647  -1.496  0.00  0.00    -0.312 N 
ATOM     24  C   UNL     1      -2.305  -1.380  -0.365  0.00  0.00    +0.218 C 
ATOM     25  O   UNL     1      -2.481  -0.836   0.705  0.00  0.00    -0.275 OA
ATOM     26  H   UNL     1      -2.131  -1.082  -2.351  0.00  0.00    +0.149 HD
BRANCH  23  27
ATOM     27  C   UNL     1      -2.450   0.806  -1.433  0.00  0.00    +0.148 C 
BRANCH  27  29
ATOM     28  C   UNL     1      -2.557   2.908  -2.779  0.00  0.00    +0.053 C 
ATOM     29  C   UNL     1      -2.371   1.391  -2.844  0.00  0.00    +0.187 C 
BRANCH  29  30
ATOM     30  O   UNL     1      -1.095   1.091  -3.413  0.00  0.00    -0.488 OA
BRANCH  30  31
ATOM     31  C   UNL     1      -1.016   1.062  -4.770  0.00  0.00    +0.121 A 
ATOM     32  C   UNL     1      -2.109   1.435  -5.537  0.00  0.00    +0.049 A 
ATOM     33  C   UNL     1      -2.029   1.405  -6.916  0.00  0.00    +0.049 A 
ATOM     34  C   UNL     1      -0.854   1.003  -7.533  0.00  0.00    +0.120 A 
ATOM     35  C   UNL     1       0.240   0.630  -6.766  0.00  0.00    +0.049 A 
ATOM     36  C   UNL     1       0.161   0.664  -5.388  0.00  0.00    +0.049 A 
BRANCH  34  37
ATOM     37  O   UNL     1      -0.775   0.973  -8.890  0.00  0.00    -0.495 OA
ATOM     38  C   UNL     1       0.466   0.548  -9.459  0.00  0.00    +0.277 C 
ENDBRANCH  34  37
ENDBRANCH  30  31
ENDBRANCH  29  30
ENDBRANCH  27  29
ENDBRANCH  23  27
ENDBRANCH   1  24
TORSDOF 7
