REMARK  Name = ZINC01787706
REMARK  9 active torsions:
REMARK  status: ('A' for Active; 'I' for Inactive)
REMARK    1  A    between atoms: C_1  and  C_2
REMARK    2  A    between atoms: C_3  and  C_29
REMARK    3  A    between atoms: C_4  and  C_22
REMARK    4  A    between atoms: C_10  and  C_11
REMARK    5  A    between atoms: C_29  and  O_31
REMARK    6  A    between atoms: O_31  and  C_32
REMARK    7  A    between atoms: C_32  and  C_33
REMARK    8  A    between atoms: C_33  and  O_34
REMARK    9  A    between atoms: O_34  and  C_35
REMARK                            x       y       z     vdW  Elec       q    Type
REMARK                         _______ _______ _______ _____ _____    ______ ____
ROOT
ATOM      1  C   UNL     1       0.128   0.498   0.510  0.00  0.00    +0.066 C 
ATOM      2  C   UNL     1      -0.199  -0.971   0.414  0.00  0.00    +0.053 C 
ATOM      3  C   UNL     1      -1.504  -1.375   0.401  0.00  0.00    +0.085 C 
ATOM      4  C   UNL     1      -1.789  -2.856   0.304  0.00  0.00    +0.163 C 
ATOM      5  N   UNL     1      -0.616  -3.771   0.229  0.00  0.00    -0.275 N 
ATOM      6  C   UNL     1      -0.664  -5.106   0.139  0.00  0.00    +0.268 A 
ATOM      7  O   UNL     1      -1.729  -5.694   0.111  0.00  0.00    -0.266 OA
ATOM      8  C   UNL     1       0.609  -5.840   0.074  0.00  0.00    +0.081 A 
ATOM      9  C   UNL     1       0.831  -7.175  -0.020  0.00  0.00    +0.028 C 
ATOM     10  S   UNL     1       1.783  -4.496   0.152  0.00  0.00    -0.046 S 
ATOM     11  C   UNL     1       0.614  -3.155   0.257  0.00  0.00    +0.178 A 
ATOM     12  N   UNL     1       0.784  -1.859   0.337  0.00  0.00    -0.228 NA
ENDROOT
BRANCH   9  13
ATOM     13  C   UNL     1       2.198  -7.703   0.099  0.00  0.00    -0.022 A 
ATOM     14  C   UNL     1       3.213  -6.909   0.646  0.00  0.00    +0.009 A 
ATOM     15  C   UNL     1       4.492  -7.410   0.755  0.00  0.00    +0.022 A 
ATOM     16  C   UNL     1       4.775  -8.697   0.325  0.00  0.00    +0.059 A 
ATOM     17  C   UNL     1       3.775  -9.489  -0.218  0.00  0.00    +0.060 A 
ATOM     18  C   UNL     1       2.489  -9.003  -0.328  0.00  0.00    +0.029 A 
ATOM     19 CL   UNL     1       4.142 -11.099  -0.755  0.00  0.00    -0.082 Cl
ATOM     20 CL   UNL     1       6.390  -9.319   0.465  0.00  0.00    -0.082 Cl
ENDBRANCH   9  13
BRANCH   4  21
ATOM     21  C   UNL     1      -2.635  -3.086  -0.922  0.00  0.00    -0.002 A 
ATOM     22  C   UNL     1      -2.033  -3.377  -2.132  0.00  0.00    +0.007 A 
ATOM     23  C   UNL     1      -2.808  -3.587  -3.257  0.00  0.00    +0.000 A 
ATOM     24  C   UNL     1      -4.186  -3.507  -3.172  0.00  0.00    +0.001 A 
ATOM     25  C   UNL     1      -4.788  -3.217  -1.963  0.00  0.00    +0.020 A 
ATOM     26  C   UNL     1      -4.013  -3.011  -0.836  0.00  0.00    +0.046 A 
ATOM     27 CL   UNL     1      -4.770  -2.652   0.685  0.00  0.00    -0.083 Cl
ENDBRANCH   4  21
BRANCH   3  28
ATOM     28  C   UNL     1      -2.551  -0.441   0.477  0.00  0.00    +0.339 C 
ATOM     29  O   UNL     1      -3.132  -0.261   1.532  0.00  0.00    -0.245 OA
BRANCH  28  30
ATOM     30  O   UNL     1      -2.913   0.258  -0.621  0.00  0.00    -0.459 OA
BRANCH  30  31
ATOM     31  C   UNL     1      -3.908   1.269  -0.447  0.00  0.00    +0.260 C 
BRANCH  31  32
ATOM     32  C   UNL     1      -4.271   1.866  -1.808  0.00  0.00    +0.200 C 
BRANCH  32  33
ATOM     33  O   UNL     1      -4.876   0.860  -2.623  0.00  0.00    -0.380 OA
ATOM     34  C   UNL     1      -5.256   1.316  -3.923  0.00  0.00    +0.194 C 
ENDBRANCH  32  33
ENDBRANCH  31  32
ENDBRANCH  30  31
ENDBRANCH  28  30
ENDBRANCH   3  28
TORSDOF 7
