REMARK  Name = ZINC38732556
REMARK  6 active torsions:
REMARK  status: ('A' for Active; 'I' for Inactive)
REMARK    1  A    between atoms: C_4  and  C_7
REMARK    2  A    between atoms: C_7  and  C_8
REMARK    3  A    between atoms: C_7  and  C_34
REMARK    4  A    between atoms: C_8  and  N_9
REMARK    5  A    between atoms: C_10  and  C_12
REMARK    6  A    between atoms: C_18  and  C_20
REMARK                            x       y       z     vdW  Elec       q    Type
REMARK                         _______ _______ _______ _____ _____    ______ ____
ROOT
ATOM      1  C   UNL     1       3.436   0.286   4.731  0.00  0.00    +0.087 C 
ATOM      2  C   UNL     1       2.247   1.192   5.056  0.00  0.00    +0.013 C 
ATOM      3  C   UNL     1       2.321   1.625   6.521  0.00  0.00    +0.001 C 
ATOM      4  C   UNL     1       2.280   0.388   7.421  0.00  0.00    +0.001 C 
ATOM      5  C   UNL     1       3.469  -0.518   7.096  0.00  0.00    +0.013 C 
ATOM      6  C   UNL     1       3.395  -0.951   5.631  0.00  0.00    +0.087 C 
ENDROOT
BRANCH   6   7
ATOM      7  C   UNL     1       2.111  -1.703   5.393  0.00  0.00    +0.219 C 
ATOM      8  O   UNL     1       1.254  -1.229   4.678  0.00  0.00    -0.275 OA
ATOM      9  N   UNL     1       1.915  -2.902   5.976  0.00  0.00    -0.298 N 
ATOM     10  C   UNL     1       2.988  -3.542   6.750  0.00  0.00    +0.126 C 
ATOM     11  C   UNL     1       2.458  -3.854   8.156  0.00  0.00    +0.125 C 
ATOM     12  N   UNL     1       1.167  -4.545   8.028  0.00  0.00    -0.314 N 
ATOM     13  C   UNL     1       0.095  -3.905   7.254  0.00  0.00    +0.125 C 
ATOM     14  C   UNL     1       0.622  -3.591   5.854  0.00  0.00    +0.126 C 
ATOM     15  C   UNL     1       0.965  -5.782   8.630  0.00  0.00    +0.099 A 
ATOM     16  C   UNL     1       1.942  -6.310   9.468  0.00  0.00    +0.042 A 
ATOM     17  C   UNL     1       1.728  -7.541  10.059  0.00  0.00    +0.005 A 
ATOM     18  C   UNL     1       0.538  -8.207   9.792  0.00  0.00    +0.018 A 
ATOM     19  C   UNL     1      -0.388  -7.625   8.950  0.00  0.00    +0.084 A 
ATOM     20  N   UNL     1      -0.158  -6.445   8.404  0.00  0.00    -0.350 N 
ATOM     21  H   UNL     1      -0.828  -6.057   7.819  0.00  0.00    +0.166 HD
ENDBRANCH   6   7
BRANCH   1  23
ATOM     22  N   UNL     1       3.384   0.786   2.309  0.00  0.00    -0.314 N 
ATOM     23  C   UNL     1       3.363  -0.141   3.287  0.00  0.00    +0.217 C 
ATOM     24  O   UNL     1       3.287  -1.318   3.006  0.00  0.00    -0.275 OA
ATOM     25  H   UNL     1       3.445   1.728   2.534  0.00  0.00    +0.149 HD
BRANCH  22  26
ATOM     26  C   UNL     1       3.313   0.371   0.906  0.00  0.00    +0.117 C 
BRANCH  26  27
ATOM     27  C   UNL     1       3.354   1.608   0.006  0.00  0.00    +0.066 C 
BRANCH  27  31
ATOM     28  C   UNL     1      -0.147   3.966   0.664  0.00  0.00    +0.000 A 
ATOM     29  C   UNL     1       1.104   4.545   0.760  0.00  0.00    +0.000 A 
ATOM     30  C   UNL     1       2.237   3.782   0.547  0.00  0.00    +0.004 A 
ATOM     31  C   UNL     1       2.119   2.440   0.239  0.00  0.00    -0.038 A 
ATOM     32  C   UNL     1       0.867   1.860   0.143  0.00  0.00    +0.004 A 
ATOM     33  C   UNL     1      -0.266   2.624   0.355  0.00  0.00    +0.000 A 
ENDBRANCH  27  31
BRANCH  27  34
ATOM     34  C   UNL     1       3.405   1.178  -1.438  0.00  0.00    -0.038 A 
ATOM     35  C   UNL     1       2.468   0.286  -1.926  0.00  0.00    +0.004 A 
ATOM     36  C   UNL     1       2.515  -0.108  -3.250  0.00  0.00    +0.000 A 
ATOM     37  C   UNL     1       3.498   0.389  -4.085  0.00  0.00    +0.000 A 
ATOM     38  C   UNL     1       4.434   1.281  -3.597  0.00  0.00    +0.000 A 
ATOM     39  C   UNL     1       4.385   1.679  -2.274  0.00  0.00    +0.004 A 
ENDBRANCH  27  34
ENDBRANCH  26  27
ENDBRANCH  22  26
ENDBRANCH   1  23
TORSDOF 6
