REMARK  Name = ZINC54025437
REMARK  11 active torsions:
REMARK  status: ('A' for Active; 'I' for Inactive)
REMARK    1  A    between atoms: C_1  and  N_2
REMARK    2  A    between atoms: N_2  and  C_3
REMARK    3  A    between atoms: N_2  and  C_4
REMARK    4  A    between atoms: C_4  and  C_6
REMARK    5  A    between atoms: C_4  and  C_23
REMARK    6  A    between atoms: C_6  and  N_7
REMARK    7  A    between atoms: N_10  and  C_11
REMARK    8  A    between atoms: C_11  and  C_12
REMARK    9  A    between atoms: C_12  and  C_13
REMARK   10  A    between atoms: C_16  and  S_19
REMARK   11  A    between atoms: S_19  and  N_22
REMARK                            x       y       z     vdW  Elec       q    Type
REMARK                         _______ _______ _______ _____ _____    ______ ____
ROOT
ATOM      1  N   UNL     1      -1.766   1.531  -1.169  0.00  0.00    -0.301 N 
ATOM      2  C   UNL     1      -2.260   2.263  -2.188  0.00  0.00    +0.300 C 
ATOM      3  O   UNL     1      -2.936   1.731  -3.047  0.00  0.00    -0.253 OA
ATOM      4  N   UNL     1      -2.004   3.585  -2.254  0.00  0.00    -0.299 N 
ATOM      5  H   UNL     1      -1.227   1.956  -0.484  0.00  0.00    +0.150 HD
ATOM      6  H   UNL     1      -1.465   4.009  -1.569  0.00  0.00    +0.150 HD
ENDROOT
BRANCH   1   7
ATOM      7  C   UNL     1      -2.044   0.095  -1.098  0.00  0.00    +0.095 C 
BRANCH   7   8
ATOM      8  C   UNL     1      -1.280  -0.514   0.080  0.00  0.00    -0.014 C 
BRANCH   8   9
ATOM      9  C   UNL     1      -1.798   0.069   1.370  0.00  0.00    -0.022 A 
ATOM     10  C   UNL     1      -1.272   1.061   2.129  0.00  0.00    +0.009 A 
ATOM     11  C   UNL     1      -1.927   1.438   3.287  0.00  0.00    +0.008 A 
ATOM     12  C   UNL     1      -3.075   0.803   3.629  0.00  0.00    +0.045 A 
ATOM     13  S   UNL     1      -3.265  -0.362   2.290  0.00  0.00    -0.103 S 
ENDBRANCH   8   9
BRANCH   8  15
ATOM     14  C   UNL     1      -0.940  -2.543  -1.154  0.00  0.00    -0.096 C 
ATOM     15  N   UNL     1      -1.474  -1.970   0.089  0.00  0.00    +0.382 N 
ATOM     16  C   UNL     1      -0.769  -2.551   1.239  0.00  0.00    -0.096 C 
ATOM     17  H   UNL     1      -2.459  -2.178   0.159  0.00  0.00    -0.082 HD
ENDBRANCH   8  15
ENDBRANCH   7   8
ENDBRANCH   1   7
BRANCH   4  18
ATOM     18  C   UNL     1      -2.541   4.380  -3.361  0.00  0.00    +0.110 C 
BRANCH  18  19
ATOM     19  C   UNL     1      -2.107   5.838  -3.199  0.00  0.00    +0.054 C 
BRANCH  19  20
ATOM     20  C   UNL     1      -2.659   6.657  -4.337  0.00  0.00    -0.046 A 
ATOM     21  C   UNL     1      -1.927   6.804  -5.501  0.00  0.00    +0.005 A 
ATOM     22  C   UNL     1      -2.434   7.555  -6.545  0.00  0.00    +0.029 A 
ATOM     23  C   UNL     1      -3.672   8.157  -6.426  0.00  0.00    +0.105 A 
ATOM     24  C   UNL     1      -4.404   8.009  -5.263  0.00  0.00    +0.029 A 
ATOM     25  C   UNL     1      -3.900   7.255  -4.220  0.00  0.00    +0.005 A 
BRANCH  23  26
ATOM     26  S   UNL     1      -4.317   9.115  -7.757  0.00  0.00    +0.056 S 
ATOM     27  O   UNL     1      -5.252  10.022  -7.189  0.00  0.00    -0.153 OA
ATOM     28  O   UNL     1      -3.202   9.550  -8.522  0.00  0.00    -0.153 OA
BRANCH  26  29
ATOM     29  N   UNL     1      -5.184   8.088  -8.725  0.00  0.00    -0.204 NA
ATOM     30  H   UNL     1      -5.944   8.420  -9.227  0.00  0.00    +0.144 HD
ATOM     31  H   UNL     1      -4.931   7.154  -8.789  0.00  0.00    +0.144 HD
ENDBRANCH  26  29
ENDBRANCH  23  26
ENDBRANCH  19  20
ENDBRANCH  18  19
ENDBRANCH   4  18
TORSDOF 9
