REMARK  Name = ZINC57931063
REMARK  5 active torsions:
REMARK  status: ('A' for Active; 'I' for Inactive)
REMARK    1  A    between atoms: C_1  and  C_2
REMARK    2  A    between atoms: C_7  and  C_8
REMARK    3  A    between atoms: N_9  and  C_16
REMARK    4  A    between atoms: C_12  and  C_15
REMARK    5  A    between atoms: C_16  and  C_17
REMARK                            x       y       z     vdW  Elec       q    Type
REMARK                         _______ _______ _______ _____ _____    ______ ____
ROOT
ATOM      1  C   UNL     1      -0.018   1.503   0.010  0.00  0.00    +0.044 C 
ATOM      2  C   UNL     1       0.002  -0.004   0.002  0.00  0.00    -0.046 A 
ATOM      3  C   UNL     1       0.006  -0.688  -1.202  0.00  0.00    +0.028 A 
ATOM      4  C   UNL     1       0.023  -2.070  -1.205  0.00  0.00    +0.050 A 
ATOM      5  C   UNL     1       0.035  -2.776   0.001  0.00  0.00    +0.058 A 
ATOM      6  C   UNL     1       0.034  -2.083   1.200  0.00  0.00    +0.029 A 
ATOM      7  C   UNL     1       0.023  -0.700   1.196  0.00  0.00    -0.046 A 
ATOM      8  C   UNL     1       0.028   0.053   2.502  0.00  0.00    +0.044 C 
ATOM      9  N   UNL     1       0.041  -4.176  -0.018  0.00  0.00    -0.264 N 
ATOM     10  C   UNL     1       0.322  -4.846  -1.152  0.00  0.00    +0.240 C 
ATOM     11  O   UNL     1       0.279  -6.058  -1.157  0.00  0.00    -0.273 OA
ATOM     12  C   UNL     1       0.689  -4.108  -2.414  0.00  0.00    +0.154 C 
ATOM     13  N   UNL     1       0.034  -2.792  -2.407  0.00  0.00    -0.332 N 
ATOM     14  C   UNL     1       2.207  -3.927  -2.478  0.00  0.00    +0.038 C 
ATOM     15  H   UNL     1      -0.378  -2.433  -3.209  0.00  0.00    +0.147 HD
ENDROOT
BRANCH   9  16
ATOM     16  C   UNL     1      -0.261  -4.918   1.208  0.00  0.00    +0.149 C 
BRANCH  16  17
ATOM     17  C   UNL     1      -1.744  -5.175   1.287  0.00  0.00    -0.028 A 
ATOM     18  C   UNL     1      -2.572  -4.257   1.908  0.00  0.00    +0.005 A 
ATOM     19  C   UNL     1      -3.932  -4.492   1.981  0.00  0.00    +0.002 A 
ATOM     20  C   UNL     1      -4.465  -5.644   1.434  0.00  0.00    +0.020 A 
ATOM     21  C   UNL     1      -3.638  -6.562   0.813  0.00  0.00    +0.041 A 
ATOM     22  C   UNL     1      -2.277  -6.324   0.734  0.00  0.00    +0.025 A 
ATOM     23 CL   UNL     1      -4.307  -8.009   0.126  0.00  0.00    -0.084 Cl
ENDBRANCH  16  17
ENDBRANCH   9  16
TORSDOF 2
