REMARK  Name = ZINC09295337
REMARK  9 active torsions:
REMARK  status: ('A' for Active; 'I' for Inactive)
REMARK    1  A    between atoms: C_1  and  C_2
REMARK    2  A    between atoms: C_2  and  C_3
REMARK    3  A    between atoms: C_8  and  N_9
REMARK    4  A    between atoms: C_10  and  C_12
REMARK    5  A    between atoms: C_14  and  C_31
REMARK    6  A    between atoms: C_18  and  C_23
REMARK    7  A    between atoms: C_23  and  O_24
REMARK    8  A    between atoms: O_24  and  C_25
REMARK    9  A    between atoms: C_34  and  C_37
REMARK                            x       y       z     vdW  Elec       q    Type
REMARK                         _______ _______ _______ _____ _____    ______ ____
ROOT
ATOM      1  C   UNL     1      -2.569   4.140   0.252  0.00  0.00    +0.166 C 
ATOM      2  C   UNL     1      -2.373   5.433   1.054  0.00  0.00    +0.140 C 
ATOM      3  N   UNL     1      -3.667   6.006   1.426  0.00  0.00    -0.272 N 
ATOM      4  N   UNL     1      -4.457   6.310   0.364  0.00  0.00    -0.222 N 
ATOM      5  C   UNL     1      -5.500   7.190   0.326  0.00  0.00    +0.189 A 
ATOM      6  N   UNL     1      -5.989   7.160  -0.883  0.00  0.00    -0.128 NA
ATOM      7  N   UNL     1      -5.327   6.328  -1.609  0.00  0.00    -0.121 NA
ATOM      8  C   UNL     1      -4.378   5.788  -0.895  0.00  0.00    +0.209 A 
ATOM      9  S   UNL     1      -3.179   4.595  -1.400  0.00  0.00    -0.069 S 
ATOM     10  H   UNL     1      -4.151   5.408   2.079  0.00  0.00    +0.167 HD
ENDROOT
BRANCH   2  11
ATOM     11  C   UNL     1      -1.583   5.130   2.302  0.00  0.00    -0.024 A 
ATOM     12  C   UNL     1      -2.216   4.587   3.405  0.00  0.00    +0.006 A 
ATOM     13  C   UNL     1      -1.491   4.304   4.547  0.00  0.00    +0.004 A 
ATOM     14  C   UNL     1      -0.136   4.575   4.591  0.00  0.00    -0.050 A 
ATOM     15  C   UNL     1       0.495   5.124   3.490  0.00  0.00    +0.004 A 
ATOM     16  C   UNL     1      -0.229   5.401   2.346  0.00  0.00    +0.006 A 
ATOM     17  C   UNL     1       0.653   4.273   5.839  0.00  0.00    +0.044 C 
ENDBRANCH   2  11
BRANCH   1  19
ATOM     18  N   UNL     1      -1.237   2.069   0.019  0.00  0.00    -0.284 N 
ATOM     19  C   UNL     1      -1.255   3.412   0.128  0.00  0.00    +0.233 C 
ATOM     20  O   UNL     1      -0.215   4.035   0.127  0.00  0.00    -0.274 OA
ATOM     21  H   UNL     1      -2.070   1.576  -0.045  0.00  0.00    +0.155 HD
BRANCH  18  27
ATOM     22  C   UNL     1       0.087   0.129   0.582  0.00  0.00    -0.026 A 
ATOM     23  C   UNL     1       1.292  -0.546   0.555  0.00  0.00    +0.005 A 
ATOM     24  C   UNL     1       2.394   0.028  -0.051  0.00  0.00    +0.000 A 
ATOM     25  C   UNL     1       2.294   1.279  -0.633  0.00  0.00    +0.002 A 
ATOM     26  C   UNL     1       1.093   1.959  -0.609  0.00  0.00    +0.023 A 
ATOM     27  C   UNL     1      -0.016   1.385  -0.001  0.00  0.00    +0.037 A 
BRANCH  22  29
ATOM     28  C   UNL     1      -1.958  -1.217   0.190  0.00  0.00    +0.009 C 
ATOM     29  C   UNL     1      -1.114  -0.497   1.243  0.00  0.00    +0.033 C 
ENDBRANCH  22  29
ENDBRANCH  18  27
ENDBRANCH   1  19
BRANCH   5  30
ATOM     30  C   UNL     1      -5.995   8.039   1.469  0.00  0.00    +0.306 C 
BRANCH  30  31
ATOM     31  O   UNL     1      -5.307   9.291   1.465  0.00  0.00    -0.484 OA
BRANCH  31  32
ATOM     32  C   UNL     1      -5.638  10.180   2.439  0.00  0.00    +0.121 A 
ATOM     33  C   UNL     1      -6.608   9.855   3.375  0.00  0.00    +0.045 A 
ATOM     34  C   UNL     1      -6.939  10.758   4.367  0.00  0.00    +0.004 A 
ATOM     35  C   UNL     1      -6.311  11.988   4.421  0.00  0.00    +0.000 A 
ATOM     36  C   UNL     1      -5.347  12.317   3.486  0.00  0.00    +0.004 A 
ATOM     37  C   UNL     1      -5.009  11.415   2.495  0.00  0.00    +0.045 A 
ENDBRANCH  31  32
ENDBRANCH  30  31
ENDBRANCH   5  30
TORSDOF 7
