REMARK  Name = ZINC35427268
REMARK  6 active torsions:
REMARK  status: ('A' for Active; 'I' for Inactive)
REMARK    1  A    between atoms: C_1  and  C_2
REMARK    2  A    between atoms: C_5  and  O_37
REMARK    3  A    between atoms: C_6  and  N_8
REMARK    4  A    between atoms: C_23  and  C_25
REMARK    5  A    between atoms: N_33  and  C_36
REMARK    6  A    between atoms: O_37  and  C_38
REMARK                            x       y       z     vdW  Elec       q    Type
REMARK                         _______ _______ _______ _____ _____    ______ ____
ROOT
ATOM      1  N   UNL     1       0.026  -1.737   2.359  0.00  0.00    -0.266 N 
ATOM      2  C   UNL     1       0.096  -1.434   3.671  0.00  0.00    +0.308 C 
ATOM      3  O   UNL     1      -0.017  -0.280   4.035  0.00  0.00    -0.252 OA
ATOM      4  N   UNL     1       0.291  -2.411   4.578  0.00  0.00    -0.268 N 
ATOM      5  C   UNL     1       0.440  -3.821   4.176  0.00  0.00    +0.148 C 
ATOM      6  C   UNL     1       1.495  -4.551   4.977  0.00  0.00    +0.004 A 
ATOM      7  C   UNL     1       2.719  -4.978   4.430  0.00  0.00    -0.034 A 
ATOM      8  C   UNL     1       3.581  -5.646   5.245  0.00  0.00    -0.021 A 
ATOM      9  S   UNL     1       2.733  -5.701   6.801  0.00  0.00    -0.077 S 
ATOM     10  C   UNL     1       1.285  -4.826   6.293  0.00  0.00    +0.090 A 
ATOM     11  N   UNL     1       0.153  -4.437   7.000  0.00  0.00    -0.312 N 
ATOM     12  C   UNL     1      -0.643  -5.114   7.859  0.00  0.00    +0.092 A 
ATOM     13  C   UNL     1      -1.659  -4.297   8.220  0.00  0.00    +0.020 A 
ATOM     14  C   UNL     1      -1.463  -3.061   7.567  0.00  0.00    +0.025 A 
ATOM     15  C   UNL     1      -0.336  -3.161   6.846  0.00  0.00    +0.049 A 
ATOM     16  C   UNL     1       0.374  -2.119   6.030  0.00  0.00    +0.155 C 
ATOM     17  C   UNL     1       4.920  -6.193   4.878  0.00  0.00    -0.036 C 
ATOM     18  N   UNL     1       5.021  -6.222   3.406  0.00  0.00    +0.381 N 
ATOM     19  C   UNL     1       4.632  -4.914   2.864  0.00  0.00    -0.074 C 
ATOM     20  C   UNL     1       3.117  -4.721   2.978  0.00  0.00    +0.018 C 
ATOM     21  C   UNL     1       6.406  -6.522   3.017  0.00  0.00    -0.096 C 
ATOM     22  H   UNL     1       0.042  -2.664   2.074  0.00  0.00    +0.156 HD
ATOM     23  H   UNL     1       4.407  -6.934   3.041  0.00  0.00    -0.082 HD
ENDROOT
BRANCH   1  29
ATOM     24  C   UNL     1       0.630   2.993   1.158  0.00  0.00    +0.044 C 
ATOM     25  C   UNL     1       0.217   1.589   0.798  0.00  0.00    -0.048 A 
ATOM     26  C   UNL     1      -0.255   1.313  -0.472  0.00  0.00    +0.007 A 
ATOM     27  C   UNL     1      -0.635   0.027  -0.809  0.00  0.00    +0.048 A 
ATOM     28  C   UNL     1      -0.543  -0.990   0.128  0.00  0.00    +0.141 A 
ATOM     29  C   UNL     1      -0.068  -0.713   1.407  0.00  0.00    +0.077 A 
ATOM     30  C   UNL     1       0.317   0.579   1.736  0.00  0.00    +0.030 A 
BRANCH  28  31
ATOM     31  O   UNL     1      -0.918  -2.255  -0.201  0.00  0.00    -0.493 OA
ATOM     32  C   UNL     1      -1.396  -2.465  -1.531  0.00  0.00    +0.277 C 
ENDBRANCH  28  31
ENDBRANCH   1  29
BRANCH  16  33
ATOM     33  C   UNL     1       1.823  -2.071   6.439  0.00  0.00    -0.021 A 
ATOM     34  C   UNL     1       2.800  -1.815   5.495  0.00  0.00    +0.008 A 
ATOM     35  C   UNL     1       4.129  -1.770   5.869  0.00  0.00    +0.038 A 
ATOM     36  C   UNL     1       4.483  -1.982   7.191  0.00  0.00    +0.123 A 
ATOM     37  C   UNL     1       3.505  -2.238   8.136  0.00  0.00    +0.038 A 
ATOM     38  C   UNL     1       2.175  -2.277   7.760  0.00  0.00    +0.008 A 
ATOM     39  F   UNL     1       5.783  -1.939   7.558  0.00  0.00    -0.205 F 
ENDBRANCH  16  33
TORSDOF 3
