REMARK  Name = ZINC39758319
REMARK  10 active torsions:
REMARK  status: ('A' for Active; 'I' for Inactive)
REMARK    1  A    between atoms: C_1  and  O_2
REMARK    2  A    between atoms: O_2  and  C_3
REMARK    3  A    between atoms: C_6  and  C_11
REMARK    4  A    between atoms: C_8  and  O_9
REMARK    5  A    between atoms: O_9  and  C_10
REMARK    6  A    between atoms: C_11  and  C_12
REMARK    7  A    between atoms: C_16  and  S_25
REMARK    8  A    between atoms: N_18  and  C_19
REMARK    9  A    between atoms: S_25  and  C_26
REMARK   10  A    between atoms: C_26  and  C_27
REMARK                            x       y       z     vdW  Elec       q    Type
REMARK                         _______ _______ _______ _____ _____    ______ ____
ROOT
ATOM      1  C   UNL     1      -5.449  -2.861  -1.406  0.00  0.00    +0.162 C 
ATOM      2  N   UNL     1      -4.558  -3.838  -2.071  0.00  0.00    -0.234 NA
ATOM      3  N   UNL     1      -5.246  -5.128  -1.914  0.00  0.00    -0.226 NA
ATOM      4  C   UNL     1      -6.678  -4.765  -2.078  0.00  0.00    +0.217 C 
ATOM      5  N   UNL     1      -6.800  -3.451  -1.411  0.00  0.00    -0.288 N 
ATOM      6  H   UNL     1      -4.435  -3.610  -3.047  0.00  0.00    +0.143 HD
ATOM      7  H   UNL     1      -4.956  -5.782  -2.625  0.00  0.00    +0.143 HD
ENDROOT
BRANCH   5   8
ATOM      8  C   UNL     1      -7.963  -2.882  -0.888  0.00  0.00    +0.033 A 
ATOM      9  C   UNL     1      -7.900  -1.678  -0.199  0.00  0.00    +0.023 A 
ATOM     10  C   UNL     1      -9.052  -1.118   0.316  0.00  0.00    +0.002 A 
ATOM     11  C   UNL     1     -10.268  -1.754   0.146  0.00  0.00    +0.000 A 
ATOM     12  C   UNL     1     -10.335  -2.953  -0.539  0.00  0.00    +0.002 A 
ATOM     13  C   UNL     1      -9.187  -3.516  -1.062  0.00  0.00    +0.023 A 
ENDBRANCH   5   8
BRANCH   1  14
ATOM     14  C   UNL     1      -4.987  -2.624   0.033  0.00  0.00    +0.075 C 
BRANCH  14  18
ATOM     15  C   UNL     1      -1.202  -0.634   0.004  0.00  0.00    +0.161 A 
ATOM     16  C   UNL     1      -2.375   0.103   0.013  0.00  0.00    +0.049 A 
ATOM     17  C   UNL     1      -3.597  -0.543   0.022  0.00  0.00    +0.007 A 
ATOM     18  C   UNL     1      -3.652  -1.925   0.023  0.00  0.00    -0.041 A 
ATOM     19  C   UNL     1      -2.485  -2.666   0.014  0.00  0.00    +0.053 A 
ATOM     20  C   UNL     1      -1.257  -2.024  -0.001  0.00  0.00    +0.162 A 
BRANCH  15  22
ATOM     21  C   UNL     1      -0.019   1.430   0.001  0.00  0.00    +0.277 C 
ATOM     22  O   UNL     1       0.001   0.001  -0.005  0.00  0.00    -0.491 OA
ENDBRANCH  15  22
BRANCH  20  23
ATOM     23  O   UNL     1      -0.108  -2.752  -0.016  0.00  0.00    -0.491 OA
ATOM     24  C   UNL     1      -0.241  -4.174  -0.021  0.00  0.00    +0.277 C 
ENDBRANCH  20  23
ENDBRANCH  14  18
ENDBRANCH   1  14
BRANCH   4  25
ATOM     25  S   UNL     1      -7.741  -5.992  -1.269  0.00  0.00    -0.114 S 
BRANCH  25  26
ATOM     26  C   UNL     1      -7.200  -5.968   0.462  0.00  0.00    +0.146 C 
BRANCH  26  27
ATOM     27  C   UNL     1      -8.014  -6.957   1.257  0.00  0.00    +0.120 A 
ATOM     28  N   UNL     1      -7.758  -7.082   2.585  0.00  0.00    -0.310 N 
ATOM     29  H   UNL     1      -7.066  -6.540   2.994  0.00  0.00    +0.170 HD
ATOM     30  C   UNL     1      -8.461  -7.955   3.343  0.00  0.00    +0.259 A 
ATOM     31  O   UNL     1      -8.244  -8.077   4.534  0.00  0.00    -0.267 OA
ATOM     32  C   UNL     1      -9.499  -8.751   2.671  0.00  0.00    +0.065 A 
ATOM     33  C   UNL     1     -10.279  -9.678   3.360  0.00  0.00    +0.015 A 
ATOM     34  C   UNL     1     -11.237 -10.398   2.680  0.00  0.00    +0.001 A 
ATOM     35  C   UNL     1     -11.431 -10.206   1.318  0.00  0.00    +0.002 A 
ATOM     36  C   UNL     1     -10.671  -9.295   0.619  0.00  0.00    +0.028 A 
ATOM     37  C   UNL     1      -9.694  -8.554   1.286  0.00  0.00    +0.078 A 
ATOM     38  N   UNL     1      -8.926  -7.642   0.637  0.00  0.00    -0.233 NA
ENDBRANCH  26  27
ENDBRANCH  25  26
ENDBRANCH   4  25
TORSDOF 8
