REMARK  Name = ZINC05642598
REMARK  8 active torsions:
REMARK  status: ('A' for Active; 'I' for Inactive)
REMARK    1  A    between atoms: C_1  and  C_2
REMARK    2  A    between atoms: C_2  and  C_3
REMARK    3  A    between atoms: C_3  and  C_4
REMARK    4  A    between atoms: C_3  and  N_6
REMARK    5  A    between atoms: C_4  and  C_5
REMARK    6  A    between atoms: C_9  and  O_11
REMARK    7  A    between atoms: C_12  and  C_19
REMARK    8  A    between atoms: C_22  and  C_25
REMARK                            x       y       z     vdW  Elec       q    Type
REMARK                         _______ _______ _______ _____ _____    ______ ____
ROOT
ATOM      1  N   UNL     1       0.945  -2.036   1.095  0.00  0.00    -0.244 N 
ATOM      2  C   UNL     1       2.181  -2.638   1.095  0.00  0.00    +0.132 A 
ATOM      3  C   UNL     1       1.976  -3.966   0.953  0.00  0.00    +0.072 A 
ATOM      4  C   UNL     1       0.580  -4.179   0.864  0.00  0.00    +0.238 A 
ATOM      5  N   UNL     1      -0.026  -3.027   0.955  0.00  0.00    -0.131 NA
ATOM      6  C   UNL     1       2.957  -5.094   0.891  0.00  0.00    +0.115 C 
ATOM      7  S   UNL     1       4.407  -4.832   1.915  0.00  0.00    -0.138 S 
ATOM      8  C   UNL     1       5.304  -3.466   1.165  0.00  0.00    +0.166 C 
ATOM      9  C   UNL     1       4.599  -2.173   1.294  0.00  0.00    +0.228 C 
ATOM     10  O   UNL     1       5.317  -1.219   1.505  0.00  0.00    -0.275 OA
ATOM     11  N   UNL     1       3.332  -1.896   1.217  0.00  0.00    -0.270 N 
ATOM     12  H   UNL     1       3.157  -0.943   1.254  0.00  0.00    +0.156 HD
ENDROOT
BRANCH   6  13
ATOM     13  C   UNL     1       2.271  -6.357   1.343  0.00  0.00    -0.030 A 
ATOM     14  C   UNL     1       1.730  -6.434   2.613  0.00  0.00    +0.005 A 
ATOM     15  C   UNL     1       1.101  -7.592   3.028  0.00  0.00    +0.003 A 
ATOM     16  C   UNL     1       1.011  -8.674   2.172  0.00  0.00    -0.050 A 
ATOM     17  C   UNL     1       1.550  -8.598   0.902  0.00  0.00    +0.003 A 
ATOM     18  C   UNL     1       2.176  -7.437   0.485  0.00  0.00    +0.005 A 
ATOM     19  C   UNL     1       0.326  -9.938   2.625  0.00  0.00    +0.044 C 
ENDBRANCH   6  13
BRANCH   4  20
ATOM     20  O   UNL     1      -0.029  -5.386   0.714  0.00  0.00    -0.491 OA
ATOM     21  H   UNL     1      -0.248  -5.822   1.548  0.00  0.00    +0.294 HD
ENDBRANCH   4  20
BRANCH   1  22
ATOM     22  C   UNL     1       0.691  -0.599   1.227  0.00  0.00    +0.109 C 
BRANCH  22  24
ATOM     23  C   UNL     1       0.853  -0.226  -1.238  0.00  0.00    +0.006 C 
ATOM     24  C   UNL     1      -0.053  -0.097  -0.012  0.00  0.00    +0.023 C 
ENDBRANCH  22  24
BRANCH  22  25
ATOM     25  C   UNL     1      -0.161  -0.344   2.472  0.00  0.00    +0.023 C 
ATOM     26  C   UNL     1       0.631  -0.736   3.721  0.00  0.00    +0.006 C 
ENDBRANCH  22  25
ENDBRANCH   1  22
TORSDOF 5
