REMARK  Name = ZINC16995864
REMARK  4 active torsions:
REMARK  status: ('A' for Active; 'I' for Inactive)
REMARK    1  A    between atoms: C_11  and  C_16
REMARK    2  A    between atoms: N_22  and  C_25
REMARK    3  A    between atoms: C_25  and  C_26
REMARK    4  A    between atoms: C_26  and  C_27
REMARK                            x       y       z     vdW  Elec       q    Type
REMARK                         _______ _______ _______ _____ _____    ______ ____
ROOT
ATOM      1  C   UNL     1       4.896  -3.337   0.902  0.00  0.00    +0.073 A 
ATOM      2  C   UNL     1       4.682  -3.198   2.285  0.00  0.00    +0.260 A 
ATOM      3  N   UNL     1       5.739  -3.112   3.116  0.00  0.00    -0.275 N 
ATOM      4  H   UNL     1       5.594  -3.016   4.071  0.00  0.00    +0.173 HD
ATOM      5  C   UNL     1       6.994  -3.160   2.632  0.00  0.00    +0.332 A 
ATOM      6  O   UNL     1       7.934  -3.081   3.399  0.00  0.00    -0.246 OA
ATOM      7  N   UNL     1       7.223  -3.293   1.313  0.00  0.00    -0.260 N 
ATOM      8  C   UNL     1       6.175  -3.388   0.432  0.00  0.00    +0.262 A 
ATOM      9  O   UNL     1       6.409  -3.527  -0.890  0.00  0.00    -0.267 OA
ATOM     10  O   UNL     1       3.547  -3.155   2.728  0.00  0.00    -0.267 OA
ENDROOT
BRANCH   1  21
ATOM     11  C   UNL     1      -0.016   1.361   0.009  0.00  0.00    +0.001 A 
ATOM     12  C   UNL     1       1.169   2.083   0.002  0.00  0.00    +0.002 A 
ATOM     13  C   UNL     1       2.385   1.435  -0.013  0.00  0.00    +0.026 A 
ATOM     14  C   UNL     1       2.428   0.045  -0.021  0.00  0.00    +0.047 A 
ATOM     15  C   UNL     1       1.222  -0.684  -0.013  0.00  0.00    +0.003 A 
ATOM     16  C   UNL     1       0.002  -0.004   0.002  0.00  0.00    +0.010 A 
ATOM     17  C   UNL     1       1.609  -2.088  -0.025  0.00  0.00    -0.022 A 
ATOM     18  C   UNL     1       2.957  -2.137  -0.037  0.00  0.00    +0.011 A 
ATOM     19  N   UNL     1       3.460  -0.869  -0.036  0.00  0.00    -0.359 N 
ATOM     20  H   UNL     1       4.404  -0.644  -0.045  0.00  0.00    +0.166 HD
ATOM     21  C   UNL     1       3.729  -3.436  -0.046  0.00  0.00    +0.018 C 
ATOM     22  N   UNL     1       2.830  -4.518   0.382  0.00  0.00    +0.388 N 
ATOM     23  C   UNL     1       1.605  -4.511  -0.429  0.00  0.00    -0.076 C 
ATOM     24  C   UNL     1       0.731  -3.313  -0.028  0.00  0.00    +0.018 C 
ATOM     25  H   UNL     1       3.298  -5.405   0.272  0.00  0.00    -0.084 HD
ATOM     26  H   UNL     1       2.589  -4.388   1.353  0.00  0.00    -0.084 HD
ENDBRANCH   1  21
BRANCH   7  27
ATOM     27  C   UNL     1       8.599  -3.342   0.815  0.00  0.00    +0.134 C 
BRANCH  27  28
ATOM     28  C   UNL     1       9.081  -4.794   0.787  0.00  0.00    +0.057 C 
BRANCH  28  29
ATOM     29  C   UNL     1      10.497  -4.844   0.274  0.00  0.00    -0.046 A 
ATOM     30  C   UNL     1      10.737  -4.975  -1.081  0.00  0.00    +0.006 A 
ATOM     31  C   UNL     1      12.035  -5.021  -1.552  0.00  0.00    +0.038 A 
ATOM     32  C   UNL     1      13.096  -4.935  -0.666  0.00  0.00    +0.123 A 
ATOM     33  C   UNL     1      12.854  -4.803   0.691  0.00  0.00    +0.038 A 
ATOM     34  C   UNL     1      11.555  -4.753   1.159  0.00  0.00    +0.006 A 
ATOM     35  F   UNL     1      14.366  -4.980  -1.126  0.00  0.00    -0.205 F 
ENDBRANCH  28  29
ENDBRANCH  27  28
ENDBRANCH   7  27
TORSDOF 4
