REMARK  Name = ZINC36032771
REMARK  14 active torsions:
REMARK  status: ('A' for Active; 'I' for Inactive)
REMARK    1  A    between atoms: C_1  and  C_2
REMARK    2  A    between atoms: C_2  and  C_3
REMARK    3  A    between atoms: C_3  and  C_5
REMARK    4  A    between atoms: C_3  and  C_6
REMARK    5  A    between atoms: C_6  and  N_7
REMARK    6  A    between atoms: C_10  and  C_30
REMARK    7  A    between atoms: N_16  and  C_19
REMARK    8  A    between atoms: C_19  and  N_21
REMARK    9  A    between atoms: N_21  and  C_22
REMARK   10  A    between atoms: C_25  and  O_28
REMARK   11  A    between atoms: O_28  and  C_29
REMARK   12  A    between atoms: C_30  and  C_31
REMARK   13  A    between atoms: C_31  and  C_32
REMARK   14  A    between atoms: C_31  and  C_33
REMARK                            x       y       z     vdW  Elec       q    Type
REMARK                         _______ _______ _______ _____ _____    ______ ____
ROOT
ATOM      1  N   UNL     1      -2.065  -2.728  -0.600  0.00  0.00    -0.313 N 
ATOM      2  C   UNL     1      -2.999  -3.010   0.331  0.00  0.00    +0.200 C 
ATOM      3  O   UNL     1      -2.845  -2.945   1.532  0.00  0.00    -0.277 OA
ATOM      4  C   UNL     1      -4.273  -3.421  -0.376  0.00  0.00    +0.019 C 
ATOM      5  N   UNL     1      -3.850  -3.739  -1.762  0.00  0.00    +0.401 N 
ATOM      6  C   UNL     1      -2.635  -2.913  -1.937  0.00  0.00    +0.006 C 
ATOM      7  C   UNL     1      -1.643  -3.643  -2.840  0.00  0.00    +0.025 C 
ATOM      8  C   UNL     1      -0.371  -2.801  -2.983  0.00  0.00    +0.107 C 
ATOM      9  N   UNL     1      -0.743  -1.456  -3.444  0.00  0.00    -0.312 N 
ATOM     10  C   UNL     1      -1.748  -0.701  -2.684  0.00  0.00    +0.107 C 
ATOM     11  C   UNL     1      -3.009  -1.561  -2.543  0.00  0.00    +0.025 C 
ATOM     12  H   UNL     1      -3.635  -4.721  -1.852  0.00  0.00    -0.082 HD
ATOM     13  H   UNL     1      -4.562  -3.466  -2.422  0.00  0.00    -0.082 HD
ENDROOT
BRANCH   9  14
ATOM     14  C   UNL     1      -0.174  -0.926  -4.545  0.00  0.00    +0.137 C 
ATOM     15  S   UNL     1       1.084  -1.766  -5.347  0.00  0.00    -0.018 S 
BRANCH  14  16
ATOM     16  N   UNL     1      -0.596   0.265  -5.014  0.00  0.00    -0.297 N 
ATOM     17  H   UNL     1      -1.205   0.301  -5.768  0.00  0.00    +0.154 HD
BRANCH  16  18
ATOM     18  C   UNL     1      -0.154   1.450  -4.413  0.00  0.00    +0.033 A 
ATOM     19  C   UNL     1       0.805   1.405  -3.410  0.00  0.00    +0.027 A 
ATOM     20  C   UNL     1       1.240   2.575  -2.818  0.00  0.00    +0.047 A 
ATOM     21  C   UNL     1       0.719   3.794  -3.225  0.00  0.00    +0.120 A 
ATOM     22  C   UNL     1      -0.240   3.840  -4.227  0.00  0.00    +0.047 A 
ATOM     23  C   UNL     1      -0.671   2.672  -4.824  0.00  0.00    +0.027 A 
BRANCH  21  24
ATOM     24  O   UNL     1       1.148   4.945  -2.642  0.00  0.00    -0.495 OA
ATOM     25  C   UNL     1       0.568   6.165  -3.110  0.00  0.00    +0.277 C 
ENDBRANCH  21  24
ENDBRANCH  16  18
ENDBRANCH  14  16
ENDBRANCH   9  14
BRANCH   1  26
ATOM     26  C   UNL     1      -0.693  -2.298  -0.318  0.00  0.00    +0.109 C 
BRANCH  26  27
ATOM     27  C   UNL     1       0.139  -3.503   0.126  0.00  0.00    +0.003 C 
ATOM     28  C   UNL     1      -0.063  -4.653  -0.862  0.00  0.00    +0.009 C 
BRANCH  27  30
ATOM     29  C   UNL     1       2.436  -4.279   0.726  0.00  0.00    +0.004 C 
ATOM     30  C   UNL     1       1.618  -3.115   0.163  0.00  0.00    +0.001 C 
ENDBRANCH  27  30
ENDBRANCH  26  27
ENDBRANCH   1  26
BRANCH   4  31
ATOM     31  C   UNL     1      -4.880  -4.656   0.294  0.00  0.00    -0.004 C 
BRANCH  31  32
ATOM     32  C   UNL     1      -6.181  -5.034  -0.416  0.00  0.00    -0.018 C 
ATOM     33  C   UNL     1      -6.739  -6.322   0.193  0.00  0.00    +0.007 C 
ATOM     34  C   UNL     1      -7.201  -3.906  -0.248  0.00  0.00    +0.007 C 
ENDBRANCH  31  32
ENDBRANCH   4  31
TORSDOF 9
