REMARK  Name = ZINC05944774
REMARK  10 active torsions:
REMARK  status: ('A' for Active; 'I' for Inactive)
REMARK    1  A    between atoms: C_1  and  C_2
REMARK    2  A    between atoms: C_2  and  C_3
REMARK    3  A    between atoms: C_2  and  C_4
REMARK    4  A    between atoms: C_7  and  O_11
REMARK    5  A    between atoms: O_11  and  C_12
REMARK    6  A    between atoms: C_12  and  C_13
REMARK    7  A    between atoms: N_15  and  N_16
REMARK    8  A    between atoms: C_17  and  C_18
REMARK    9  A    between atoms: C_17  and  C_19
REMARK   10  A    between atoms: C_22  and  N_25
REMARK                            x       y       z     vdW  Elec       q    Type
REMARK                         _______ _______ _______ _____ _____    ______ ____
ROOT
ATOM      1  C   UNL     1      -8.517  -0.810   0.306  0.00  0.00    +0.270 C 
ATOM      2  O   UNL     1      -8.949  -1.319  -0.708  0.00  0.00    -0.270 OA
ATOM      3  N   UNL     1      -9.008  -1.178   1.506  0.00  0.00    -0.204 N 
ATOM      4  H   UNL     1      -8.663  -0.772   2.316  0.00  0.00    +0.177 HD
ENDROOT
BRANCH   3   5
ATOM      5  N   UNL     1     -10.018  -2.147   1.583  0.00  0.00    -0.184 NA
ATOM      6  C   UNL     1     -10.572  -2.417   2.725  0.00  0.00    +0.063 C 
ATOM      7  C   UNL     1     -11.520  -3.583   2.845  0.00  0.00    +0.068 C 
BRANCH   6   8
ATOM      8  C   UNL     1     -10.273  -1.586   3.905  0.00  0.00    -0.002 A 
ATOM      9  C   UNL     1     -10.098  -0.206   3.763  0.00  0.00    +0.011 A 
ATOM     10  C   UNL     1      -9.820   0.568   4.867  0.00  0.00    +0.023 A 
ATOM     11  C   UNL     1      -9.713  -0.021   6.123  0.00  0.00    +0.025 A 
ATOM     12  C   UNL     1      -9.886  -1.393   6.268  0.00  0.00    +0.023 A 
ATOM     13  C   UNL     1     -10.171  -2.173   5.169  0.00  0.00    +0.011 A 
BRANCH  11  14
ATOM     14  N   UNL     1      -9.430   0.766   7.239  0.00  0.00    -0.358 N 
ATOM     15  H   UNL     1      -9.309   1.723   7.139  0.00  0.00    +0.142 HD
ATOM     16  H   UNL     1      -9.355   0.357   8.115  0.00  0.00    +0.142 HD
ENDBRANCH  11  14
ENDBRANCH   6   8
ENDBRANCH   3   5
BRANCH   1  17
ATOM     17  C   UNL     1      -7.431   0.231   0.223  0.00  0.00    +0.326 C 
BRANCH  17  18
ATOM     18  O   UNL     1      -7.081   0.447  -1.145  0.00  0.00    -0.482 OA
BRANCH  18  22
ATOM     19  C   UNL     1      -4.131   3.229  -1.908  0.00  0.00    -0.044 A 
ATOM     20  C   UNL     1      -4.518   2.972  -0.606  0.00  0.00    +0.007 A 
ATOM     21  C   UNL     1      -5.506   2.042  -0.348  0.00  0.00    +0.047 A 
ATOM     22  C   UNL     1      -6.110   1.364  -1.397  0.00  0.00    +0.135 A 
ATOM     23  C   UNL     1      -5.720   1.623  -2.703  0.00  0.00    +0.060 A 
ATOM     24  C   UNL     1      -4.735   2.559  -2.956  0.00  0.00    +0.022 A 
ATOM     25 BR   UNL     1      -6.540   0.701  -4.136  0.00  0.00    -0.047 Br
BRANCH  19  27
ATOM     26  C   UNL     1      -3.487   5.609  -1.648  0.00  0.00    +0.012 C 
ATOM     27  C   UNL     1      -3.053   4.245  -2.186  0.00  0.00    +0.013 C 
ATOM     28  C   UNL     1      -1.756   3.813  -1.497  0.00  0.00    +0.012 C 
ENDBRANCH  19  27
ENDBRANCH  18  22
ENDBRANCH  17  18
ENDBRANCH   1  17
TORSDOF 7
