REMARK  Name = ZINC22940581
REMARK  22 active torsions:
REMARK  status: ('A' for Active; 'I' for Inactive)
REMARK    1  A    between atoms: C_1  and  C_2
REMARK    2  A    between atoms: C_2  and  C_3
REMARK    3  A    between atoms: C_2  and  C_4
REMARK    4  A    between atoms: C_2  and  C_5
REMARK    5  A    between atoms: C_7  and  S_16
REMARK    6  A    between atoms: C_9  and  C_12
REMARK    7  A    between atoms: C_10  and  O_11
REMARK    8  A    between atoms: C_12  and  C_13
REMARK    9  A    between atoms: C_12  and  C_14
REMARK   10  A    between atoms: C_12  and  C_15
REMARK   11  A    between atoms: S_16  and  C_17
REMARK   12  A    between atoms: C_17  and  C_18
REMARK   13  A    between atoms: C_18  and  C_19
REMARK   14  A    between atoms: C_19  and  N_20
REMARK   15  A    between atoms: N_23  and  C_26
REMARK   16  A    between atoms: C_26  and  C_27
REMARK   17  A    between atoms: C_29  and  O_37
REMARK   18  A    between atoms: C_30  and  O_35
REMARK   19  A    between atoms: C_31  and  O_33
REMARK   20  A    between atoms: O_33  and  C_34
REMARK   21  A    between atoms: O_35  and  C_36
REMARK   22  A    between atoms: O_37  and  C_38
REMARK                            x       y       z     vdW  Elec       q    Type
REMARK                         _______ _______ _______ _____ _____    ______ ____
ROOT
ATOM      1  C   UNL     1       4.487   0.112  -7.909  0.00  0.00    -0.078 C 
ENDROOT
BRANCH   1   2
ATOM      2  N   UNL     1       5.072   0.969  -8.950  0.00  0.00    +0.381 N 
ATOM      3  C   UNL     1       6.187   1.737  -8.381  0.00  0.00    -0.063 C 
ATOM      4  C   UNL     1       6.784   2.644  -9.459  0.00  0.00    +0.066 C 
ATOM      5  N   UNL     1       7.256   1.820 -10.581  0.00  0.00    -0.302 NA
ATOM      6  C   UNL     1       6.156   1.026 -11.145  0.00  0.00    +0.066 C 
ATOM      7  C   UNL     1       5.564   0.133 -10.053  0.00  0.00    -0.063 C 
ATOM      8  H   UNL     1       4.369   1.604  -9.296  0.00  0.00    -0.082 HD
BRANCH   5   9
ATOM      9  C   UNL     1       7.889   2.651 -11.614  0.00  0.00    +0.119 C 
BRANCH   9  10
ATOM     10  C   UNL     1       8.574   1.764 -12.622  0.00  0.00    -0.026 A 
ATOM     11  C   UNL     1       9.892   1.394 -12.431  0.00  0.00    +0.054 A 
ATOM     12  C   UNL     1      10.526   0.579 -13.357  0.00  0.00    +0.165 A 
ATOM     13  C   UNL     1       9.834   0.133 -14.476  0.00  0.00    +0.204 A 
ATOM     14  C   UNL     1       8.509   0.507 -14.664  0.00  0.00    +0.165 A 
ATOM     15  C   UNL     1       7.881   1.319 -13.732  0.00  0.00    +0.054 A 
BRANCH  14  16
ATOM     16  O   UNL     1       7.828   0.074 -15.759  0.00  0.00    -0.491 OA
ATOM     17  C   UNL     1       6.469   0.498 -15.887  0.00  0.00    +0.277 C 
ENDBRANCH  14  16
BRANCH  13  18
ATOM     18  O   UNL     1      10.453  -0.667 -15.387  0.00  0.00    -0.488 OA
ATOM     19  C   UNL     1      10.366  -2.078 -15.176  0.00  0.00    +0.277 C 
ENDBRANCH  13  18
BRANCH  12  20
ATOM     20  O   UNL     1      11.823   0.215 -13.168  0.00  0.00    -0.491 OA
ATOM     21  C   UNL     1      12.472   0.711 -11.996  0.00  0.00    +0.277 C 
ENDBRANCH  12  20
ENDBRANCH   9  10
ENDBRANCH   5   9
ENDBRANCH   1   2
BRANCH   1  22
ATOM     22  C   UNL     1       3.864   0.986  -6.819  0.00  0.00    -0.008 C 
BRANCH  22  23
ATOM     23  C   UNL     1       3.255   0.094  -5.736  0.00  0.00    +0.072 C 
BRANCH  23  24
ATOM     24  S   UNL     1       2.516   1.131  -4.444  0.00  0.00    -0.125 S 
BRANCH  24  27
ATOM     25  C   UNL     1       0.707  -0.490  -1.238  0.00  0.00    +0.001 A 
ATOM     26  C   UNL     1       1.216   0.419  -2.144  0.00  0.00    +0.022 A 
ATOM     27  C   UNL     1       1.867  -0.029  -3.287  0.00  0.00    +0.009 A 
ATOM     28  C   UNL     1       2.005  -1.392  -3.516  0.00  0.00    +0.022 A 
ATOM     29  C   UNL     1       1.495  -2.300  -2.609  0.00  0.00    +0.001 A 
ATOM     30  C   UNL     1       0.850  -1.851  -1.466  0.00  0.00    +0.124 A 
BRANCH  25  32
ATOM     31  C   UNL     1      -0.019   1.526   0.010  0.00  0.00    +0.015 C 
ATOM     32  C   UNL     1       0.002  -0.004   0.002  0.00  0.00    -0.009 C 
ATOM     33  C   UNL     1       0.742  -0.511   1.242  0.00  0.00    +0.015 C 
ATOM     34  C   UNL     1      -1.433  -0.534   0.013  0.00  0.00    +0.015 C 
ENDBRANCH  25  32
BRANCH  29  35
ATOM     35  C   UNL     1       1.644  -3.778  -2.858  0.00  0.00    -0.009 C 
ATOM     36  C   UNL     1       2.392  -4.001  -4.175  0.00  0.00    +0.015 C 
ATOM     37  C   UNL     1       2.433  -4.412  -1.711  0.00  0.00    +0.015 C 
ATOM     38  C   UNL     1       0.260  -4.423  -2.943  0.00  0.00    +0.015 C 
ENDBRANCH  29  35
BRANCH  30  39
ATOM     39  O   UNL     1       0.354  -2.746  -0.570  0.00  0.00    -0.506 OA
ATOM     40  H   UNL     1      -0.559  -3.013  -0.746  0.00  0.00    +0.292 HD
ENDBRANCH  30  39
ENDBRANCH  24  27
ENDBRANCH  23  24
ENDBRANCH  22  23
ENDBRANCH   1  22
TORSDOF 13
