REMARK  Name = ZINC09359971
REMARK  1 active torsions:
REMARK  status: ('A' for Active; 'I' for Inactive)
REMARK    1  A    between atoms: C_6  and  N_7
REMARK                            x       y       z     vdW  Elec       q    Type
REMARK                         _______ _______ _______ _____ _____    ______ ____
ROOT
ATOM      1  N   UNL     1       4.060   0.009  -2.754  0.00  0.00    -0.210 N 
ATOM      2  C   UNL     1       3.849  -0.457  -1.479  0.00  0.00    +0.228 C 
ATOM      3  O   UNL     1       4.411  -1.376  -0.923  0.00  0.00    -0.275 OA
ATOM      4  C   UNL     1       2.813   0.393  -0.950  0.00  0.00    +0.074 C 
ATOM      5  C   UNL     1       2.264   0.797   0.377  0.00  0.00    -0.054 C 
ATOM      6  C   UNL     1       1.266  -0.306   0.842  0.00  0.00    -0.016 C 
ATOM      7  C   UNL     1       0.002  -0.004   0.002  0.00  0.00    -0.020 C 
ATOM      8  C   UNL     1      -0.019   1.541   0.011  0.00  0.00    -0.076 C 
ATOM      9  C   UNL     1       1.833   2.462  -1.331  0.00  0.00    +0.053 C 
ATOM     10  C   UNL     1       3.163   1.782  -1.613  0.00  0.00    +0.089 C 
ATOM     11  C   UNL     1       3.475   1.224  -2.977  0.00  0.00    +0.229 C 
ATOM     12  O   UNL     1       3.253   1.744  -4.049  0.00  0.00    -0.275 OA
ATOM     13  C   UNL     1       0.817   2.213  -2.405  0.00  0.00    -0.026 A 
ATOM     14  C   UNL     1       0.270   1.077  -2.963  0.00  0.00    +0.024 A 
ATOM     15  C   UNL     1      -0.677   1.173  -3.966  0.00  0.00    +0.041 A 
ATOM     16  C   UNL     1      -1.074   2.419  -4.421  0.00  0.00    +0.022 A 
ATOM     17  C   UNL     1      -0.520   3.560  -3.880  0.00  0.00    +0.025 A 
ATOM     18  C   UNL     1       0.435   3.470  -2.871  0.00  0.00    +0.036 A 
ATOM     19  N   UNL     1       1.139   4.470  -2.197  0.00  0.00    -0.286 N 
ATOM     20  C   UNL     1       1.989   3.964  -1.285  0.00  0.00    +0.212 C 
ATOM     21  O   UNL     1       2.736   4.593  -0.565  0.00  0.00    -0.277 OA
ATOM     22 CL   UNL     1      -1.367  -0.264  -4.652  0.00  0.00    -0.084 Cl
ATOM     23  H   UNL     1       1.029   5.418  -2.367  0.00  0.00    +0.155 HD
ATOM     24  N   UNL     1       1.413   1.956   0.024  0.00  0.00    +0.395 N 
ATOM     25  H   UNL     1       1.540   2.701   0.719  0.00  0.00    -0.079 HD
ENDROOT
BRANCH   1  31
ATOM     26  C   UNL     1       4.956  -0.151  -4.994  0.00  0.00    +0.027 A 
ATOM     27  C   UNL     1       5.685  -0.837  -5.946  0.00  0.00    +0.040 A 
ATOM     28  C   UNL     1       6.245  -2.065  -5.638  0.00  0.00    +0.124 A 
ATOM     29  C   UNL     1       6.082  -2.606  -4.373  0.00  0.00    +0.040 A 
ATOM     30  C   UNL     1       5.358  -1.920  -3.417  0.00  0.00    +0.027 A 
ATOM     31  C   UNL     1       4.795  -0.689  -3.724  0.00  0.00    +0.044 A 
ATOM     32  F   UNL     1       6.953  -2.737  -6.572  0.00  0.00    -0.205 F 
ENDBRANCH   1  31
TORSDOF 1
