REMARK  Name = ZINC01699550
REMARK  3 active torsions:
REMARK  status: ('A' for Active; 'I' for Inactive)
REMARK    1  A    between atoms: C_1  and  C_2
REMARK    2  A    between atoms: C_3  and  C_4
REMARK    3  A    between atoms: C_5  and  C_6
REMARK                            x       y       z     vdW  Elec       q    Type
REMARK                         _______ _______ _______ _____ _____    ______ ____
ROOT
ATOM      1  C   UNL     1      -0.018   1.503   0.010  0.00  0.00    +0.035 C 
ATOM      2  C   UNL     1       0.002  -0.004   0.002  0.00  0.00    -0.030 C 
ATOM      3  C   UNL     1       0.577  -0.655  -1.004  0.00  0.00    -0.005 C 
ENDROOT
BRANCH   3   4
ATOM      4  C   UNL     1       0.597  -2.126  -1.012  0.00  0.00    -0.005 C 
ATOM      5  C   UNL     1       1.171  -2.777  -2.017  0.00  0.00    -0.030 C 
ATOM      6  C   UNL     1       1.192  -4.284  -2.026  0.00  0.00    +0.035 C 
ENDBRANCH   3   4
TORSDOF 1
