REMARK  Name = ZINC00289871
REMARK  6 active torsions:
REMARK  status: ('A' for Active; 'I' for Inactive)
REMARK    1  A    between atoms: C_1  and  O_2
REMARK    2  A    between atoms: O_2  and  C_3
REMARK    3  A    between atoms: C_3  and  C_5
REMARK    4  A    between atoms: C_6  and  N_26
REMARK    5  A    between atoms: C_10  and  C_12
REMARK    6  A    between atoms: C_15  and  N_18
REMARK                            x       y       z     vdW  Elec       q    Type
REMARK                         _______ _______ _______ _____ _____    ______ ____
ROOT
ATOM      1  C   UNL     1      -0.944   6.230   1.346  0.00  0.00    +0.105 C 
ATOM      2  C   UNL     1      -2.065   6.941   1.055  0.00  0.00    +0.195 C 
ATOM      3  O   UNL     1      -2.576   6.959  -0.185  0.00  0.00    -0.446 OA
ATOM      4  C   UNL     1      -1.792   6.658  -1.238  0.00  0.00    +0.115 C 
ATOM      5  C   UNL     1      -0.669   5.933  -1.090  0.00  0.00    +0.045 C 
ATOM      6  C   UNL     1      -0.244   5.444   0.274  0.00  0.00    +0.097 C 
ATOM      7  C   UNL     1       0.142   5.605  -2.194  0.00  0.00    +0.163 C 
ATOM      8  O   UNL     1       1.156   4.960  -2.018  0.00  0.00    -0.292 OA
ATOM      9  C   UNL     1      -0.224   6.042  -3.586  0.00  0.00    +0.080 C 
ATOM     10  C   UNL     1      -1.747   6.183  -3.677  0.00  0.00    +0.016 C 
ATOM     11  C   UNL     1      -2.208   7.165  -2.599  0.00  0.00    +0.075 C 
ENDROOT
BRANCH   6  12
ATOM     12  C   UNL     1      -0.595   3.985   0.414  0.00  0.00    -0.035 A 
ATOM     13  C   UNL     1       0.401   3.052   0.636  0.00  0.00    +0.007 A 
ATOM     14  C   UNL     1       0.079   1.714   0.764  0.00  0.00    +0.033 A 
ATOM     15  C   UNL     1      -1.240   1.309   0.670  0.00  0.00    +0.126 A 
ATOM     16  C   UNL     1      -2.235   2.241   0.443  0.00  0.00    +0.033 A 
ATOM     17  C   UNL     1      -1.913   3.579   0.321  0.00  0.00    +0.007 A 
BRANCH  15  18
ATOM     18  N   UNL     1      -1.585  -0.124   0.808  0.00  0.00    +0.056 N 
ATOM     19  O   UNL     1      -0.707  -0.946   1.003  0.00  0.00    -0.126 OA
ATOM     20  O   UNL     1      -2.746  -0.481   0.725  0.00  0.00    -0.126 OA
ENDBRANCH  15  18
ENDBRANCH   6  12
BRANCH   2  21
ATOM     21  N   UNL     1      -2.684   7.654   2.046  0.00  0.00    -0.329 N 
ATOM     22  H   UNL     1      -2.154   8.146   2.693  0.00  0.00    +0.145 HD
ATOM     23  H   UNL     1      -3.652   7.666   2.102  0.00  0.00    +0.145 HD
ENDBRANCH   2  21
BRANCH   1  24
ATOM     24  C   UNL     1      -0.439   6.230   2.655  0.00  0.00    +0.341 C 
ATOM     25  O   UNL     1      -1.067   6.765   3.551  0.00  0.00    -0.245 OA
BRANCH  24  27
ATOM     26  C   UNL     1       1.199   5.674   4.276  0.00  0.00    +0.280 C 
ATOM     27  O   UNL     1       0.745   5.637   2.922  0.00  0.00    -0.465 OA
ENDBRANCH  24  27
ENDBRANCH   1  24
TORSDOF 5
