REMARK  Name = ZINC39066606
REMARK  1 active torsions:
REMARK  status: ('A' for Active; 'I' for Inactive)
REMARK    1  A    between atoms: C_5  and  C_10
REMARK                            x       y       z     vdW  Elec       q    Type
REMARK                         _______ _______ _______ _____ _____    ______ ____
ROOT
ATOM      1  C   UNL     1      -0.019   1.568   0.011  0.00  0.00    +0.019 C 
ATOM      2  C   UNL     1       1.549   1.681  -0.004  0.00  0.00    +0.016 C 
ATOM      3  C   UNL     1       1.876   0.891  -1.311  0.00  0.00    +0.060 C 
ATOM      4  C   UNL     1       0.829  -0.249  -1.323  0.00  0.00    +0.218 C 
ATOM      5  C   UNL     1       0.002  -0.004   0.002  0.00  0.00    +0.060 C 
ATOM      6  C   UNL     1       0.999  -0.258   1.139  0.00  0.00    -0.024 C 
ATOM      7  C   UNL     1       1.891   0.713   1.136  0.00  0.00    -0.027 C 
ATOM      8  F   UNL     1       1.460  -1.496  -1.277  0.00  0.00    -0.229 F 
ENDROOT
BRANCH   4   9
ATOM      9  C   UNL     1      -0.055  -0.144  -2.539  0.00  0.00    +0.393 C 
ATOM     10  O   UNL     1      -0.116  -1.071  -3.329  0.00  0.00    -0.243 OA
ATOM     11  O   UNL     1      -0.708   0.867  -2.733  0.00  0.00    -0.243 OA
ENDBRANCH   4   9
TORSDOF 1
