REMARK  Name = ZINC10263714
REMARK  8 active torsions:
REMARK  status: ('A' for Active; 'I' for Inactive)
REMARK    1  A    between atoms: C_1  and  C_2
REMARK    2  A    between atoms: C_5  and  C_8
REMARK    3  A    between atoms: C_11  and  S_14
REMARK    4  A    between atoms: N_12  and  C_13
REMARK    5  A    between atoms: S_14  and  C_15
REMARK    6  A    between atoms: C_15  and  C_16
REMARK    7  A    between atoms: C_25  and  O_28
REMARK    8  A    between atoms: C_26  and  C_27
REMARK                            x       y       z     vdW  Elec       q    Type
REMARK                         _______ _______ _______ _____ _____    ______ ____
ROOT
ATOM      1  C   UNL     1      -0.271  -4.750   0.632  0.00  0.00    +0.113 C 
ENDROOT
BRANCH   1   2
ATOM      2  C   UNL     1      -0.880  -6.116   0.817  0.00  0.00    -0.020 A 
ATOM      3  C   UNL     1      -1.284  -6.540   2.043  0.00  0.00    +0.097 A 
ATOM      4  C   UNL     1      -1.856  -7.821   2.189  0.00  0.00    +0.338 A 
ATOM      5  O   UNL     1      -2.218  -8.186   3.293  0.00  0.00    -0.245 OA
ATOM      6  O   UNL     1      -2.006  -8.649   1.144  0.00  0.00    -0.422 OA
ATOM      7  C   UNL     1      -1.621  -8.292  -0.100  0.00  0.00    +0.146 A 
ATOM      8  C   UNL     1      -1.047  -7.026  -0.319  0.00  0.00    +0.022 A 
ATOM      9  C   UNL     1      -0.646  -6.652  -1.606  0.00  0.00    +0.015 A 
ATOM     10  C   UNL     1      -0.813  -7.519  -2.647  0.00  0.00    +0.046 A 
ATOM     11  C   UNL     1      -1.381  -8.774  -2.437  0.00  0.00    +0.123 A 
ATOM     12  C   UNL     1      -1.784  -9.160  -1.169  0.00  0.00    +0.034 A 
ATOM     13  C   UNL     1      -2.396 -10.520  -0.952  0.00  0.00    +0.051 C 
BRANCH  11  14
ATOM     14  O   UNL     1      -1.540  -9.624  -3.482  0.00  0.00    -0.506 OA
ATOM     15  H   UNL     1      -2.389  -9.534  -3.937  0.00  0.00    +0.292 HD
ENDBRANCH  11  14
ENDBRANCH   1   2
BRANCH   1  16
ATOM     16  S   UNL     1      -1.577  -3.552   0.264  0.00  0.00    -0.081 S 
BRANCH  16  20
ATOM     17  C   UNL     1       0.031  -0.023  -0.211  0.00  0.00    +0.165 A 
ATOM     18  N   UNL     1       1.071  -0.781   0.046  0.00  0.00    -0.128 NA
ATOM     19  N   UNL     1       0.694  -1.996   0.230  0.00  0.00    -0.122 NA
ATOM     20  C   UNL     1      -0.611  -2.088   0.101  0.00  0.00    +0.192 A 
ATOM     21  N   UNL     1      -1.079  -0.836  -0.179  0.00  0.00    -0.305 N 
ATOM     22  C   UNL     1      -2.472  -0.441  -0.401  0.00  0.00    +0.153 C 
BRANCH  17  27
ATOM     23  C   UNL     1       0.096   5.637  -1.249  0.00  0.00    +0.044 C 
ATOM     24  C   UNL     1       0.079   4.155  -0.977  0.00  0.00    -0.050 A 
ATOM     25  C   UNL     1       1.159   3.556  -0.354  0.00  0.00    +0.004 A 
ATOM     26  C   UNL     1       1.150   2.200  -0.102  0.00  0.00    +0.012 A 
ATOM     27  C   UNL     1       0.048   1.431  -0.478  0.00  0.00    +0.019 A 
ATOM     28  C   UNL     1      -1.037   2.040  -1.112  0.00  0.00    +0.012 A 
ATOM     29  C   UNL     1      -1.017   3.398  -1.353  0.00  0.00    +0.004 A 
ENDBRANCH  17  27
ENDBRANCH  16  20
ENDBRANCH   1  16
TORSDOF 5
