REMARK  Name = ZINC38564068
REMARK  6 active torsions:
REMARK  status: ('A' for Active; 'I' for Inactive)
REMARK    1  A    between atoms: C_4  and  C_7
REMARK    2  A    between atoms: C_7  and  C_9
REMARK    3  A    between atoms: C_7  and  O_34
REMARK    4  A    between atoms: C_9  and  N_10
REMARK    5  A    between atoms: C_11  and  C_13
REMARK    6  A    between atoms: C_25  and  C_27
REMARK                            x       y       z     vdW  Elec       q    Type
REMARK                         _______ _______ _______ _____ _____    ______ ____
ROOT
ATOM      1  C   UNL     1       7.165  -2.979   2.479  0.00  0.00    +0.126 C 
ATOM      2  C   UNL     1       7.706  -3.384   3.701  0.00  0.00    +0.039 C 
ATOM      3  C   UNL     1       8.932  -4.031   3.640  0.00  0.00    -0.008 C 
ATOM      4  C   UNL     1       9.925  -4.291   4.545  0.00  0.00    +0.004 A 
ATOM      5  C   UNL     1       9.962  -4.221   5.957  0.00  0.00    +0.010 A 
ATOM      6  C   UNL     1      11.153  -4.506   6.558  0.00  0.00    +0.001 A 
ATOM      7  C   UNL     1      12.305  -4.855   5.852  0.00  0.00    +0.002 A 
ATOM      8  C   UNL     1      12.350  -4.966   4.496  0.00  0.00    +0.026 A 
ATOM      9  C   UNL     1      11.141  -4.706   3.790  0.00  0.00    +0.044 A 
ATOM     10  N   UNL     1      10.882  -4.795   2.509  0.00  0.00    -0.372 N 
ATOM     11  C   UNL     1       9.464  -4.579   2.325  0.00  0.00    +0.160 C 
ATOM     12  C   UNL     1       9.007  -3.702   1.215  0.00  0.00    +0.077 C 
ATOM     13  N   UNL     1       7.879  -3.042   1.346  0.00  0.00    -0.244 NA
ATOM     14  H   UNL     1      11.527  -4.975   1.807  0.00  0.00    +0.161 HD
ENDROOT
BRANCH  12  15
ATOM     15  C   UNL     1       9.803  -3.579  -0.012  0.00  0.00    +0.017 A 
ATOM     16  C   UNL     1      10.394  -2.354  -0.349  0.00  0.00    +0.011 A 
ATOM     17  C   UNL     1      11.140  -2.248  -1.502  0.00  0.00    +0.001 A 
ATOM     18  C   UNL     1      11.307  -3.347  -2.329  0.00  0.00    +0.001 A 
ATOM     19  C   UNL     1      10.728  -4.561  -2.005  0.00  0.00    +0.020 A 
ATOM     20  C   UNL     1       9.982  -4.688  -0.850  0.00  0.00    +0.050 A 
ATOM     21 CL   UNL     1       9.262  -6.214  -0.441  0.00  0.00    -0.083 Cl
ENDBRANCH  12  15
BRANCH   1  23
ATOM     22  N   UNL     1       5.237  -2.087   1.260  0.00  0.00    -0.307 N 
ATOM     23  C   UNL     1       5.774  -2.475   2.433  0.00  0.00    +0.262 C 
ATOM     24  O   UNL     1       5.116  -2.413   3.453  0.00  0.00    -0.269 OA
ATOM     25  H   UNL     1       5.762  -2.136   0.446  0.00  0.00    +0.149 HD
BRANCH  22  26
ATOM     26  C   UNL     1       3.860  -1.589   1.214  0.00  0.00    +0.140 C 
BRANCH  26  27
ATOM     27  C   UNL     1       3.499  -1.218  -0.226  0.00  0.00    +0.162 C 
BRANCH  27  31
ATOM     28  C   UNL     1      -0.385   0.557  -0.312  0.00  0.00    +0.000 A 
ATOM     29  C   UNL     1       0.741   1.357  -0.350  0.00  0.00    +0.000 A 
ATOM     30  C   UNL     1       1.998   0.783  -0.322  0.00  0.00    +0.006 A 
ATOM     31  C   UNL     1       2.129  -0.591  -0.256  0.00  0.00    -0.018 A 
ATOM     32  C   UNL     1       1.002  -1.392  -0.217  0.00  0.00    +0.006 A 
ATOM     33  C   UNL     1      -0.255  -0.818  -0.246  0.00  0.00    +0.000 A 
ENDBRANCH  27  31
BRANCH  27  34
ATOM     34  O   UNL     1       3.503  -2.395  -1.036  0.00  0.00    -0.386 OA
ATOM     35  H   UNL     1       2.874  -3.071  -0.750  0.00  0.00    +0.210 HD
ENDBRANCH  27  34
ENDBRANCH  26  27
ENDBRANCH  22  26
ENDBRANCH   1  23
TORSDOF 6
