REMARK  Name = ZINC13575552
REMARK  9 active torsions:
REMARK  status: ('A' for Active; 'I' for Inactive)
REMARK    1  A    between atoms: C_1  and  N_60
REMARK    2  A    between atoms: C_2  and  N_60
REMARK    3  A    between atoms: C_3  and  C_4
REMARK    4  A    between atoms: C_3  and  N_60
REMARK    5  A    between atoms: C_4  and  C_5
REMARK    6  A    between atoms: C_5  and  N_6
REMARK    7  A    between atoms: C_12  and  C_25
REMARK    8  A    between atoms: C_30  and  O_31
REMARK    9  A    between atoms: O_31  and  C_32
REMARK                            x       y       z     vdW  Elec       q    Type
REMARK                         _______ _______ _______ _____ _____    ______ ____
ROOT
ATOM      1  N   UNL     1       0.021  -0.744   0.078  0.00  0.00    -0.318 N 
ATOM      2  C   UNL     1      -0.051  -1.751  -0.828  0.00  0.00    +0.204 A 
ATOM      3  N   UNL     1       0.006  -3.000  -0.466  0.00  0.00    -0.202 NA
ATOM      4  C   UNL     1       0.139  -3.364   0.823  0.00  0.00    +0.229 A 
ATOM      5  C   UNL     1       0.216  -2.411   1.793  0.00  0.00    +0.066 A 
ATOM      6  C   UNL     1       0.162  -1.048   1.419  0.00  0.00    +0.115 A 
ATOM      7  C   UNL     1       0.362  -2.784   3.240  0.00  0.00    +0.095 C 
ATOM      8  C   UNL     1      -0.022  -4.226   3.454  0.00  0.00    +0.008 A 
ATOM      9  C   UNL     1      -0.310  -4.665   4.747  0.00  0.00    +0.009 A 
ATOM     10  C   UNL     1      -0.661  -5.955   4.995  0.00  0.00    +0.009 A 
ATOM     11  C   UNL     1      -0.739  -6.872   3.933  0.00  0.00    -0.014 A 
ATOM     12  C   UNL     1      -1.100  -8.213   4.150  0.00  0.00    +0.008 A 
ATOM     13  C   UNL     1      -1.166  -9.070   3.095  0.00  0.00    +0.001 A 
ATOM     14  C   UNL     1      -0.881  -8.639   1.801  0.00  0.00    +0.001 A 
ATOM     15  C   UNL     1      -0.528  -7.348   1.555  0.00  0.00    +0.012 A 
ATOM     16  C   UNL     1      -0.449  -6.434   2.618  0.00  0.00    +0.025 A 
ATOM     17  C   UNL     1      -0.085  -5.087   2.397  0.00  0.00    +0.142 A 
ATOM     18  O   UNL     1       0.195  -4.676   1.139  0.00  0.00    -0.437 OA
ATOM     19  H   UNL     1       0.206   0.865   2.151  0.00  0.00    +0.157 HD
ATOM     20  N   UNL     1       0.245  -0.127   2.386  0.00  0.00    -0.384 N 
ATOM     21  H   UNL     1       0.348  -0.419   3.365  0.00  0.00    +0.157 HD
ENDROOT
BRANCH   7  22
ATOM     22  C   UNL     1       1.793  -2.582   3.665  0.00  0.00    +0.006 A 
ATOM     23  C   UNL     1       2.806  -3.282   3.039  0.00  0.00    +0.008 A 
ATOM     24  C   UNL     1       4.120  -3.093   3.425  0.00  0.00    +0.001 A 
ATOM     25  C   UNL     1       4.423  -2.211   4.446  0.00  0.00    +0.004 A 
ATOM     26  C   UNL     1       3.413  -1.512   5.079  0.00  0.00    +0.046 A 
ATOM     27  C   UNL     1       2.095  -1.696   4.690  0.00  0.00    +0.124 A 
BRANCH  27  28
ATOM     28  O   UNL     1       1.099  -1.010   5.311  0.00  0.00    -0.495 OA
ATOM     29  C   UNL     1       1.483  -0.115   6.357  0.00  0.00    +0.277 C 
ENDBRANCH  27  28
ENDBRANCH   7  22
BRANCH   1  30
ATOM     30  C   UNL     1      -0.043   0.652  -0.361  0.00  0.00    +0.123 C 
BRANCH  30  31
ATOM     31  C   UNL     1       1.376   1.198  -0.533  0.00  0.00    +0.003 C 
BRANCH  31  32
ATOM     32  C   UNL     1       1.309   2.656  -0.991  0.00  0.00    -0.078 C 
BRANCH  32  35
ATOM     33  C   UNL     1       3.368   2.500  -2.256  0.00  0.00    -0.097 C 
ATOM     34  C   UNL     1       2.655   4.635  -1.363  0.00  0.00    -0.097 C 
ATOM     35  N   UNL     1       2.686   3.175  -1.132  0.00  0.00    +0.376 N 
ATOM     36  H   UNL     1       3.204   2.986  -0.266  0.00  0.00    -0.083 HD
ENDBRANCH  32  35
ENDBRANCH  31  32
ENDBRANCH  30  31
ENDBRANCH   1  30
TORSDOF 6
