REMARK  Name = ZINC10795052
REMARK  12 active torsions:
REMARK  status: ('A' for Active; 'I' for Inactive)
REMARK    1  A    between atoms: C_1  and  C_2
REMARK    2  A    between atoms: C_2  and  O_3
REMARK    3  A    between atoms: O_3  and  C_4
REMARK    4  A    between atoms: C_4  and  C_6
REMARK    5  A    between atoms: C_10  and  N_11
REMARK    6  A    between atoms: C_12  and  C_14
REMARK    7  A    between atoms: C_14  and  C_16
REMARK    8  A    between atoms: C_14  and  O_17
REMARK    9  A    between atoms: O_17  and  C_18
REMARK   10  A    between atoms: C_18  and  C_20
REMARK   11  A    between atoms: C_23  and  S_26
REMARK   12  A    between atoms: S_26  and  N_29
REMARK                            x       y       z     vdW  Elec       q    Type
REMARK                         _______ _______ _______ _____ _____    ______ ____
ROOT
ATOM      1  N   UNL     1       3.704  -6.126  -0.987  0.00  0.00    -0.276 N 
ATOM      2  C   UNL     1       3.587  -4.802  -0.767  0.00  0.00    +0.258 C 
ATOM      3  O   UNL     1       4.452  -4.044  -1.153  0.00  0.00    -0.271 OA
ATOM      4  H   UNL     1       3.012  -6.732  -0.679  0.00  0.00    +0.155 HD
ENDROOT
BRANCH   1   9
ATOM      5  C   UNL     1       5.113  -7.942  -1.967  0.00  0.00    +0.091 A 
ATOM      6  C   UNL     1       6.352  -8.197  -2.683  0.00  0.00    -0.021 A 
ATOM      7  C   UNL     1       7.092  -7.102  -2.960  0.00  0.00    -0.004 A 
ATOM      8  S   UNL     1       6.166  -5.748  -2.293  0.00  0.00    -0.077 S 
ATOM      9  C   UNL     1       4.813  -6.622  -1.654  0.00  0.00    +0.086 A 
ATOM     10  C   UNL     1       8.407  -7.057  -3.675  0.00  0.00    +0.043 C 
ATOM     11  C   UNL     1       8.980  -8.482  -3.722  0.00  0.00    +0.005 C 
ATOM     12  C   UNL     1       7.881  -9.440  -4.192  0.00  0.00    +0.005 C 
ATOM     13  C   UNL     1       6.818  -9.585  -3.103  0.00  0.00    +0.037 C 
BRANCH   5  14
ATOM     14  C   UNL     1       4.213  -9.035  -1.593  0.00  0.00    +0.342 C 
ATOM     15  O   UNL     1       3.333  -9.386  -2.356  0.00  0.00    -0.245 OA
BRANCH  14  16
ATOM     16  O   UNL     1       4.360  -9.652  -0.402  0.00  0.00    -0.461 OA
BRANCH  16  18
ATOM     17  C   UNL     1       3.752 -11.300   1.284  0.00  0.00    +0.048 C 
ATOM     18  C   UNL     1       3.432 -10.726  -0.098  0.00  0.00    +0.229 C 
ENDBRANCH  16  18
ENDBRANCH  14  16
ENDBRANCH   5  14
ENDBRANCH   1   9
BRANCH   2  19
ATOM     19  C   UNL     1       2.381  -4.262  -0.043  0.00  0.00    +0.259 C 
ATOM     20  C   UNL     1       2.377  -4.779   1.397  0.00  0.00    +0.062 C 
BRANCH  19  21
ATOM     21  O   UNL     1       2.429  -2.811  -0.036  0.00  0.00    -0.449 OA
BRANCH  21  22
ATOM     22  C   UNL     1       1.250  -2.159  -0.021  0.00  0.00    +0.340 C 
ATOM     23  O   UNL     1       0.210  -2.787  -0.014  0.00  0.00    -0.245 OA
BRANCH  22  24
ATOM     24  C   UNL     1       1.222  -0.682  -0.013  0.00  0.00    +0.059 A 
ATOM     25  C   UNL     1       0.002  -0.004   0.002  0.00  0.00    +0.017 A 
ATOM     26  C   UNL     1      -0.017   1.375   0.010  0.00  0.00    +0.029 A 
ATOM     27  C   UNL     1       1.170   2.086   0.002  0.00  0.00    +0.105 A 
ATOM     28  C   UNL     1       2.383   1.421  -0.013  0.00  0.00    +0.029 A 
ATOM     29  C   UNL     1       2.416   0.042  -0.021  0.00  0.00    +0.017 A 
BRANCH  27  30
ATOM     30  S   UNL     1       1.137   3.848   0.012  0.00  0.00    +0.056 S 
ATOM     31  O   UNL     1       2.369   4.281  -0.548  0.00  0.00    -0.153 OA
ATOM     32  O   UNL     1      -0.121   4.234  -0.525  0.00  0.00    -0.153 OA
BRANCH  30  33
ATOM     33  N   UNL     1       1.143   4.329   1.596  0.00  0.00    -0.204 NA
ATOM     34  H   UNL     1       1.162   3.666   2.304  0.00  0.00    +0.144 HD
ATOM     35  H   UNL     1       1.127   5.274   1.817  0.00  0.00    +0.144 HD
ENDBRANCH  30  33
ENDBRANCH  27  30
ENDBRANCH  22  24
ENDBRANCH  21  22
ENDBRANCH  19  21
ENDBRANCH   2  19
TORSDOF 10
