REMARK  Name = ZINC19874765
REMARK  4 active torsions:
REMARK  status: ('A' for Active; 'I' for Inactive)
REMARK    1  A    between atoms: C_1  and  C_2
REMARK    2  A    between atoms: N_14  and  C_17
REMARK    3  A    between atoms: C_17  and  C_19
REMARK    4  A    between atoms: C_17  and  C_20
REMARK                            x       y       z     vdW  Elec       q    Type
REMARK                         _______ _______ _______ _____ _____    ______ ____
ROOT
ATOM      1  C   UNL     1      -0.019   1.526   0.010  0.00  0.00    +0.021 C 
ATOM      2  C   UNL     1       0.002  -0.004   0.002  0.00  0.00    +0.071 C 
ATOM      3  C   UNL     1      -1.423  -0.591   0.126  0.00  0.00    +0.139 C 
ATOM      4  N   UNL     1      -1.444  -1.825   0.921  0.00  0.00    -0.309 N 
ATOM      5  C   UNL     1      -2.428  -2.803   0.865  0.00  0.00    +0.111 A 
ATOM      6  C   UNL     1      -2.377  -3.885   1.681  0.00  0.00    +0.069 A 
ATOM      7  C   UNL     1      -1.309  -4.007   2.596  0.00  0.00    +0.258 A 
ATOM      8  O   UNL     1      -1.254  -4.955   3.366  0.00  0.00    -0.267 OA
ATOM      9  N   UNL     1      -0.355  -3.063   2.602  0.00  0.00    -0.303 N 
ATOM     10  C   UNL     1      -0.412  -2.032   1.795  0.00  0.00    +0.151 A 
ATOM     11  S   UNL     1       0.725  -0.678   1.556  0.00  0.00    -0.085 S 
ATOM     12  C   UNL     1      -3.433  -4.956   1.627  0.00  0.00    +0.130 C 
ATOM     13  N   UNL     1      -4.653  -4.436   0.996  0.00  0.00    -0.276 NA
ATOM     14  C   UNL     1      -4.338  -3.800  -0.295  0.00  0.00    +0.191 C 
ATOM     15  N   UNL     1      -3.464  -2.647  -0.030  0.00  0.00    -0.317 N 
ATOM     16  H   UNL     1      -3.614  -1.798  -0.474  0.00  0.00    +0.149 HD
ATOM     17  H   UNL     1       0.392  -3.146   3.216  0.00  0.00    +0.171 HD
ENDROOT
BRANCH  13  18
ATOM     18  C   UNL     1      -5.653  -5.499   0.829  0.00  0.00    +0.086 C 
ATOM     19  C   UNL     1      -6.017  -6.077   2.198  0.00  0.00    +0.029 C 
BRANCH  18  20
ATOM     20  C   UNL     1      -6.888  -4.928   0.181  0.00  0.00    -0.030 A 
ATOM     21  C   UNL     1      -7.344  -3.675   0.545  0.00  0.00    +0.005 A 
ATOM     22  C   UNL     1      -8.477  -3.152  -0.050  0.00  0.00    +0.000 A 
ATOM     23  C   UNL     1      -9.154  -3.882  -1.009  0.00  0.00    +0.000 A 
ATOM     24  C   UNL     1      -8.698  -5.135  -1.374  0.00  0.00    +0.000 A 
ATOM     25  C   UNL     1      -7.562  -5.656  -0.782  0.00  0.00    +0.005 A 
ENDBRANCH  18  20
ENDBRANCH  13  18
TORSDOF 2
