REMARK  Name = ZINC63074550
REMARK  4 active torsions:
REMARK  status: ('A' for Active; 'I' for Inactive)
REMARK    1  A    between atoms: C_1  and  C_2
REMARK    2  A    between atoms: C_2  and  C_19
REMARK    3  A    between atoms: C_13  and  C_15
REMARK    4  A    between atoms: C_15  and  C_16
REMARK                            x       y       z     vdW  Elec       q    Type
REMARK                         _______ _______ _______ _____ _____    ______ ____
ROOT
ATOM      1  C   UNL     1      -1.917  -2.563  -0.584  0.00  0.00    +0.031 C 
ATOM      2  C   UNL     1      -2.429  -3.420   0.575  0.00  0.00    +0.033 C 
ATOM      3  C   UNL     1      -2.708  -4.856   0.083  0.00  0.00    +0.027 C 
ATOM      4  C   UNL     1      -1.417  -5.618   0.483  0.00  0.00    +0.021 C 
ATOM      5  C   UNL     1      -1.051  -4.928   1.821  0.00  0.00    +0.110 C 
ATOM      6  N   UNL     1      -1.402  -3.510   1.623  0.00  0.00    -0.280 N 
ATOM      7  C   UNL     1      -0.869  -2.468   2.291  0.00  0.00    +0.305 C 
ATOM      8  O   UNL     1      -1.234  -1.335   2.043  0.00  0.00    -0.252 OA
ATOM      9  N   UNL     1       0.069  -2.681   3.236  0.00  0.00    -0.282 N 
ATOM     10  C   UNL     1       0.840  -3.925   3.415  0.00  0.00    +0.110 C 
ATOM     11  C   UNL     1       2.136  -3.487   4.141  0.00  0.00    +0.021 C 
ATOM     12  C   UNL     1       1.601  -2.385   5.094  0.00  0.00    +0.024 C 
ATOM     13  C   UNL     1       0.497  -1.710   4.253  0.00  0.00    +0.088 C 
ATOM     14  C   UNL     1      -3.707  -2.806   1.150  0.00  0.00    +0.031 C 
ENDROOT
BRANCH  13  15
ATOM     15  C   UNL     1      -0.686  -1.343   5.152  0.00  0.00    +0.147 C 
BRANCH  15  16
ATOM     16  C   UNL     1      -1.704  -0.572   4.352  0.00  0.00    +0.358 C 
ATOM     17  O   UNL     1      -1.364   0.413   3.720  0.00  0.00    -0.246 OA
ATOM     18  O   UNL     1      -2.868  -0.934   4.337  0.00  0.00    -0.246 OA
ENDBRANCH  15  16
ENDBRANCH  13  15
TORSDOF 2
