REMARK  Name = ZINC46841380
REMARK  11 active torsions:
REMARK  status: ('A' for Active; 'I' for Inactive)
REMARK    1  A    between atoms: C_1  and  C_2
REMARK    2  A    between atoms: C_2  and  N_3
REMARK    3  A    between atoms: N_3  and  C_4
REMARK    4  A    between atoms: N_3  and  S_6
REMARK    5  A    between atoms: C_4  and  C_5
REMARK    6  A    between atoms: S_6  and  C_9
REMARK    7  A    between atoms: C_13  and  C_15
REMARK    8  A    between atoms: N_17  and  C_18
REMARK    9  A    between atoms: C_18  and  C_19
REMARK   10  A    between atoms: C_27  and  C_34
REMARK   11  A    between atoms: C_30  and  C_33
REMARK                            x       y       z     vdW  Elec       q    Type
REMARK                         _______ _______ _______ _____ _____    ______ ____
ROOT
ATOM      1  C   UNL     1       1.490   2.333  -6.307  0.00  0.00    +0.246 C 
ATOM      2  O   UNL     1       1.393   3.349  -6.966  0.00  0.00    -0.270 OA
ATOM      3  N   UNL     1       2.535   1.503  -6.498  0.00  0.00    -0.307 N 
ATOM      4  H   UNL     1       2.613   0.692  -5.972  0.00  0.00    +0.149 HD
ENDROOT
BRANCH   1   9
ATOM      5  C   UNL     1      -0.392   0.540  -3.597  0.00  0.00    +0.106 A 
ATOM      6  C   UNL     1      -1.464   1.393  -3.403  0.00  0.00    +0.030 A 
ATOM      7  C   UNL     1      -1.579   2.551  -4.150  0.00  0.00    +0.022 A 
ATOM      8  C   UNL     1      -0.622   2.863  -5.096  0.00  0.00    +0.053 A 
ATOM      9  C   UNL     1       0.463   2.006  -5.297  0.00  0.00    +0.057 A 
ATOM     10  C   UNL     1       0.574   0.842  -4.534  0.00  0.00    +0.043 A 
ATOM     11 CL   UNL     1      -0.767   4.317  -6.034  0.00  0.00    -0.083 Cl
BRANCH   5  12
ATOM     12  S   UNL     1      -0.256  -0.933  -2.640  0.00  0.00    +0.061 S 
ATOM     13  O   UNL     1       0.551  -1.832  -3.388  0.00  0.00    -0.153 OA
ATOM     14  O   UNL     1      -1.571  -1.264  -2.215  0.00  0.00    -0.153 OA
BRANCH  12  15
ATOM     15  N   UNL     1       0.600  -0.553  -1.274  0.00  0.00    -0.177 NA
BRANCH  15  17
ATOM     16  C   UNL     1      -0.121   1.435  -0.045  0.00  0.00    +0.022 C 
ATOM     17  C   UNL     1      -0.102  -0.095  -0.073  0.00  0.00    +0.106 C 
ENDBRANCH  15  17
BRANCH  15  18
ATOM     18  C   UNL     1       2.060  -0.674  -1.268  0.00  0.00    +0.106 C 
ATOM     19  C   UNL     1       2.457  -2.036  -0.696  0.00  0.00    +0.022 C 
ENDBRANCH  15  18
ENDBRANCH  12  15
ENDBRANCH   5  12
ENDBRANCH   1   9
BRANCH   3  20
ATOM     20  C   UNL     1       3.554   1.827  -7.500  0.00  0.00    +0.141 C 
BRANCH  20  21
ATOM     21  C   UNL     1       4.605   0.747  -7.514  0.00  0.00    -0.014 A 
ATOM     22  C   UNL     1       5.717   0.839  -6.688  0.00  0.00    +0.010 A 
ATOM     23  C   UNL     1       6.658  -0.173  -6.732  0.00  0.00    +0.042 A 
ATOM     24  C   UNL     1       6.460  -1.244  -7.599  0.00  0.00    +0.099 A 
ATOM     25  N   UNL     1       5.386  -1.295  -8.372  0.00  0.00    -0.349 N 
ATOM     26  C   UNL     1       4.470  -0.346  -8.346  0.00  0.00    +0.089 A 
ATOM     27  N   UNL     1       7.398  -2.268  -7.654  0.00  0.00    -0.312 N 
ATOM     28  C   UNL     1       7.157  -3.473  -8.464  0.00  0.00    +0.137 C 
ATOM     29  C   UNL     1       8.386  -3.713  -9.350  0.00  0.00    +0.133 C 
ATOM     30  O   UNL     1       9.560  -3.721  -8.534  0.00  0.00    -0.371 OA
ATOM     31  C   UNL     1       9.816  -2.483  -7.866  0.00  0.00    +0.133 C 
ATOM     32  C   UNL     1       8.664  -2.177  -6.909  0.00  0.00    +0.137 C 
ATOM     33  C   UNL     1      11.124  -2.589  -7.078  0.00  0.00    +0.039 C 
ATOM     34  C   UNL     1       8.492  -2.596 -10.390  0.00  0.00    +0.039 C 
ATOM     35  H   UNL     1       5.269  -2.051  -8.969  0.00  0.00    +0.167 HD
ENDBRANCH  20  21
ENDBRANCH   3  20
TORSDOF 7
