REMARK  Name = ZINC05072146
REMARK  5 active torsions:
REMARK  status: ('A' for Active; 'I' for Inactive)
REMARK    1  A    between atoms: C_1  and  O_2
REMARK    2  A    between atoms: O_2  and  C_3
REMARK    3  A    between atoms: C_6  and  C_9
REMARK    4  A    between atoms: C_11  and  C_23
REMARK    5  A    between atoms: C_12  and  C_17
REMARK                            x       y       z     vdW  Elec       q    Type
REMARK                         _______ _______ _______ _____ _____    ______ ____
ROOT
ATOM      1  C   UNL     1      -4.840  -2.657   0.013  0.00  0.00    +0.140 C 
ATOM      2  C   UNL     1      -5.056  -3.040  -1.437  0.00  0.00    +0.041 C 
ATOM      3  C   UNL     1      -5.438  -4.318  -1.702  0.00  0.00    +0.051 C 
ATOM      4  N   UNL     1      -5.620  -5.228  -0.678  0.00  0.00    -0.268 N 
ATOM      5  C   UNL     1      -5.440  -4.929   0.615  0.00  0.00    +0.305 C 
ATOM      6  O   UNL     1      -5.623  -5.795   1.448  0.00  0.00    -0.252 OA
ATOM      7  N   UNL     1      -5.061  -3.704   1.024  0.00  0.00    -0.288 N 
ATOM      8  H   UNL     1      -5.892  -6.130  -0.907  0.00  0.00    +0.156 HD
ATOM      9  H   UNL     1      -4.937  -3.514   1.967  0.00  0.00    +0.151 HD
ENDROOT
BRANCH   2  10
ATOM     10  C   UNL     1      -4.862  -2.070  -2.512  0.00  0.00    +0.139 A 
ATOM     11  N   UNL     1      -5.540  -0.883  -2.639  0.00  0.00    -0.338 N 
ATOM     12  H   UNL     1      -6.223  -0.542  -2.040  0.00  0.00    +0.167 HD
ATOM     13  C   UNL     1      -5.066  -0.262  -3.781  0.00  0.00    +0.066 A 
ATOM     14  C   UNL     1      -5.361   0.936  -4.415  0.00  0.00    +0.028 A 
ATOM     15  C   UNL     1      -4.696   1.282  -5.573  0.00  0.00    +0.002 A 
ATOM     16  C   UNL     1      -3.732   0.440  -6.110  0.00  0.00    +0.002 A 
ATOM     17  C   UNL     1      -3.426  -0.752  -5.495  0.00  0.00    +0.030 A 
ATOM     18  C   UNL     1      -4.090  -1.120  -4.320  0.00  0.00    +0.089 A 
ATOM     19  N   UNL     1      -4.006  -2.198  -3.505  0.00  0.00    -0.228 NA
ENDBRANCH   2  10
BRANCH   1  23
ATOM     20  C   UNL     1      -0.821  -1.264   0.420  0.00  0.00    +0.120 A 
ATOM     21  C   UNL     1      -1.855  -0.357   0.242  0.00  0.00    +0.046 A 
ATOM     22  C   UNL     1      -3.154  -0.810   0.110  0.00  0.00    +0.009 A 
ATOM     23  C   UNL     1      -3.423  -2.166   0.156  0.00  0.00    -0.022 A 
ATOM     24  C   UNL     1      -2.393  -3.071   0.334  0.00  0.00    +0.009 A 
ATOM     25  C   UNL     1      -1.092  -2.624   0.460  0.00  0.00    +0.046 A 
BRANCH  20  27
ATOM     26  C   UNL     1       0.663   0.592   0.498  0.00  0.00    +0.277 C 
ATOM     27  O   UNL     1       0.458  -0.821   0.549  0.00  0.00    -0.495 OA
ENDBRANCH  20  27
ENDBRANCH   1  23
BRANCH   3  28
ATOM     28  C   UNL     1      -5.660  -4.737  -3.100  0.00  0.00    -0.003 A 
ATOM     29  C   UNL     1      -5.089  -5.919  -3.577  0.00  0.00    +0.010 A 
ATOM     30  C   UNL     1      -5.301  -6.306  -4.884  0.00  0.00    +0.001 A 
ATOM     31  C   UNL     1      -6.078  -5.525  -5.723  0.00  0.00    +0.000 A 
ATOM     32  C   UNL     1      -6.646  -4.352  -5.257  0.00  0.00    +0.001 A 
ATOM     33  C   UNL     1      -6.447  -3.957  -3.950  0.00  0.00    +0.010 A 
ENDBRANCH   3  28
TORSDOF 4
