REMARK  Name = ZINC09489951
REMARK  6 active torsions:
REMARK  status: ('A' for Active; 'I' for Inactive)
REMARK    1  A    between atoms: C_1  and  C_2
REMARK    2  A    between atoms: C_9  and  N_13
REMARK    3  A    between atoms: C_10  and  C_11
REMARK    4  A    between atoms: C_14  and  C_16
REMARK    5  A    between atoms: C_21  and  C_34
REMARK    6  A    between atoms: C_24  and  C_27
REMARK                            x       y       z     vdW  Elec       q    Type
REMARK                         _______ _______ _______ _____ _____    ______ ____
ROOT
ATOM      1  C   UNL     1      -0.561   3.554   0.030  0.00  0.00    +0.149 A 
ATOM      2  C   UNL     1      -1.069   2.235   0.030  0.00  0.00    +0.078 A 
ATOM      3  C   UNL     1      -0.017   1.394   0.010  0.00  0.00    +0.119 A 
ATOM      4  N   UNL     1       1.126   2.142   0.003  0.00  0.00    -0.238 N 
ATOM      5  N   UNL     1       0.759   3.486   0.018  0.00  0.00    -0.164 NA
ATOM      6  C   UNL     1       2.474   1.567  -0.018  0.00  0.00    +0.215 C 
ATOM      7  C   UNL     1       2.387   0.117  -0.511  0.00  0.00    +0.063 C 
ATOM      8  C   UNL     1       1.308  -0.637   0.273  0.00  0.00    +0.104 C 
ATOM      9  N   UNL     1       0.002  -0.004   0.002  0.00  0.00    -0.322 N 
ATOM     10  H   UNL     1      -0.796  -0.527  -0.171  0.00  0.00    +0.148 HD
ENDROOT
BRANCH   8  11
ATOM     11  C   UNL     1       1.274  -2.077  -0.169  0.00  0.00    -0.027 A 
ATOM     12  C   UNL     1       0.632  -2.425  -1.342  0.00  0.00    +0.007 A 
ATOM     13  C   UNL     1       0.605  -3.745  -1.751  0.00  0.00    +0.020 A 
ATOM     14  C   UNL     1       1.213  -4.720  -0.979  0.00  0.00    +0.041 A 
ATOM     15  C   UNL     1       1.851  -4.372   0.198  0.00  0.00    +0.020 A 
ATOM     16  C   UNL     1       1.881  -3.051   0.603  0.00  0.00    +0.007 A 
ATOM     17 CL   UNL     1       1.173  -6.379  -1.488  0.00  0.00    -0.084 Cl
ENDBRANCH   8  11
BRANCH   1  19
ATOM     18  N   UNL     1      -0.753   5.993   0.049  0.00  0.00    -0.274 N 
ATOM     19  C   UNL     1      -1.365   4.793   0.046  0.00  0.00    +0.269 C 
ATOM     20  O   UNL     1      -2.579   4.729   0.056  0.00  0.00    -0.268 OA
ATOM     21  H   UNL     1       0.215   6.044   0.041  0.00  0.00    +0.156 HD
BRANCH  18  29
ATOM     22  C   UNL     1      -5.368  12.309   0.039  0.00  0.00    +0.008 C 
ATOM     23  C   UNL     1      -4.201  11.367  -0.264  0.00  0.00    -0.009 C 
ATOM     24  C   UNL     1      -2.982  11.778   0.566  0.00  0.00    +0.008 C 
ATOM     25  C   UNL     1      -1.747  11.007   0.094  0.00  0.00    +0.037 C 
ATOM     26  C   UNL     1      -2.073   9.519   0.085  0.00  0.00    -0.018 A 
ATOM     27  C   UNL     1      -3.353   9.086   0.092  0.00  0.00    -0.004 A 
ATOM     28  S   UNL     1      -3.234   7.320   0.073  0.00  0.00    -0.077 S 
ATOM     29  C   UNL     1      -1.509   7.157   0.064  0.00  0.00    +0.090 A 
ATOM     30  C   UNL     1      -1.066   8.471   0.070  0.00  0.00    +0.084 A 
ATOM     31  C   UNL     1      -4.591   9.929   0.107  0.00  0.00    +0.046 C 
BRANCH  30  32
ATOM     32  C   UNL     1       0.331   8.784   0.060  0.00  0.00    +0.102 C 
ATOM     33  N   UNL     1       1.439   9.033   0.052  0.00  0.00    -0.191 NA
ENDBRANCH  30  32
ENDBRANCH  18  29
ENDBRANCH   1  19
BRANCH   6  34
ATOM     34  C   UNL     1       3.365   2.376  -0.963  0.00  0.00    +0.412 C 
ATOM     35  F   UNL     1       2.820   2.355  -2.251  0.00  0.00    -0.168 F 
ATOM     36  F   UNL     1       3.443   3.698  -0.511  0.00  0.00    -0.168 F 
ATOM     37  F   UNL     1       4.647   1.816  -0.990  0.00  0.00    -0.168 F 
ENDBRANCH   6  34
TORSDOF 5
