REMARK  Name = ZINC09274812
REMARK  14 active torsions:
REMARK  status: ('A' for Active; 'I' for Inactive)
REMARK    1  A    between atoms: C_1  and  O_2
REMARK    2  A    between atoms: O_2  and  C_3
REMARK    3  A    between atoms: N_9  and  C_29
REMARK    4  A    between atoms: C_10  and  C_26
REMARK    5  A    between atoms: C_11  and  C_12
REMARK    6  A    between atoms: C_12  and  N_13
REMARK    7  A    between atoms: N_13  and  C_14
REMARK    8  A    between atoms: C_14  and  C_15
REMARK    9  A    between atoms: C_15  and  C_16
REMARK   10  A    between atoms: C_19  and  O_24
REMARK   11  A    between atoms: C_20  and  O_22
REMARK   12  A    between atoms: O_22  and  C_23
REMARK   13  A    between atoms: O_24  and  C_25
REMARK   14  A    between atoms: C_29  and  C_30
REMARK                            x       y       z     vdW  Elec       q    Type
REMARK                         _______ _______ _______ _____ _____    ______ ____
ROOT
ATOM      1  C   UNL     1      -1.632  -0.337   0.538  0.00  0.00    +0.122 A 
ATOM      2  C   UNL     1      -2.914   0.212   0.598  0.00  0.00    +0.046 A 
ATOM      3  C   UNL     1      -4.014  -0.582   0.474  0.00  0.00    +0.014 A 
ATOM      4  C   UNL     1      -3.862  -1.964   0.283  0.00  0.00    +0.002 A 
ATOM      5  C   UNL     1      -2.569  -2.523   0.221  0.00  0.00    +0.054 A 
ATOM      6  C   UNL     1      -1.458  -1.695   0.346  0.00  0.00    +0.072 A 
ATOM      7  N   UNL     1      -2.714  -3.876   0.031  0.00  0.00    -0.330 N 
ATOM      8  C   UNL     1      -4.065  -4.175  -0.028  0.00  0.00    +0.134 A 
ATOM      9  C   UNL     1      -4.780  -3.026   0.123  0.00  0.00    -0.025 A 
ENDROOT
BRANCH   8  10
ATOM     10  C   UNL     1      -4.632  -5.511  -0.222  0.00  0.00    +0.403 C 
ATOM     11  O   UNL     1      -3.900  -6.492  -0.233  0.00  0.00    -0.239 OA
ATOM     12  O   UNL     1      -5.840  -5.646  -0.374  0.00  0.00    -0.239 OA
ENDBRANCH   8  10
BRANCH   1  14
ATOM     13  C   UNL     1      -0.795   1.863   0.862  0.00  0.00    +0.277 C 
ATOM     14  O   UNL     1      -0.547   0.470   0.665  0.00  0.00    -0.495 OA
ENDBRANCH   1  14
BRANCH   9  15
ATOM     15  C   UNL     1      -6.283  -2.909   0.121  0.00  0.00    -0.044 C 
BRANCH  15  16
ATOM     16  N   UNL     1      -6.754  -2.679  -1.252  0.00  0.00    +0.382 N 
ATOM     17  H   UNL     1      -6.349  -1.826  -1.608  0.00  0.00    -0.085 HD
ATOM     18  H   UNL     1      -6.476  -3.453  -1.837  0.00  0.00    -0.085 HD
BRANCH  16  19
ATOM     19  C   UNL     1      -8.218  -2.564  -1.254  0.00  0.00    -0.077 C 
BRANCH  19  20
ATOM     20  C   UNL     1      -8.709  -2.325  -2.684  0.00  0.00    +0.016 C 
BRANCH  20  21
ATOM     21  C   UNL     1     -10.211  -2.208  -2.686  0.00  0.00    -0.045 A 
ATOM     22  C   UNL     1     -10.991  -3.338  -2.848  0.00  0.00    +0.007 A 
ATOM     23  C   UNL     1     -12.370  -3.235  -2.851  0.00  0.00    +0.049 A 
ATOM     24  C   UNL     1     -12.973  -1.998  -2.691  0.00  0.00    +0.161 A 
ATOM     25  C   UNL     1     -12.188  -0.861  -2.528  0.00  0.00    +0.162 A 
ATOM     26  C   UNL     1     -10.806  -0.971  -2.521  0.00  0.00    +0.053 A 
BRANCH  25  27
ATOM     27  O   UNL     1     -12.775   0.356  -2.371  0.00  0.00    -0.491 OA
ATOM     28  C   UNL     1     -11.906   1.479  -2.209  0.00  0.00    +0.277 C 
ENDBRANCH  25  27
BRANCH  24  29
ATOM     29  O   UNL     1     -14.329  -1.895  -2.695  0.00  0.00    -0.491 OA
ATOM     30  C   UNL     1     -15.070  -3.104  -2.867  0.00  0.00    +0.277 C 
ENDBRANCH  24  29
ENDBRANCH  20  21
ENDBRANCH  19  20
ENDBRANCH  16  19
ENDBRANCH  15  16
ENDBRANCH   9  15
BRANCH   7  31
ATOM     31  C   UNL     1      -1.620  -4.843  -0.091  0.00  0.00    +0.159 C 
BRANCH  31  32
ATOM     32  C   UNL     1      -1.322  -5.084  -1.548  0.00  0.00    -0.009 A 
ATOM     33  C   UNL     1      -1.992  -6.080  -2.235  0.00  0.00    +0.009 A 
ATOM     34  C   UNL     1      -1.720  -6.301  -3.572  0.00  0.00    +0.039 A 
ATOM     35  C   UNL     1      -0.775  -5.527  -4.224  0.00  0.00    +0.125 A 
ATOM     36  C   UNL     1      -0.105  -4.530  -3.536  0.00  0.00    +0.058 A 
ATOM     37  C   UNL     1      -0.382  -4.306  -2.200  0.00  0.00    +0.049 A 
ATOM     38 CL   UNL     1       0.454  -3.052  -1.338  0.00  0.00    -0.083 Cl
ATOM     39  F   UNL     1      -0.508  -5.744  -5.530  0.00  0.00    -0.205 F 
ENDBRANCH  31  32
ENDBRANCH   7  31
TORSDOF 11
