REMARK  Name = ZINC63294055
REMARK  5 active torsions:
REMARK  status: ('A' for Active; 'I' for Inactive)
REMARK    1  A    between atoms: C_1  and  C_2
REMARK    2  A    between atoms: C_2  and  C_4
REMARK    3  A    between atoms: C_2  and  N_17
REMARK    4  A    between atoms: N_6  and  C_7
REMARK    5  A    between atoms: C_18  and  C_20
REMARK                            x       y       z     vdW  Elec       q    Type
REMARK                         _______ _______ _______ _____ _____    ______ ____
ROOT
ATOM      1  C   UNL     1      -0.019   1.526   0.010  0.00  0.00    +0.038 C 
ATOM      2  C   UNL     1       0.002  -0.004   0.002  0.00  0.00    +0.156 C 
ENDROOT
BRANCH   2   3
ATOM      3  C   UNL     1       0.707  -0.490  -1.238  0.00  0.00    +0.235 C 
ATOM      4  O   UNL     1       1.704  -1.174  -1.140  0.00  0.00    -0.274 OA
ATOM      5  N   UNL     1       0.231  -0.164  -2.456  0.00  0.00    -0.287 N 
ATOM      6  H   UNL     1      -0.566   0.383  -2.534  0.00  0.00    +0.151 HD
BRANCH   5   7
ATOM      7  C   UNL     1       0.917  -0.637  -3.661  0.00  0.00    +0.224 C 
ATOM      8  N   UNL     1       0.409   0.045  -4.859  0.00  0.00    -0.316 N 
ATOM      9  C   UNL     1      -0.200  -0.739  -5.838  0.00  0.00    +0.043 A 
ATOM     10  C   UNL     1      -0.743  -0.266  -7.046  0.00  0.00    +0.024 A 
ATOM     11  C   UNL     1      -1.325  -1.123  -7.949  0.00  0.00    +0.002 A 
ATOM     12  C   UNL     1      -1.397  -2.482  -7.701  0.00  0.00    +0.001 A 
ATOM     13  C   UNL     1      -0.870  -2.977  -6.520  0.00  0.00    +0.016 A 
ATOM     14  C   UNL     1      -0.288  -2.117  -5.616  0.00  0.00    +0.032 A 
ATOM     15  S   UNL     1       0.477  -2.382  -4.031  0.00  0.00    -0.082 S 
ATOM     16  H   UNL     1       0.494   1.006  -4.966  0.00  0.00    +0.149 HD
ENDBRANCH   5   7
ENDBRANCH   2   3
BRANCH   2  17
ATOM     17  N   UNL     1       0.711  -0.489   1.189  0.00  0.00    -0.302 N 
ATOM     18  C   UNL     1       0.051  -0.633   2.355  0.00  0.00    +0.240 C 
ATOM     19  O   UNL     1      -1.129  -0.361   2.423  0.00  0.00    -0.273 OA
ATOM     20  H   UNL     1       1.654  -0.707   1.135  0.00  0.00    +0.150 HD
BRANCH  18  21
ATOM     21  C   UNL     1       0.780  -1.133   3.576  0.00  0.00    +0.190 C 
ATOM     22  C   UNL     1       1.296  -2.534   3.338  0.00  0.00    +0.016 C 
ATOM     23  C   UNL     1       0.700  -3.316   4.267  0.00  0.00    -0.004 A 
ATOM     24  C   UNL     1       0.782  -4.752   4.559  0.00  0.00    +0.010 A 
ATOM     25  C   UNL     1       0.048  -5.258   5.576  0.00  0.00    +0.001 A 
ATOM     26  C   UNL     1      -0.787  -4.446   6.357  0.00  0.00    +0.002 A 
ATOM     27  C   UNL     1      -0.915  -3.119   6.150  0.00  0.00    +0.026 A 
ATOM     28  C   UNL     1      -0.189  -2.481   5.106  0.00  0.00    +0.043 A 
ATOM     29  N   UNL     1      -0.143  -1.230   4.712  0.00  0.00    -0.370 N 
ATOM     30  H   UNL     1      -0.637  -0.493   5.105  0.00  0.00    +0.161 HD
ENDBRANCH  18  21
ENDBRANCH   2  17
TORSDOF 4
