REMARK  Name = ZINC04167867
REMARK  8 active torsions:
REMARK  status: ('A' for Active; 'I' for Inactive)
REMARK    1  A    between atoms: C_1  and  C_2
REMARK    2  A    between atoms: C_4  and  C_8
REMARK    3  A    between atoms: C_5  and  C_7
REMARK    4  A    between atoms: C_15  and  N_34
REMARK    5  A    between atoms: C_16  and  C_32
REMARK    6  A    between atoms: C_17  and  C_19
REMARK    7  A    between atoms: C_20  and  C_31
REMARK    8  A    between atoms: N_22  and  C_25
REMARK                            x       y       z     vdW  Elec       q    Type
REMARK                         _______ _______ _______ _____ _____    ______ ____
ROOT
ATOM      1  C   UNL     1      -2.706  -3.575   0.334  0.00  0.00    +0.101 A 
ATOM      2  C   UNL     1      -3.960  -2.962   0.257  0.00  0.00    +0.054 A 
ATOM      3  C   UNL     1      -4.912  -3.936   0.357  0.00  0.00    +0.223 A 
ATOM      4  N   UNL     1      -4.277  -5.119   0.490  0.00  0.00    -0.246 N 
ATOM      5  H   UNL     1      -4.701  -5.987   0.581  0.00  0.00    +0.192 HD
ATOM      6  N   UNL     1      -2.895  -4.873   0.469  0.00  0.00    -0.171 NA
ATOM      7  O   UNL     1      -6.241  -3.667   0.322  0.00  0.00    -0.423 OA
ATOM      8  C   UNL     1      -6.622  -2.381   0.459  0.00  0.00    +0.200 C 
ATOM      9  C   UNL     1      -5.775  -1.332   0.367  0.00  0.00    +0.098 C 
ATOM     10  C   UNL     1      -4.301  -1.504   0.094  0.00  0.00    +0.106 C 
ENDROOT
BRANCH   1  14
ATOM     11  C   UNL     1       0.580   0.049   1.699  0.00  0.00    +0.051 C 
ATOM     12  C   UNL     1       0.071  -1.164   0.964  0.00  0.00    -0.012 A 
ATOM     13  C   UNL     1      -1.138  -1.764   1.051  0.00  0.00    +0.021 A 
ATOM     14  C   UNL     1      -1.393  -2.885   0.268  0.00  0.00    +0.013 A 
ATOM     15  C   UNL     1      -0.407  -3.339  -0.562  0.00  0.00    -0.004 A 
ATOM     16  S   UNL     1       0.906  -2.170  -0.251  0.00  0.00    -0.098 S 
ATOM     17  C   UNL     1      -0.425  -4.517  -1.502  0.00  0.00    +0.052 C 
ENDBRANCH   1  14
BRANCH  10  18
ATOM     18  C   UNL     1      -3.990  -1.064  -1.313  0.00  0.00    +0.025 A 
ATOM     19  C   UNL     1      -3.171   0.011  -1.677  0.00  0.00    +0.066 A 
ATOM     20  N   UNL     1      -3.141   0.083  -2.983  0.00  0.00    -0.170 NA
ATOM     21  N   UNL     1      -3.942  -0.945  -3.499  0.00  0.00    -0.221 N 
ATOM     22  C   UNL     1      -4.449  -1.642  -2.449  0.00  0.00    +0.137 A 
ATOM     23 CL   UNL     1      -5.500  -3.021  -2.546  0.00  0.00    -0.062 Cl
ATOM     24  C   UNL     1      -2.447   0.929  -0.727  0.00  0.00    +0.068 C 
BRANCH  21  25
ATOM     25  C   UNL     1      -4.173  -1.211  -4.856  0.00  0.00    +0.067 A 
ATOM     26  C   UNL     1      -4.325  -2.520  -5.292  0.00  0.00    +0.028 A 
ATOM     27  C   UNL     1      -4.553  -2.778  -6.630  0.00  0.00    +0.002 A 
ATOM     28  C   UNL     1      -4.630  -1.734  -7.534  0.00  0.00    +0.000 A 
ATOM     29  C   UNL     1      -4.479  -0.430  -7.102  0.00  0.00    +0.002 A 
ATOM     30  C   UNL     1      -4.256  -0.165  -5.764  0.00  0.00    +0.028 A 
ENDBRANCH  21  25
ENDBRANCH  10  18
BRANCH   8  31
ATOM     31  N   UNL     1      -7.947  -2.122   0.706  0.00  0.00    -0.328 N 
ATOM     32  H   UNL     1      -8.579  -2.854   0.777  0.00  0.00    +0.145 HD
ATOM     33  H   UNL     1      -8.252  -1.207   0.809  0.00  0.00    +0.145 HD
ENDBRANCH   8  31
BRANCH   9  34
ATOM     34  C   UNL     1      -6.295  -0.008   0.534  0.00  0.00    +0.101 C 
ATOM     35  N   UNL     1      -6.708   1.042   0.667  0.00  0.00    -0.191 NA
ENDBRANCH   9  34
TORSDOF 5
