REMARK  Name = ZINC13150179
REMARK  5 active torsions:
REMARK  status: ('A' for Active; 'I' for Inactive)
REMARK    1  A    between atoms: C_4  and  O_28
REMARK    2  A    between atoms: C_5  and  C_7
REMARK    3  A    between atoms: O_28  and  C_29
REMARK    4  A    between atoms: C_29  and  C_30
REMARK    5  A    between atoms: N_32  and  C_33
REMARK                            x       y       z     vdW  Elec       q    Type
REMARK                         _______ _______ _______ _____ _____    ______ ____
ROOT
ATOM      1  C   UNL     1       9.747   0.468  -0.728  0.00  0.00    +0.001 A 
ATOM      2  C   UNL     1       8.666  -0.389  -0.627  0.00  0.00    +0.004 A 
ATOM      3  C   UNL     1       7.389   0.121  -0.501  0.00  0.00    +0.046 A 
ATOM      4  C   UNL     1       7.190   1.494  -0.477  0.00  0.00    +0.125 A 
ATOM      5  C   UNL     1       8.275   2.351  -0.584  0.00  0.00    +0.003 A 
ATOM      6  C   UNL     1       9.552   1.836  -0.703  0.00  0.00    +0.008 A 
ENDROOT
BRANCH   5   7
ATOM      7  C   UNL     1       8.063   3.843  -0.564  0.00  0.00    +0.066 C 
ATOM      8  C   UNL     1       8.838   4.452   0.576  0.00  0.00    +0.032 A 
ATOM      9  C   UNL     1       9.576   5.584   0.609  0.00  0.00    +0.087 A 
ATOM     10  N   UNL     1      10.179   5.873   1.810  0.00  0.00    -0.311 N 
ATOM     11  H   UNL     1      10.728   6.668   1.895  0.00  0.00    +0.170 HD
ATOM     12  C   UNL     1      10.012   5.058   2.871  0.00  0.00    +0.289 A 
ATOM     13  O   UNL     1      10.467   5.165   3.996  0.00  0.00    -0.260 OA
ATOM     14  S   UNL     1       8.987   3.815   2.225  0.00  0.00    -0.030 S 
ATOM     15  S   UNL     1       9.742   6.630  -0.835  0.00  0.00    -0.103 S 
ATOM     16  C   UNL     1       8.401   5.975  -1.860  0.00  0.00    +0.060 C 
ATOM     17  C   UNL     1       8.562   4.438  -1.830  0.00  0.00    +0.018 C 
ATOM     18  C   UNL     1       8.195   3.937  -3.222  0.00  0.00    -0.006 C 
ATOM     19  C   UNL     1       9.588   4.078  -3.948  0.00  0.00    +0.004 C 
ATOM     20  C   UNL     1       9.861   5.600  -3.876  0.00  0.00    +0.005 C 
ATOM     21  C   UNL     1       8.551   6.262  -3.369  0.00  0.00    +0.003 C 
ATOM     22  C   UNL     1       7.471   5.184  -3.864  0.00  0.00    +0.008 C 
ENDBRANCH   5   7
BRANCH   4  23
ATOM     23  O   UNL     1       5.934   1.998  -0.353  0.00  0.00    -0.482 OA
BRANCH  23  24
ATOM     24  C   UNL     1       4.864   1.056  -0.253  0.00  0.00    +0.324 C 
BRANCH  24  25
ATOM     25  C   UNL     1       3.556   1.794  -0.124  0.00  0.00    +0.255 C 
ATOM     26  O   UNL     1       3.542   3.006  -0.117  0.00  0.00    -0.272 OA
ATOM     27  N   UNL     1       2.403   1.106  -0.015  0.00  0.00    -0.283 N 
ATOM     28  H   UNL     1       2.419   0.138   0.048  0.00  0.00    +0.155 HD
BRANCH  27  29
ATOM     29  C   UNL     1       1.181   1.788   0.008  0.00  0.00    +0.034 A 
ATOM     30  C   UNL     1       0.059   1.225  -0.586  0.00  0.00    +0.025 A 
ATOM     31  C   UNL     1      -1.145   1.902  -0.567  0.00  0.00    +0.022 A 
ATOM     32  C   UNL     1      -1.236   3.135   0.054  0.00  0.00    +0.041 A 
ATOM     33  C   UNL     1      -0.119   3.699   0.647  0.00  0.00    +0.022 A 
ATOM     34  C   UNL     1       1.088   3.028   0.626  0.00  0.00    +0.025 A 
ATOM     35 CL   UNL     1      -2.752   3.981   0.083  0.00  0.00    -0.084 Cl
ENDBRANCH  27  29
ENDBRANCH  24  25
ENDBRANCH  23  24
ENDBRANCH   4  23
TORSDOF 5
