REMARK  Name = ZINC14459954
REMARK  8 active torsions:
REMARK  status: ('A' for Active; 'I' for Inactive)
REMARK    1  A    between atoms: C_1  and  C_2
REMARK    2  A    between atoms: C_2  and  C_4
REMARK    3  A    between atoms: C_4  and  O_5
REMARK    4  A    between atoms: O_5  and  C_6
REMARK    5  A    between atoms: C_13  and  C_22
REMARK    6  A    between atoms: C_26  and  O_29
REMARK    7  A    between atoms: C_27  and  O_28
REMARK    8  A    between atoms: O_29  and  C_30
REMARK                            x       y       z     vdW  Elec       q    Type
REMARK                         _______ _______ _______ _____ _____    ______ ____
ROOT
ATOM      1  C   UNL     1      -3.430  -1.448  -0.272  0.00  0.00    +0.142 A 
ATOM      2  C   UNL     1      -4.737  -1.004  -0.271  0.00  0.00    +0.047 A 
ATOM      3  C   UNL     1      -5.778  -1.904  -0.136  0.00  0.00    +0.004 A 
ATOM      4  C   UNL     1      -5.503  -3.251   0.007  0.00  0.00    +0.006 A 
ATOM      5  C   UNL     1      -4.199  -3.704   0.016  0.00  0.00    -0.016 A 
ATOM      6  C   UNL     1      -3.138  -2.811  -0.142  0.00  0.00    +0.074 A 
ATOM      7  N   UNL     1      -1.796  -3.193  -0.196  0.00  0.00    -0.334 N 
ATOM      8  C   UNL     1      -1.502  -4.615   0.042  0.00  0.00    +0.109 C 
ATOM      9  C   UNL     1      -2.589  -5.417  -0.643  0.00  0.00    +0.029 C 
ATOM     10  C   UNL     1      -3.874  -5.134   0.208  0.00  0.00    +0.049 C 
ATOM     11  C   UNL     1      -4.790  -6.226  -0.205  0.00  0.00    -0.023 C 
ATOM     12  C   UNL     1      -4.060  -7.276  -0.565  0.00  0.00    -0.030 C 
ATOM     13  C   UNL     1      -2.574  -6.940  -0.472  0.00  0.00    +0.033 C 
ATOM     14  H   UNL     1      -1.363  -2.873  -1.050  0.00  0.00    +0.147 HD
ENDROOT
BRANCH   8  15
ATOM     15  C   UNL     1      -0.158  -4.967  -0.541  0.00  0.00    +0.018 A 
ATOM     16  C   UNL     1      -0.082  -5.655  -1.738  0.00  0.00    +0.009 A 
ATOM     17  C   UNL     1       1.150  -5.979  -2.275  0.00  0.00    +0.004 A 
ATOM     18  C   UNL     1       2.311  -5.616  -1.619  0.00  0.00    +0.049 A 
ATOM     19  C   UNL     1       2.242  -4.926  -0.419  0.00  0.00    +0.162 A 
ATOM     20  C   UNL     1       1.002  -4.595   0.119  0.00  0.00    +0.163 A 
BRANCH  20  21
ATOM     21  O   UNL     1       0.929  -3.913   1.294  0.00  0.00    -0.503 OA
ATOM     22  H   UNL     1       0.968  -4.477   2.079  0.00  0.00    +0.292 HD
ENDBRANCH  20  21
BRANCH  19  23
ATOM     23  O   UNL     1       3.384  -4.568   0.228  0.00  0.00    -0.491 OA
ATOM     24  C   UNL     1       4.620  -4.936  -0.387  0.00  0.00    +0.277 C 
ENDBRANCH  19  23
ENDBRANCH   8  15
BRANCH   1  25
ATOM     25  O   UNL     1      -2.415  -0.553  -0.406  0.00  0.00    -0.486 OA
BRANCH  25  26
ATOM     26  C   UNL     1      -2.777   0.823  -0.541  0.00  0.00    +0.259 C 
BRANCH  26  28
ATOM     27  C   UNL     1      -1.640   3.154  -0.835  0.00  0.00    +0.042 C 
ATOM     28  C   UNL     1      -1.531   1.659  -0.678  0.00  0.00    -0.043 C 
ATOM     29  C   UNL     1      -0.353   1.087  -0.660  0.00  0.00    +0.011 C 
ENDBRANCH  26  28
ENDBRANCH  25  26
ENDBRANCH   1  25
TORSDOF 6
