REMARK  Name = ZINC06345254
REMARK  2 active torsions:
REMARK  status: ('A' for Active; 'I' for Inactive)
REMARK    1  A    between atoms: C_12  and  C_16
REMARK    2  A    between atoms: C_22  and  C_24
REMARK                            x       y       z     vdW  Elec       q    Type
REMARK                         _______ _______ _______ _____ _____    ______ ____
ROOT
ATOM      1  C   UNL     1      -2.514   8.198   0.070  0.00  0.00    +0.259 C 
ATOM      2  O   UNL     1      -2.463   9.414   0.075  0.00  0.00    -0.269 OA
ATOM      3  N   UNL     1      -3.708   7.574   0.078  0.00  0.00    -0.234 N 
ATOM      4  C   UNL     1      -4.877   8.315   0.093  0.00  0.00    +0.315 A 
ATOM      5  N   UNL     1      -4.966   9.624   0.106  0.00  0.00    -0.092 NA
ATOM      6  N   UNL     1      -6.205   9.969   0.116  0.00  0.00    -0.106 NA
ATOM      7  C   UNL     1      -6.957   8.895   0.117  0.00  0.00    +0.250 A 
ATOM      8  O   UNL     1      -6.131   7.825   0.103  0.00  0.00    -0.405 OA
ATOM      9  H   UNL     1      -3.749   6.604   0.074  0.00  0.00    +0.160 HD
ENDROOT
BRANCH   1  21
ATOM     10  C   UNL     1      -0.013   1.076   0.008  0.00  0.00    +0.001 A 
ATOM     11  C   UNL     1      -1.232   1.745   0.017  0.00  0.00    +0.001 A 
ATOM     12  C   UNL     1      -1.282   3.109   0.031  0.00  0.00    +0.009 A 
ATOM     13  C   UNL     1      -0.094   3.844   0.024  0.00  0.00    -0.007 A 
ATOM     14  C   UNL     1       1.149   3.167   0.008  0.00  0.00    -0.017 A 
ATOM     15  C   UNL     1       1.164   1.764   0.000  0.00  0.00    +0.008 A 
ATOM     16  C   UNL     1       2.344   3.913   0.001  0.00  0.00    +0.012 A 
ATOM     17  C   UNL     1       2.325   5.269   0.008  0.00  0.00    +0.047 A 
ATOM     18  C   UNL     1       1.126   5.992   0.024  0.00  0.00    +0.140 A 
ATOM     19  C   UNL     1      -0.099   5.309   0.032  0.00  0.00    +0.026 A 
ATOM     20  C   UNL     1      -1.313   6.021   0.046  0.00  0.00    +0.032 A 
ATOM     21  C   UNL     1      -1.272   7.410   0.054  0.00  0.00    +0.122 A 
ATOM     22  C   UNL     1       0.035   8.073   0.045  0.00  0.00    +0.350 A 
ATOM     23  O   UNL     1       0.101   9.289   0.050  0.00  0.00    -0.244 OA
ATOM     24  O   UNL     1       1.161   7.341   0.030  0.00  0.00    -0.422 OA
ENDBRANCH   1  21
BRANCH   7  25
ATOM     25  C   UNL     1      -8.434   8.860   0.132  0.00  0.00    +0.039 A 
ATOM     26  C   UNL     1      -9.106   7.636   0.126  0.00  0.00    +0.016 A 
ATOM     27  C   UNL     1     -10.484   7.609   0.145  0.00  0.00    +0.039 A 
ATOM     28  C   UNL     1     -11.203   8.794   0.159  0.00  0.00    +0.123 A 
ATOM     29  C   UNL     1     -10.541  10.012   0.159  0.00  0.00    +0.039 A 
ATOM     30  C   UNL     1      -9.162  10.050   0.145  0.00  0.00    +0.016 A 
ATOM     31  F   UNL     1     -12.553   8.762   0.172  0.00  0.00    -0.205 F 
ENDBRANCH   7  25
TORSDOF 2
