REMARK  Name = ZINC36580008
REMARK  11 active torsions:
REMARK  status: ('A' for Active; 'I' for Inactive)
REMARK    1  A    between atoms: C_1  and  C_2
REMARK    2  A    between atoms: C_2  and  C_3
REMARK    3  A    between atoms: C_3  and  C_5
REMARK    4  A    between atoms: C_3  and  C_6
REMARK    5  A    between atoms: C_6  and  C_8
REMARK    6  A    between atoms: C_6  and  N_12
REMARK    7  A    between atoms: C_8  and  O_10
REMARK    8  A    between atoms: O_10  and  C_11
REMARK    9  A    between atoms: C_24  and  C_26
REMARK   10  A    between atoms: C_31  and  O_32
REMARK   11  A    between atoms: O_32  and  C_33
REMARK                            x       y       z     vdW  Elec       q    Type
REMARK                         _______ _______ _______ _____ _____    ______ ____
ROOT
ATOM      1  N   UNL     1       0.020  -4.381  -2.535  0.00  0.00    -0.286 N 
ATOM      2  C   UNL     1       1.004  -3.655  -3.102  0.00  0.00    +0.304 C 
ATOM      3  O   UNL     1       1.272  -2.551  -2.670  0.00  0.00    -0.253 OA
ATOM      4  N   UNL     1       1.693  -4.155  -4.147  0.00  0.00    -0.273 N 
ATOM      5  C   UNL     1       2.846  -3.432  -4.704  0.00  0.00    +0.116 C 
ATOM      6  C   UNL     1       4.113  -4.273  -4.497  0.00  0.00    +0.074 C 
ATOM      7  C   UNL     1       3.815  -5.700  -4.874  0.00  0.00    +0.040 A 
ATOM      8  C   UNL     1       2.576  -6.226  -4.989  0.00  0.00    +0.062 A 
ATOM      9  N   UNL     1       2.699  -7.509  -5.332  0.00  0.00    -0.348 N 
ATOM     10  C   UNL     1       3.969  -7.804  -5.439  0.00  0.00    +0.171 A 
ATOM     11  N   UNL     1       4.697  -6.698  -5.161  0.00  0.00    -0.349 N 
ATOM     12  H   UNL     1       5.665  -6.628  -5.165  0.00  0.00    +0.166 HD
ATOM     13  C   UNL     1       1.311  -5.441  -4.757  0.00  0.00    +0.160 C 
ATOM     14  H   UNL     1      -0.246  -5.227  -2.927  0.00  0.00    +0.151 HD
ATOM     15  H   UNL     1       1.965  -8.126  -5.479  0.00  0.00    +0.167 HD
ENDROOT
BRANCH  13  16
ATOM     16  C   UNL     1       0.615  -5.199  -6.072  0.00  0.00    +0.021 A 
ATOM     17  C   UNL     1       1.298  -4.609  -7.117  0.00  0.00    +0.009 A 
ATOM     18  C   UNL     1       0.660  -4.387  -8.323  0.00  0.00    +0.001 A 
ATOM     19  C   UNL     1      -0.664  -4.754  -8.486  0.00  0.00    +0.004 A 
ATOM     20  C   UNL     1      -1.351  -5.344  -7.444  0.00  0.00    +0.046 A 
ATOM     21  C   UNL     1      -0.711  -5.574  -6.234  0.00  0.00    +0.135 A 
BRANCH  21  22
ATOM     22  O   UNL     1      -1.383  -6.160  -5.209  0.00  0.00    -0.405 OA
BRANCH  22  23
ATOM     23  C   UNL     1      -2.746  -6.519  -5.447  0.00  0.00    +0.575 C 
ATOM     24  F   UNL     1      -2.809  -7.429  -6.508  0.00  0.00    -0.133 F 
ATOM     25  F   UNL     1      -3.282  -7.105  -4.296  0.00  0.00    -0.133 F 
ATOM     26  F   UNL     1      -3.480  -5.373  -5.772  0.00  0.00    -0.133 F 
ENDBRANCH  22  23
ENDBRANCH  21  22
ENDBRANCH  13  16
BRANCH   1  27
ATOM     27  C   UNL     1      -0.648  -3.891  -1.327  0.00  0.00    +0.186 C 
BRANCH  27  28
ATOM     28  C   UNL     1      -1.228  -5.074  -0.549  0.00  0.00    +0.017 C 
ATOM     29  C   UNL     1      -2.239  -5.815  -1.426  0.00  0.00    +0.010 C 
BRANCH  28  31
ATOM     30  C   UNL     1      -2.396  -5.751   1.553  0.00  0.00    +0.004 C 
ATOM     31  C   UNL     1      -1.926  -4.562   0.713  0.00  0.00    +0.002 C 
ENDBRANCH  28  31
ENDBRANCH  27  28
BRANCH  27  32
ATOM     32  C   UNL     1      -1.761  -2.951  -1.714  0.00  0.00    +0.328 C 
ATOM     33  O   UNL     1      -1.974  -2.715  -2.880  0.00  0.00    -0.249 OA
BRANCH  32  34
ATOM     34  O   UNL     1      -2.515  -2.376  -0.764  0.00  0.00    -0.467 OA
ATOM     35  C   UNL     1      -3.552  -1.496  -1.203  0.00  0.00    +0.280 C 
ENDBRANCH  32  34
ENDBRANCH  27  32
ENDBRANCH   1  27
TORSDOF 8
