REMARK  Name = ZINC31809512
REMARK  7 active torsions:
REMARK  status: ('A' for Active; 'I' for Inactive)
REMARK    1  A    between atoms: C_1  and  C_2
REMARK    2  A    between atoms: C_18  and  O_33
REMARK    3  A    between atoms: C_21  and  C_23
REMARK    4  A    between atoms: C_28  and  O_29
REMARK    5  A    between atoms: O_29  and  C_30
REMARK    6  A    between atoms: C_30  and  C_31
REMARK    7  A    between atoms: C_30  and  C_32
REMARK                            x       y       z     vdW  Elec       q    Type
REMARK                         _______ _______ _______ _____ _____    ______ ____
ROOT
ATOM      1  C   UNL     1      -0.552   1.710   0.312  0.00  0.00    +0.068 C 
ATOM      2  C   UNL     1      -0.528   0.207   0.426  0.00  0.00    +0.067 A 
ATOM      3  C   UNL     1      -0.375  -0.691  -0.647  0.00  0.00    +0.037 A 
ATOM      4  C   UNL     1      -0.408  -1.960  -0.135  0.00  0.00    +0.166 A 
ATOM      5  N   UNL     1      -0.572  -1.829   1.233  0.00  0.00    -0.194 N 
ATOM      6  N   UNL     1      -0.641  -0.469   1.534  0.00  0.00    -0.168 NA
ATOM      7  C   UNL     1      -0.651  -2.874   2.150  0.00  0.00    +0.187 A 
ATOM      8  C   UNL     1      -0.825  -2.617   3.518  0.00  0.00    +0.152 A 
ATOM      9  C   UNL     1      -0.897  -3.713   4.396  0.00  0.00    +0.163 A 
ATOM     10  N   UNL     1      -1.065  -3.182   5.651  0.00  0.00    -0.329 N 
ATOM     11  H   UNL     1      -1.150  -3.681   6.478  0.00  0.00    +0.168 HD
ATOM     12  C   UNL     1      -1.091  -1.826   5.520  0.00  0.00    +0.198 A 
ATOM     13  N   UNL     1      -0.950  -1.496   4.269  0.00  0.00    -0.231 NA
ATOM     14  N   UNL     1      -0.800  -4.942   3.903  0.00  0.00    -0.216 NA
ATOM     15  C   UNL     1      -0.638  -5.135   2.611  0.00  0.00    +0.226 A 
ATOM     16  N   UNL     1      -0.569  -4.138   1.749  0.00  0.00    -0.214 NA
ATOM     17  N   UNL     1      -0.322  -3.166  -0.719  0.00  0.00    -0.197 NA
ATOM     18  C   UNL     1      -0.181  -3.604  -1.884  0.00  0.00    +0.199 C 
ATOM     19  C   UNL     1       0.013  -2.874  -3.155  0.00  0.00    +0.165 C 
ATOM     20  S   UNL     1      -0.947  -1.357  -3.252  0.00  0.00    -0.138 S 
ATOM     21  C   UNL     1      -0.206  -0.232  -2.064  0.00  0.00    +0.116 C 
ENDROOT
BRANCH  21  22
ATOM     22  C   UNL     1      -0.846   1.124  -2.215  0.00  0.00    +0.012 A 
ATOM     23  C   UNL     1      -0.058   2.257  -2.286  0.00  0.00    +0.008 A 
ATOM     24  C   UNL     1      -0.644   3.501  -2.424  0.00  0.00    +0.001 A 
ATOM     25  C   UNL     1      -2.021   3.616  -2.491  0.00  0.00    +0.004 A 
ATOM     26  C   UNL     1      -2.813   2.487  -2.420  0.00  0.00    +0.046 A 
ATOM     27  C   UNL     1      -2.227   1.236  -2.287  0.00  0.00    +0.125 A 
BRANCH  27  28
ATOM     28  O   UNL     1      -3.004   0.123  -2.223  0.00  0.00    -0.489 OA
BRANCH  28  29
ATOM     29  C   UNL     1      -4.418   0.322  -2.175  0.00  0.00    +0.167 C 
ATOM     30  C   UNL     1      -4.960   0.476  -3.598  0.00  0.00    +0.051 C 
ATOM     31  C   UNL     1      -5.080  -0.884  -1.505  0.00  0.00    +0.051 C 
ENDBRANCH  28  29
ENDBRANCH  27  28
ENDBRANCH  21  22
BRANCH  18  32
ATOM     32  O   UNL     1      -0.211  -4.948  -1.996  0.00  0.00    -0.495 OA
ATOM     33  H   UNL     1      -0.339  -5.410  -1.156  0.00  0.00    +0.293 HD
ENDBRANCH  18  32
TORSDOF 4
