REMARK  Name = ZINC52634504
REMARK  10 active torsions:
REMARK  status: ('A' for Active; 'I' for Inactive)
REMARK    1  A    between atoms: C_1  and  C_2
REMARK    2  A    between atoms: C_2  and  C_3
REMARK    3  A    between atoms: C_3  and  C_4
REMARK    4  A    between atoms: C_8  and  C_39
REMARK    5  A    between atoms: C_10  and  C_38
REMARK    6  A    between atoms: N_13  and  C_14
REMARK    7  A    between atoms: C_14  and  C_15
REMARK    8  A    between atoms: C_18  and  C_21
REMARK    9  A    between atoms: N_30  and  C_37
REMARK   10  A    between atoms: C_31  and  C_32
REMARK                            x       y       z     vdW  Elec       q    Type
REMARK                         _______ _______ _______ _____ _____    ______ ____
ROOT
ATOM      1  C   UNL     1      -4.862  -1.205   0.421  0.00  0.00    -0.030 A 
ATOM      2  C   UNL     1      -4.514   0.098   0.729  0.00  0.00    +0.006 A 
ATOM      3  C   UNL     1      -5.290   1.147   0.281  0.00  0.00    +0.009 A 
ATOM      4  C   UNL     1      -6.429   0.892  -0.484  0.00  0.00    -0.015 A 
ATOM      5  C   UNL     1      -6.775  -0.425  -0.791  0.00  0.00    +0.009 A 
ATOM      6  C   UNL     1      -5.987  -1.465  -0.342  0.00  0.00    +0.006 A 
ENDROOT
BRANCH   4   7
ATOM      7  C   UNL     1      -7.266   2.012  -0.967  0.00  0.00    +0.017 A 
ATOM      8  C   UNL     1      -8.646   2.172  -0.486  0.00  0.00    -0.003 A 
ATOM      9  C   UNL     1      -9.210   1.287   0.431  0.00  0.00    +0.009 A 
ATOM     10  C   UNL     1     -10.508   1.481   0.852  0.00  0.00    +0.001 A 
ATOM     11  C   UNL     1     -11.257   2.547   0.372  0.00  0.00    +0.001 A 
ATOM     12  C   UNL     1     -10.719   3.433  -0.535  0.00  0.00    +0.014 A 
ATOM     13  C   UNL     1      -9.407   3.257  -0.975  0.00  0.00    +0.047 A 
ATOM     14  C   UNL     1      -8.788   4.175  -1.940  0.00  0.00    +0.259 A 
ATOM     15  O   UNL     1      -9.421   5.118  -2.377  0.00  0.00    -0.267 OA
ATOM     16  N   UNL     1      -7.519   3.970  -2.340  0.00  0.00    -0.307 N 
ATOM     17  C   UNL     1      -6.761   2.924  -1.871  0.00  0.00    +0.101 A 
ATOM     18  C   UNL     1      -6.923   4.899  -3.304  0.00  0.00    +0.152 C 
BRANCH  17  19
ATOM     19  C   UNL     1      -5.378   2.768  -2.351  0.00  0.00    +0.224 A 
ATOM     20  N   UNL     1      -4.515   1.807  -2.007  0.00  0.00    -0.104 NA
ATOM     21  N   UNL     1      -3.416   2.028  -2.645  0.00  0.00    -0.021 NA
ATOM     22  N   UNL     1      -3.550   3.081  -3.371  0.00  0.00    -0.021 NA
ATOM     23  N   UNL     1      -4.738   3.557  -3.220  0.00  0.00    -0.104 NA
ENDBRANCH  17  19
ENDBRANCH   4   7
BRANCH   1  24
ATOM     24  C   UNL     1      -4.010  -2.346   0.913  0.00  0.00    +0.143 C 
BRANCH  24  33
ATOM     25  C   UNL     1      -2.954  -3.375  -1.247  0.00  0.00    +0.160 C 
ATOM     26  N   UNL     1      -1.611  -3.292  -1.836  0.00  0.00    -0.323 N 
ATOM     27  C   UNL     1      -0.841  -2.482  -0.992  0.00  0.00    +0.070 A 
ATOM     28  C   UNL     1       0.487  -2.082  -1.081  0.00  0.00    -0.025 A 
ATOM     29  C   UNL     1       1.000  -1.263  -0.084  0.00  0.00    +0.026 A 
ATOM     30  C   UNL     1       0.181  -0.876   0.957  0.00  0.00    +0.015 A 
ATOM     31  N   UNL     1      -1.076  -1.271   1.017  0.00  0.00    -0.346 N 
ATOM     32  C   UNL     1      -1.611  -2.053   0.087  0.00  0.00    +0.122 A 
ATOM     33  N   UNL     1      -2.904  -2.568  -0.022  0.00  0.00    -0.292 N 
ATOM     34  C   UNL     1       0.732   0.013   2.043  0.00  0.00    +0.063 C 
ATOM     35  C   UNL     1       1.351  -2.526  -2.232  0.00  0.00    +0.046 C 
ATOM     36  H   UNL     1      -1.314  -3.717  -2.655  0.00  0.00    +0.148 HD
ATOM     37  H   UNL     1      -1.625  -0.981   1.762  0.00  0.00    +0.167 HD
BRANCH  25  38
ATOM     38  C   UNL     1      -3.292  -4.829  -0.909  0.00  0.00    +0.042 C 
BRANCH  38  40
ATOM     39  C   UNL     1      -3.801  -7.080  -1.864  0.00  0.00    +0.004 C 
ATOM     40  C   UNL     1      -3.462  -5.627  -2.203  0.00  0.00    +0.000 C 
ENDBRANCH  38  40
ENDBRANCH  25  38
ENDBRANCH  24  33
ENDBRANCH   1  24
TORSDOF 6
