REMARK  Name = ZINC09312008
REMARK  10 active torsions:
REMARK  status: ('A' for Active; 'I' for Inactive)
REMARK    1  A    between atoms: C_1  and  O_2
REMARK    2  A    between atoms: O_2  and  C_3
REMARK    3  A    between atoms: C_6  and  C_11
REMARK    4  A    between atoms: C_8  and  O_9
REMARK    5  A    between atoms: O_9  and  C_10
REMARK    6  A    between atoms: C_11  and  C_12
REMARK    7  A    between atoms: C_12  and  N_13
REMARK    8  A    between atoms: C_16  and  C_22
REMARK    9  A    between atoms: C_17  and  O_21
REMARK   10  A    between atoms: C_19  and  O_20
REMARK                            x       y       z     vdW  Elec       q    Type
REMARK                         _______ _______ _______ _____ _____    ______ ____
ROOT
ATOM      1  N   UNL     1       0.002  -0.004   0.002  0.00  0.00    -0.262 N 
ATOM      2  C   UNL     1       1.179  -0.665  -0.013  0.00  0.00    +0.262 A 
ATOM      3  O   UNL     1       1.205  -1.886  -0.019  0.00  0.00    -0.267 OA
ATOM      4  C   UNL     1       2.368   0.074  -0.020  0.00  0.00    +0.069 A 
ATOM      5  C   UNL     1       2.292   1.456  -0.012  0.00  0.00    +0.224 A 
ATOM      6  N   UNL     1       1.096   2.054   0.003  0.00  0.00    -0.161 NA
ATOM      7  C   UNL     1      -0.016   1.354   0.009  0.00  0.00    +0.302 A 
ENDROOT
BRANCH   4   8
ATOM      8  C   UNL     1       3.705  -0.621  -0.036  0.00  0.00    +0.001 C 
ATOM      9  C   UNL     1       3.886  -1.382   1.251  0.00  0.00    -0.054 A 
ATOM     10  C   UNL     1       3.507  -0.765   2.438  0.00  0.00    +0.002 A 
ATOM     11  C   UNL     1       3.659  -1.421   3.643  0.00  0.00    +0.000 A 
ATOM     12  C   UNL     1       4.195  -2.695   3.671  0.00  0.00    +0.000 A 
ATOM     13  C   UNL     1       4.574  -3.307   2.493  0.00  0.00    +0.004 A 
ATOM     14  C   UNL     1       4.420  -2.649   1.281  0.00  0.00    -0.047 A 
ATOM     15  C   UNL     1       4.844  -3.358   0.020  0.00  0.00    +0.016 C 
ATOM     16  C   UNL     1       4.986  -2.351  -1.121  0.00  0.00    -0.077 C 
ATOM     17  N   UNL     1       3.758  -1.536  -1.185  0.00  0.00    +0.387 N 
ATOM     18  H   UNL     1       3.756  -0.991  -2.055  0.00  0.00    -0.085 HD
ATOM     19  H   UNL     1       2.938  -2.154  -1.166  0.00  0.00    -0.085 HD
ENDBRANCH   4   8
BRANCH   7  20
ATOM     20  O   UNL     1      -1.201   1.998   0.018  0.00  0.00    -0.479 OA
ATOM     21  H   UNL     1      -1.176   2.965   0.024  0.00  0.00    +0.295 HD
ENDBRANCH   7  20
BRANCH   5  22
ATOM     22  O   UNL     1       3.423   2.199  -0.018  0.00  0.00    -0.492 OA
ATOM     23  H   UNL     1       3.267   3.153  -0.012  0.00  0.00    +0.294 HD
ENDBRANCH   5  22
BRANCH   1  24
ATOM     24  C   UNL     1      -1.257  -0.752   0.011  0.00  0.00    +0.134 C 
BRANCH  24  25
ATOM     25  C   UNL     1      -1.710  -1.005  -1.429  0.00  0.00    +0.057 C 
BRANCH  25  29
ATOM     26  C   UNL     1      -5.383  -3.195  -1.404  0.00  0.00    +0.161 A 
ATOM     27  C   UNL     1      -4.172  -3.868  -1.420  0.00  0.00    +0.049 A 
ATOM     28  C   UNL     1      -2.986  -3.158  -1.434  0.00  0.00    +0.007 A 
ATOM     29  C   UNL     1      -3.006  -1.775  -1.420  0.00  0.00    -0.042 A 
ATOM     30  C   UNL     1      -4.210  -1.098  -1.405  0.00  0.00    +0.053 A 
ATOM     31  C   UNL     1      -5.402  -1.804  -1.397  0.00  0.00    +0.162 A 
BRANCH  26  33
ATOM     32  C   UNL     1      -6.454  -5.319  -1.405  0.00  0.00    +0.277 C 
ATOM     33  O   UNL     1      -6.550  -3.893  -1.397  0.00  0.00    -0.491 OA
ENDBRANCH  26  33
BRANCH  31  34
ATOM     34  O   UNL     1      -6.588  -1.139  -1.381  0.00  0.00    -0.491 OA
ATOM     35  C   UNL     1      -6.532   0.289  -1.373  0.00  0.00    +0.277 C 
ENDBRANCH  31  34
ENDBRANCH  25  29
ENDBRANCH  24  25
ENDBRANCH   1  24
TORSDOF 8
