REMARK  Name = ZINC25583950
REMARK  3 active torsions:
REMARK  status: ('A' for Active; 'I' for Inactive)
REMARK    1  A    between atoms: C_16  and  C_18
REMARK    2  A    between atoms: C_18  and  S_19
REMARK    3  A    between atoms: S_19  and  C_20
REMARK                            x       y       z     vdW  Elec       q    Type
REMARK                         _______ _______ _______ _____ _____    ______ ____
ROOT
ATOM      1  C   UNL     1       1.178   1.780   0.000  0.00  0.00    +0.000 A 
ATOM      2  C   UNL     1      -0.013   1.076   0.008  0.00  0.00    +0.002 A 
ATOM      3  C   UNL     1      -1.224   1.748   0.017  0.00  0.00    +0.024 A 
ATOM      4  C   UNL     1      -1.214   3.132   0.035  0.00  0.00    +0.044 A 
ATOM      5  C   UNL     1      -0.033   3.826   0.006  0.00  0.00    -0.025 A 
ATOM      6  C   UNL     1       1.175   3.167  -0.006  0.00  0.00    +0.005 A 
ATOM      7  C   UNL     1      -0.145   5.328  -0.043  0.00  0.00    +0.042 C 
ATOM      8  C   UNL     1      -0.448   5.905   1.328  0.00  0.00    +0.042 C 
ATOM      9  C   UNL     1      -1.768   5.432   1.894  0.00  0.00    -0.025 A 
ATOM     10  C   UNL     1      -2.092   5.965   3.144  0.00  0.00    +0.005 A 
ATOM     11  C   UNL     1      -3.274   5.651   3.773  0.00  0.00    +0.000 A 
ATOM     12  C   UNL     1      -4.179   4.795   3.172  0.00  0.00    +0.002 A 
ATOM     13  C   UNL     1      -3.873   4.250   1.943  0.00  0.00    +0.024 A 
ATOM     14  C   UNL     1      -2.669   4.553   1.315  0.00  0.00    +0.044 A 
ATOM     15  N   UNL     1      -2.383   3.903   0.105  0.00  0.00    -0.239 N 
ATOM     16  C   UNL     1      -3.206   4.017  -0.956  0.00  0.00    +0.234 C 
ATOM     17  O   UNL     1      -4.212   4.689  -0.875  0.00  0.00    -0.274 OA
ENDROOT
BRANCH  16  18
ATOM     18  C   UNL     1      -2.876   3.308  -2.245  0.00  0.00    +0.174 C 
BRANCH  18  19
ATOM     19  S   UNL     1      -4.162   3.654  -3.470  0.00  0.00    -0.077 S 
BRANCH  19  20
ATOM     20  C   UNL     1      -3.541   2.729  -4.835  0.00  0.00    +0.191 A 
ATOM     21  N   UNL     1      -4.221   2.715  -5.976  0.00  0.00    -0.207 NA
ATOM     22  C   UNL     1      -3.801   2.044  -7.035  0.00  0.00    +0.129 A 
ATOM     23  C   UNL     1      -2.589   1.303  -6.956  0.00  0.00    +0.047 A 
ATOM     24  C   UNL     1      -1.929   0.492  -7.966  0.00  0.00    +0.021 A 
ATOM     25  C   UNL     1      -0.778  -0.123  -7.662  0.00  0.00    +0.048 A 
ATOM     26  S   UNL     1      -0.489   0.348  -5.967  0.00  0.00    -0.077 S 
ATOM     27  C   UNL     1      -1.923   1.359  -5.713  0.00  0.00    +0.114 A 
ATOM     28  N   UNL     1      -2.405   2.057  -4.703  0.00  0.00    -0.215 NA
ATOM     29  N   UNL     1      -4.535   2.059  -8.207  0.00  0.00    -0.343 N 
ATOM     30  H   UNL     1      -4.181   1.499  -9.085  0.00  0.00    +0.144 HD
ATOM     31  H   UNL     1      -5.473   2.631  -8.261  0.00  0.00    +0.144 HD
ENDBRANCH  19  20
ENDBRANCH  18  19
ENDBRANCH  16  18
TORSDOF 3
