REMARK  Name = ZINC39673762
REMARK  9 active torsions:
REMARK  status: ('A' for Active; 'I' for Inactive)
REMARK    1  A    between atoms: C_1  and  C_2
REMARK    2  A    between atoms: C_2  and  C_3
REMARK    3  A    between atoms: C_3  and  C_4
REMARK    4  A    between atoms: C_4  and  C_6
REMARK    5  A    between atoms: C_4  and  N_7
REMARK    6  A    between atoms: C_8  and  C_10
REMARK    7  A    between atoms: C_21  and  C_23
REMARK    8  A    between atoms: C_28  and  S_29
REMARK    9  A    between atoms: S_29  and  C_30
REMARK                            x       y       z     vdW  Elec       q    Type
REMARK                         _______ _______ _______ _____ _____    ______ ____
ROOT
ATOM      1  C   UNL     1      -2.945  -4.126   0.564  0.00  0.00    +0.100 C 
ATOM      2  C   UNL     1      -3.022  -4.334   2.093  0.00  0.00    +0.121 C 
ATOM      3  N   UNL     1      -3.680  -5.652   2.259  0.00  0.00    -0.296 N 
ATOM      4  C   UNL     1      -3.102  -6.490   1.182  0.00  0.00    +0.115 C 
ATOM      5  C   UNL     1      -2.996  -5.544  -0.031  0.00  0.00    -0.004 C 
ATOM      6  C   UNL     1      -1.721  -5.834  -0.816  0.00  0.00    -0.010 C 
ATOM      7  C   UNL     1      -1.820  -7.226  -1.446  0.00  0.00    -0.082 C 
ATOM      8  N   UNL     1      -2.989  -7.282  -2.333  0.00  0.00    +0.379 N 
ATOM      9  C   UNL     1      -4.218  -7.095  -1.553  0.00  0.00    -0.082 C 
ATOM     10  C   UNL     1      -4.220  -5.697  -0.928  0.00  0.00    -0.010 C 
ATOM     11  C   UNL     1      -4.597  -6.007   3.180  0.00  0.00    +0.249 C 
ATOM     12  O   UNL     1      -4.975  -7.161   3.248  0.00  0.00    -0.270 OA
ATOM     13  H   UNL     1      -2.917  -6.553  -3.027  0.00  0.00    -0.086 HD
ATOM     14  H   UNL     1      -3.017  -8.180  -2.793  0.00  0.00    -0.086 HD
ENDROOT
BRANCH  11  15
ATOM     15  C   UNL     1      -5.141  -4.997   4.106  0.00  0.00    +0.069 A 
ATOM     16  C   UNL     1      -4.331  -3.963   4.589  0.00  0.00    +0.017 A 
ATOM     17  C   UNL     1      -4.890  -3.040   5.455  0.00  0.00    +0.020 A 
ATOM     18  C   UNL     1      -6.220  -3.163   5.817  0.00  0.00    +0.112 A 
ATOM     19  N   UNL     1      -6.967  -4.144   5.351  0.00  0.00    -0.248 NA
ATOM     20  C   UNL     1      -6.485  -5.052   4.515  0.00  0.00    +0.114 A 
BRANCH  20  21
ATOM     21  S   UNL     1      -7.531  -6.338   3.919  0.00  0.00    -0.069 S 
BRANCH  21  22
ATOM     22  C   UNL     1      -9.059  -6.065   4.753  0.00  0.00    +0.014 A 
ATOM     23  C   UNL     1     -10.064  -5.327   4.141  0.00  0.00    +0.015 A 
ATOM     24  C   UNL     1     -11.261  -5.115   4.797  0.00  0.00    +0.001 A 
ATOM     25  C   UNL     1     -11.459  -5.638   6.062  0.00  0.00    +0.000 A 
ATOM     26  C   UNL     1     -10.461  -6.373   6.674  0.00  0.00    +0.001 A 
ATOM     27  C   UNL     1      -9.264  -6.593   6.021  0.00  0.00    +0.015 A 
ENDBRANCH  21  22
ENDBRANCH  20  21
ENDBRANCH  11  15
BRANCH   1  29
ATOM     28  N   UNL     1      -1.599  -2.643  -0.889  0.00  0.00    -0.312 N 
ATOM     29  C   UNL     1      -1.651  -3.448   0.191  0.00  0.00    +0.218 C 
ATOM     30  O   UNL     1      -0.658  -3.626   0.864  0.00  0.00    -0.275 OA
ATOM     31  H   UNL     1      -2.394  -2.501  -1.427  0.00  0.00    +0.149 HD
BRANCH  28  32
ATOM     32  C   UNL     1      -0.342  -1.984  -1.251  0.00  0.00    +0.070 C 
ATOM     33  C   UNL     1      -0.202  -0.683  -0.458  0.00  0.00    +0.028 C 
BRANCH  32  34
ATOM     34  C   UNL     1      -0.343  -1.671  -2.748  0.00  0.00    +0.022 C 
BRANCH  34  36
ATOM     35  C   UNL     1      -0.359  -2.665  -5.041  0.00  0.00    +0.004 C 
ATOM     36  C   UNL     1      -0.358  -2.978  -3.543  0.00  0.00    -0.002 C 
ENDBRANCH  34  36
ENDBRANCH  32  34
ENDBRANCH  28  32
ENDBRANCH   1  29
TORSDOF 7
