REMARK  Name = ZINC16269512
REMARK  9 active torsions:
REMARK  status: ('A' for Active; 'I' for Inactive)
REMARK    1  A    between atoms: C_1  and  C_2
REMARK    2  A    between atoms: C_6  and  C_9
REMARK    3  A    between atoms: C_7  and  O_8
REMARK    4  A    between atoms: N_10  and  C_11
REMARK    5  A    between atoms: C_11  and  C_12
REMARK    6  A    between atoms: C_12  and  C_13
REMARK    7  A    between atoms: C_13  and  N_14
REMARK    8  A    between atoms: N_14  and  C_15
REMARK    9  A    between atoms: C_18  and  N_22
REMARK                            x       y       z     vdW  Elec       q    Type
REMARK                         _______ _______ _______ _____ _____    ______ ____
ROOT
ATOM      1  C   UNL     1      -0.037   1.099  -2.490  0.00  0.00    +0.114 C 
ENDROOT
BRANCH   1   3
ATOM      2  C   UNL     1      -0.167   2.419  -4.480  0.00  0.00    +0.089 C 
ATOM      3  N   UNL     1      -0.745   1.585  -3.677  0.00  0.00    -0.390 N 
ATOM      4  H   UNL     1      -1.769   1.240  -3.886  0.00  0.00    +0.159 HD
BRANCH   2  10
ATOM      5  C   UNL     1      -4.247   2.468  -7.366  0.00  0.00    +0.047 C 
ATOM      6  C   UNL     1      -2.845   2.935  -7.071  0.00  0.00    -0.007 A 
ATOM      7  C   UNL     1      -2.220   3.825  -7.922  0.00  0.00    +0.021 A 
ATOM      8  C   UNL     1      -0.932   4.260  -7.659  0.00  0.00    +0.014 A 
ATOM      9  C   UNL     1      -0.259   3.807  -6.543  0.00  0.00    +0.027 A 
ATOM     10  C   UNL     1      -0.880   2.907  -5.674  0.00  0.00    +0.033 A 
ATOM     11  C   UNL     1      -2.182   2.466  -5.947  0.00  0.00    +0.128 A 
ATOM     12  I   UNL     1      -0.000   5.611  -8.962  0.00  0.00    -0.044 I 
BRANCH  11  13
ATOM     13  O   UNL     1      -2.793   1.587  -5.112  0.00  0.00    -0.506 OA
ATOM     14  H   UNL     1      -2.265   1.217  -4.221  0.00  0.00    +0.292 HD
ENDBRANCH  11  13
ENDBRANCH   2  10
ENDBRANCH   1   3
BRANCH   1  15
ATOM     15  C   UNL     1      -0.753   1.593  -1.232  0.00  0.00    +0.039 C 
BRANCH  15  16
ATOM     16  C   UNL     1      -0.013   1.086   0.008  0.00  0.00    +0.103 C 
BRANCH  16  17
ATOM     17  N   UNL     1      -0.698   1.558   1.213  0.00  0.00    -0.343 N 
ATOM     18  H   UNL     1      -1.602   2.179   1.124  0.00  0.00    +0.146 HD
BRANCH  17  19
ATOM     19  C   UNL     1      -0.204   1.220   2.476  0.00  0.00    +0.046 A 
ATOM     20  C   UNL     1       0.937   0.437   2.590  0.00  0.00    +0.026 A 
ATOM     21  C   UNL     1       1.422   0.104   3.840  0.00  0.00    +0.034 A 
ATOM     22  C   UNL     1       0.774   0.551   4.977  0.00  0.00    +0.128 A 
ATOM     23  C   UNL     1      -0.362   1.331   4.868  0.00  0.00    +0.054 A 
ATOM     24  C   UNL     1      -0.850   1.673   3.621  0.00  0.00    +0.064 A 
ATOM     25 CL   UNL     1      -2.272   2.659   3.484  0.00  0.00    -0.082 Cl
BRANCH  22  26
ATOM     26  N   UNL     1       1.298   0.193   6.314  0.00  0.00    +0.056 N 
ATOM     27  O   UNL     1       2.300  -0.494   6.412  0.00  0.00    -0.126 OA
ATOM     28  O   UNL     1       0.729   0.586   7.317  0.00  0.00    -0.126 OA
ENDBRANCH  22  26
ENDBRANCH  17  19
ENDBRANCH  16  17
ENDBRANCH  15  16
ENDBRANCH   1  15
TORSDOF 8
