REMARK  Name = ZINC38653549
REMARK  5 active torsions:
REMARK  status: ('A' for Active; 'I' for Inactive)
REMARK    1  A    between atoms: C_4  and  C_7
REMARK    2  A    between atoms: C_16  and  O_17
REMARK    3  A    between atoms: N_18  and  N_19
REMARK    4  A    between atoms: N_18  and  N_20
REMARK    5  A    between atoms: N_20  and  C_21
REMARK                            x       y       z     vdW  Elec       q    Type
REMARK                         _______ _______ _______ _____ _____    ______ ____
ROOT
ATOM      1  C   UNL     1       5.287   0.877  -3.279  0.00  0.00    +0.063 A 
ATOM      2  C   UNL     1       5.245  -0.511  -3.578  0.00  0.00    +0.027 A 
ATOM      3  C   UNL     1       6.195  -1.342  -2.999  0.00  0.00    +0.018 A 
ATOM      4  C   UNL     1       6.201  -2.777  -3.269  0.00  0.00    +0.014 A 
ATOM      5  C   UNL     1       7.135  -3.567  -2.695  0.00  0.00    +0.030 A 
ATOM      6  C   UNL     1       8.139  -2.986  -1.806  0.00  0.00    +0.081 A 
ATOM      7  C   UNL     1       8.136  -1.545  -1.534  0.00  0.00    +0.076 A 
ATOM      8  C   UNL     1       7.200  -0.753  -2.108  0.00  0.00    +0.141 A 
ATOM      9  O   UNL     1       7.180   0.582  -1.869  0.00  0.00    -0.424 OA
ATOM     10  C   UNL     1       6.254   1.377  -2.441  0.00  0.00    +0.292 A 
ATOM     11  N   UNL     1       9.055  -3.764  -1.243  0.00  0.00    -0.216 N 
ENDROOT
BRANCH   1  15
ATOM     12  C   UNL     1       2.421   3.499  -5.004  0.00  0.00    +0.000 A 
ATOM     13  C   UNL     1       3.758   3.625  -5.337  0.00  0.00    +0.001 A 
ATOM     14  C   UNL     1       4.693   2.777  -4.781  0.00  0.00    +0.009 A 
ATOM     15  C   UNL     1       4.288   1.792  -3.880  0.00  0.00    -0.011 A 
ATOM     16  C   UNL     1       2.939   1.670  -3.548  0.00  0.00    +0.009 A 
ATOM     17  C   UNL     1       2.013   2.524  -4.111  0.00  0.00    +0.001 A 
ENDBRANCH   1  15
BRANCH  11  18
ATOM     18  N   UNL     1      10.018  -3.209  -0.390  0.00  0.00    -0.285 N 
ATOM     19  H   UNL     1       9.810  -2.413   0.123  0.00  0.00    +0.164 HD
ATOM     20  H   UNL     1      10.893  -3.621  -0.313  0.00  0.00    +0.164 HD
ENDBRANCH  11  18
BRANCH  10  21
ATOM     21  O   UNL     1       6.275   2.704  -2.179  0.00  0.00    -0.480 OA
ATOM     22  H   UNL     1       6.984   2.976  -1.581  0.00  0.00    +0.295 HD
ENDBRANCH  10  21
BRANCH  11  23
ATOM     23  N   UNL     1       9.059  -5.141  -1.502  0.00  0.00    -0.240 N 
ATOM     24  H   UNL     1       8.459  -5.511  -2.168  0.00  0.00    +0.174 HD
BRANCH  23  25
ATOM     25  C   UNL     1       9.922  -5.977  -0.804  0.00  0.00    +0.056 A 
ATOM     26  C   UNL     1      10.456  -5.575   0.405  0.00  0.00    +0.025 A 
ATOM     27  C   UNL     1      11.321  -6.404   1.110  0.00  0.00    +0.002 A 
ATOM     28  C   UNL     1      11.665  -7.633   0.632  0.00  0.00    +0.008 A 
ATOM     29  C   UNL     1      11.144  -8.081  -0.594  0.00  0.00    -0.016 A 
ATOM     30  C   UNL     1      10.257  -7.249  -1.321  0.00  0.00    +0.005 A 
ATOM     31  C   UNL     1       9.733  -7.699  -2.542  0.00  0.00    +0.010 A 
ATOM     32  C   UNL     1      10.079  -8.931  -3.010  0.00  0.00    +0.001 A 
ATOM     33  C   UNL     1      10.946  -9.753  -2.294  0.00  0.00    +0.001 A 
ATOM     34  C   UNL     1      11.482  -9.343  -1.111  0.00  0.00    +0.008 A 
ENDBRANCH  23  25
ENDBRANCH  11  23
TORSDOF 5
