REMARK  Name = ZINC36612917
REMARK  13 active torsions:
REMARK  status: ('A' for Active; 'I' for Inactive)
REMARK    1  A    between atoms: C_1  and  C_2
REMARK    2  A    between atoms: C_2  and  O_3
REMARK    3  A    between atoms: O_3  and  C_4
REMARK    4  A    between atoms: C_6  and  C_17
REMARK    5  A    between atoms: C_9  and  O_10
REMARK    6  A    between atoms: O_10  and  C_11
REMARK    7  A    between atoms: C_11  and  C_12
REMARK    8  A    between atoms: C_17  and  N_18
REMARK    9  A    between atoms: N_18  and  C_19
REMARK   10  A    between atoms: C_19  and  C_20
REMARK   11  A    between atoms: C_19  and  C_21
REMARK   12  A    between atoms: C_19  and  C_22
REMARK   13  A    between atoms: C_22  and  O_23
REMARK                            x       y       z     vdW  Elec       q    Type
REMARK                         _______ _______ _______ _____ _____    ______ ____
ROOT
ATOM      1  C   UNL     1      -1.498  -1.849   0.006  0.00  0.00    +0.163 A 
ATOM      2  C   UNL     1      -0.389  -2.680  -0.003  0.00  0.00    +0.052 A 
ATOM      3  C   UNL     1      -0.552  -4.052  -0.008  0.00  0.00    -0.046 A 
ATOM      4  C   UNL     1      -1.822  -4.601  -0.005  0.00  0.00    +0.037 A 
ATOM      5  C   UNL     1      -2.934  -3.777   0.004  0.00  0.00    +0.077 A 
ATOM      6  C   UNL     1      -2.776  -2.400   0.016  0.00  0.00    +0.178 A 
ATOM      7 BR   UNL     1      -4.669  -4.530   0.008  0.00  0.00    -0.045 Br
ATOM      8 BR   UNL     1      -2.039  -6.479  -0.013  0.00  0.00    -0.049 Br
ENDROOT
BRANCH   1   9
ATOM      9  O   UNL     1      -1.339  -0.499   0.012  0.00  0.00    -0.489 OA
BRANCH   9  11
ATOM     10  C   UNL     1      -0.019   1.526   0.010  0.00  0.00    +0.048 C 
ATOM     11  C   UNL     1       0.002  -0.004   0.002  0.00  0.00    +0.226 C 
ENDBRANCH   9  11
ENDBRANCH   1   9
BRANCH   6  12
ATOM     12  O   UNL     1      -3.868  -1.589   0.030  0.00  0.00    -0.478 OA
BRANCH  12  13
ATOM     13  C   UNL     1      -4.400  -1.195  -1.236  0.00  0.00    +0.324 C 
BRANCH  13  14
ATOM     14  C   UNL     1      -5.598  -0.305  -1.022  0.00  0.00    +0.248 C 
ATOM     15  O   UNL     1      -5.959  -0.034   0.104  0.00  0.00    -0.272 OA
ATOM     16  N   UNL     1      -6.267   0.191  -2.082  0.00  0.00    -0.327 N 
ATOM     17  H   UNL     1      -5.978  -0.025  -2.982  0.00  0.00    +0.145 HD
ATOM     18  H   UNL     1      -7.037   0.764  -1.944  0.00  0.00    +0.145 HD
ENDBRANCH  13  14
ENDBRANCH  12  13
ENDBRANCH   6  12
BRANCH   3  19
ATOM     19  C   UNL     1       0.656  -4.953  -0.018  0.00  0.00    -0.045 C 
BRANCH  19  20
ATOM     20  N   UNL     1       0.841  -5.539   1.316  0.00  0.00    +0.387 N 
ATOM     21  H   UNL     1       0.977  -4.802   1.991  0.00  0.00    -0.085 HD
ATOM     22  H   UNL     1       0.023  -6.076   1.564  0.00  0.00    -0.085 HD
BRANCH  20  23
ATOM     23  C   UNL     1       2.018  -6.417   1.306  0.00  0.00    -0.050 C 
ATOM     24  C   UNL     1       1.812  -7.535   0.282  0.00  0.00    -0.008 C 
ATOM     25  C   UNL     1       3.258  -5.604   0.930  0.00  0.00    -0.008 C 
BRANCH  23  26
ATOM     26  C   UNL     1       2.211  -7.028   2.696  0.00  0.00    +0.143 C 
BRANCH  26  27
ATOM     27  O   UNL     1       3.356  -7.882   2.686  0.00  0.00    -0.396 OA
ATOM     28  H   UNL     1       3.539  -8.304   3.537  0.00  0.00    +0.209 HD
ENDBRANCH  26  27
ENDBRANCH  23  26
ENDBRANCH  20  23
ENDBRANCH  19  20
ENDBRANCH   3  19
TORSDOF 10
