REMARK  Name = ZINC42574570
REMARK  5 active torsions:
REMARK  status: ('A' for Active; 'I' for Inactive)
REMARK    1  A    between atoms: C_7  and  C_11
REMARK    2  A    between atoms: C_11  and  C_12
REMARK    3  A    between atoms: N_14  and  C_15
REMARK    4  A    between atoms: C_18  and  S_21
REMARK    5  A    between atoms: S_21  and  C_22
REMARK                            x       y       z     vdW  Elec       q    Type
REMARK                         _______ _______ _______ _____ _____    ______ ____
ROOT
ATOM      1  C   UNL     1       0.242  -3.583  -1.434  0.00  0.00    +0.222 C 
ATOM      2  O   UNL     1       0.653  -2.906  -2.352  0.00  0.00    -0.275 OA
ATOM      3  N   UNL     1      -0.600  -4.607  -1.676  0.00  0.00    -0.285 N 
ATOM      4  H   UNL     1      -0.876  -5.190  -0.952  0.00  0.00    +0.155 HD
ENDROOT
BRANCH   3   5
ATOM      5  C   UNL     1      -1.077  -4.830  -2.975  0.00  0.00    +0.033 A 
ATOM      6  C   UNL     1      -2.371  -5.295  -3.169  0.00  0.00    +0.024 A 
ATOM      7  C   UNL     1      -2.841  -5.514  -4.448  0.00  0.00    +0.017 A 
ATOM      8  C   UNL     1      -2.019  -5.270  -5.541  0.00  0.00    +0.016 A 
ATOM      9  C   UNL     1      -0.725  -4.806  -5.347  0.00  0.00    +0.017 A 
ATOM     10  C   UNL     1      -0.257  -4.581  -4.067  0.00  0.00    +0.024 A 
BRANCH   8  11
ATOM     11  S   UNL     1      -2.619  -5.551  -7.174  0.00  0.00    -0.050 S 
BRANCH  11  12
ATOM     12  C   UNL     1      -3.200  -3.970  -7.693  0.00  0.00    +0.189 A 
ATOM     13  N   UNL     1      -3.672  -3.659  -8.919  0.00  0.00    -0.254 N 
ATOM     14  H   UNL     1      -3.758  -4.257  -9.678  0.00  0.00    +0.191 HD
ATOM     15  N   UNL     1      -4.016  -2.299  -8.877  0.00  0.00    -0.160 NA
ATOM     16  C   UNL     1      -3.744  -1.873  -7.672  0.00  0.00    +0.245 A 
ATOM     17  N   UNL     1      -3.255  -2.884  -6.952  0.00  0.00    -0.209 NA
ENDBRANCH  11  12
ENDBRANCH   8  11
ENDBRANCH   3   5
BRANCH   1  18
ATOM     18  C   UNL     1       0.672  -3.280  -0.022  0.00  0.00    +0.133 C 
BRANCH  18  25
ATOM     19  C   UNL     1      -0.022   1.356   0.034  0.00  0.00    +0.001 A 
ATOM     20  C   UNL     1       1.162   2.080   0.023  0.00  0.00    +0.002 A 
ATOM     21  C   UNL     1       2.380   1.436  -0.002  0.00  0.00    +0.026 A 
ATOM     22  C   UNL     1       2.426   0.046  -0.016  0.00  0.00    +0.047 A 
ATOM     23  C   UNL     1       1.223  -0.684  -0.005  0.00  0.00    +0.003 A 
ATOM     24  C   UNL     1      -0.000  -0.010   0.020  0.00  0.00    +0.010 A 
ATOM     25  C   UNL     1       1.607  -2.097  -0.025  0.00  0.00    -0.014 A 
ATOM     26  C   UNL     1       2.948  -2.139  -0.046  0.00  0.00    +0.087 A 
ATOM     27  N   UNL     1       3.455  -0.869  -0.041  0.00  0.00    -0.360 N 
ATOM     28  H   UNL     1       4.399  -0.645  -0.053  0.00  0.00    +0.165 HD
ENDBRANCH  18  25
ENDBRANCH   1  18
TORSDOF 5
