REMARK  Name = ZINC35178160
REMARK  9 active torsions:
REMARK  status: ('A' for Active; 'I' for Inactive)
REMARK    1  A    between atoms: C_1  and  C_2
REMARK    2  A    between atoms: C_6  and  C_9
REMARK    3  A    between atoms: C_7  and  C_8
REMARK    4  A    between atoms: C_9  and  C_11
REMARK    5  A    between atoms: C_9  and  O_35
REMARK    6  A    between atoms: N_13  and  C_16
REMARK    7  A    between atoms: C_16  and  C_17
REMARK    8  A    between atoms: C_16  and  C_23
REMARK    9  A    between atoms: C_16  and  C_29
REMARK                            x       y       z     vdW  Elec       q    Type
REMARK                         _______ _______ _______ _____ _____    ______ ____
ROOT
ATOM      1  C   UNL     1       4.439  -2.256   4.326  0.00  0.00    +0.122 C 
ENDROOT
BRANCH   1   4
ATOM      2  C   UNL     1       1.593  -2.967   2.230  0.00  0.00    +0.067 A 
ATOM      3  C   UNL     1       2.245  -2.142   3.071  0.00  0.00    +0.112 A 
ATOM      4  N   UNL     1       3.407  -2.774   3.424  0.00  0.00    -0.320 N 
ATOM      5  C   UNL     1       3.424  -3.964   2.786  0.00  0.00    +0.175 A 
ATOM      6  N   UNL     1       2.334  -4.075   2.078  0.00  0.00    -0.347 N 
ATOM      7  H   UNL     1       2.098  -4.837   1.526  0.00  0.00    +0.167 HD
BRANCH   2   8
ATOM      8  C   UNL     1       0.261  -2.696   1.580  0.00  0.00    +0.192 C 
BRANCH   8  14
ATOM      9  C   UNL     1       0.920   1.436  -1.166  0.00  0.00    +0.044 C 
ATOM     10  C   UNL     1       0.795  -0.063  -1.073  0.00  0.00    -0.047 A 
ATOM     11  C   UNL     1       0.881  -0.837  -2.216  0.00  0.00    +0.003 A 
ATOM     12  C   UNL     1       0.766  -2.211  -2.130  0.00  0.00    +0.001 A 
ATOM     13  C   UNL     1       0.565  -2.813  -0.902  0.00  0.00    +0.007 A 
ATOM     14  C   UNL     1       0.480  -2.040   0.241  0.00  0.00    -0.010 A 
ATOM     15  C   UNL     1       0.599  -0.665   0.156  0.00  0.00    -0.042 A 
ATOM     16  C   UNL     1       0.512   0.177   1.402  0.00  0.00    +0.044 C 
ENDBRANCH   8  14
BRANCH   8  17
ATOM     17  O   UNL     1      -0.440  -3.928   1.397  0.00  0.00    -0.381 OA
ATOM     18  H   UNL     1       0.026  -4.567   0.840  0.00  0.00    +0.211 HD
ENDBRANCH   8  17
ENDBRANCH   2   8
ENDBRANCH   1   4
BRANCH   1  19
ATOM     19  C   UNL     1       5.635  -3.173   4.300  0.00  0.00    -0.013 A 
ATOM     20  C   UNL     1       6.881  -2.674   3.968  0.00  0.00    +0.006 A 
ATOM     21  C   UNL     1       7.978  -3.515   3.945  0.00  0.00    +0.000 A 
ATOM     22  C   UNL     1       7.829  -4.854   4.253  0.00  0.00    +0.000 A 
ATOM     23  C   UNL     1       6.583  -5.353   4.585  0.00  0.00    +0.000 A 
ATOM     24  C   UNL     1       5.487  -4.511   4.613  0.00  0.00    +0.006 A 
ENDBRANCH   1  19
BRANCH   1  25
ATOM     25  C   UNL     1       4.853  -0.878   3.877  0.00  0.00    -0.013 A 
ATOM     26  C   UNL     1       5.358  -0.688   2.605  0.00  0.00    +0.006 A 
ATOM     27  C   UNL     1       5.737   0.576   2.193  0.00  0.00    +0.000 A 
ATOM     28  C   UNL     1       5.611   1.650   3.054  0.00  0.00    +0.000 A 
ATOM     29  C   UNL     1       5.105   1.460   4.326  0.00  0.00    +0.000 A 
ATOM     30  C   UNL     1       4.721   0.197   4.736  0.00  0.00    +0.006 A 
ENDBRANCH   1  25
BRANCH   1  31
ATOM     31  C   UNL     1       3.891  -2.184   5.728  0.00  0.00    -0.013 A 
ATOM     32  C   UNL     1       2.569  -2.507   5.971  0.00  0.00    +0.006 A 
ATOM     33  C   UNL     1       2.067  -2.442   7.257  0.00  0.00    +0.000 A 
ATOM     34  C   UNL     1       2.886  -2.054   8.300  0.00  0.00    +0.000 A 
ATOM     35  C   UNL     1       4.209  -1.732   8.058  0.00  0.00    +0.000 A 
ATOM     36  C   UNL     1       4.712  -1.802   6.772  0.00  0.00    +0.006 A 
ENDBRANCH   1  31
TORSDOF 7
