REMARK  Name = ZINC39708112
REMARK  5 active torsions:
REMARK  status: ('A' for Active; 'I' for Inactive)
REMARK    1  A    between atoms: C_1  and  C_2
REMARK    2  A    between atoms: C_5  and  N_9
REMARK    3  A    between atoms: C_10  and  C_12
REMARK    4  A    between atoms: C_12  and  S_13
REMARK    5  A    between atoms: S_13  and  C_14
REMARK                            x       y       z     vdW  Elec       q    Type
REMARK                         _______ _______ _______ _____ _____    ______ ____
ROOT
ATOM      1  C   UNL     1       0.595  -8.711   2.632  0.00  0.00    +0.208 C 
ATOM      2  N   UNL     1       0.586  -9.205   1.417  0.00  0.00    -0.227 NA
ATOM      3  C   UNL     1       0.630 -10.659   1.274  0.00  0.00    +0.252 C 
ATOM      4  C   UNL     1       1.367 -11.187   2.496  0.00  0.00    +0.117 C 
ATOM      5  C   UNL     1       2.308 -12.046   2.013  0.00  0.00    +0.028 A 
ATOM      6  C   UNL     1       3.219 -12.917   2.656  0.00  0.00    +0.050 A 
ATOM      7  C   UNL     1       4.055 -13.645   1.864  0.00  0.00    +0.124 A 
ATOM      8  C   UNL     1       4.066 -13.582   0.464  0.00  0.00    +0.040 A 
ATOM      9  C   UNL     1       3.233 -12.786  -0.256  0.00  0.00    +0.029 A 
ATOM     10  C   UNL     1       2.286 -11.966   0.519  0.00  0.00    +0.046 A 
ATOM     11  N   UNL     1       1.371 -11.139   0.116  0.00  0.00    -0.358 N 
ATOM     12  F   UNL     1       4.929 -14.481   2.466  0.00  0.00    -0.205 F 
ATOM     13  N   UNL     1       1.127 -10.696   3.715  0.00  0.00    -0.147 NA
ATOM     14  N   UNL     1       0.717  -9.466   3.751  0.00  0.00    -0.122 NA
ATOM     15  H   UNL     1       1.208 -10.883  -0.805  0.00  0.00    +0.162 HD
ENDROOT
BRANCH   1  16
ATOM     16  S   UNL     1       0.447  -6.965   2.820  0.00  0.00    -0.075 S 
BRANCH  16  17
ATOM     17  C   UNL     1       0.310  -6.351   1.119  0.00  0.00    +0.173 C 
BRANCH  17  19
ATOM     18  N   UNL     1       0.059  -4.170  -0.022  0.00  0.00    -0.285 N 
ATOM     19  C   UNL     1       0.176  -4.850   1.136  0.00  0.00    +0.227 C 
ATOM     20  O   UNL     1       0.174  -4.254   2.192  0.00  0.00    -0.275 OA
ATOM     21  H   UNL     1      -0.015  -4.651  -0.861  0.00  0.00    +0.155 HD
BRANCH  18  26
ATOM     22  C   UNL     1       0.008   1.503   0.012  0.00  0.00    +0.045 C 
ATOM     23  C   UNL     1       0.022  -0.004   0.003  0.00  0.00    -0.032 A 
ATOM     24  C   UNL     1       0.777  -0.693   0.934  0.00  0.00    +0.006 A 
ATOM     25  C   UNL     1       0.792  -2.074   0.928  0.00  0.00    +0.023 A 
ATOM     26  C   UNL     1       0.046  -2.771  -0.014  0.00  0.00    +0.035 A 
ATOM     27  C   UNL     1      -0.712  -2.078  -0.948  0.00  0.00    +0.043 A 
ATOM     28  C   UNL     1      -0.726  -0.695  -0.934  0.00  0.00    +0.046 A 
ATOM     29 CL   UNL     1      -1.678   0.174  -2.096  0.00  0.00    -0.083 Cl
ENDBRANCH  18  26
ENDBRANCH  17  19
ENDBRANCH  16  17
ENDBRANCH   1  16
TORSDOF 4
