REMARK  Name = ZINC35294188
REMARK  10 active torsions:
REMARK  status: ('A' for Active; 'I' for Inactive)
REMARK    1  A    between atoms: C_1  and  C_2
REMARK    2  A    between atoms: C_2  and  C_3
REMARK    3  A    between atoms: C_3  and  N_4
REMARK    4  A    between atoms: C_12  and  C_14
REMARK    5  A    between atoms: C_19  and  S_21
REMARK    6  A    between atoms: S_21  and  C_22
REMARK    7  A    between atoms: C_22  and  C_23
REMARK    8  A    between atoms: N_25  and  O_26
REMARK    9  A    between atoms: O_26  and  C_27
REMARK   10  A    between atoms: C_27  and  C_28
REMARK                            x       y       z     vdW  Elec       q    Type
REMARK                         _______ _______ _______ _____ _____    ______ ____
ROOT
ATOM      1  N   UNL     1      -1.413  -1.998   0.003  0.00  0.00    -0.299 N 
ATOM      2  C   UNL     1      -2.571  -2.688   0.012  0.00  0.00    +0.303 C 
ATOM      3  O   UNL     1      -3.629  -2.099   0.119  0.00  0.00    -0.253 OA
ATOM      4  N   UNL     1      -2.556  -4.031  -0.097  0.00  0.00    -0.280 N 
ATOM      5  C   UNL     1      -1.283  -4.767  -0.109  0.00  0.00    +0.128 C 
ATOM      6  C   UNL     1      -1.228  -5.630  -1.376  0.00  0.00    +0.125 C 
ATOM      7  N   UNL     1      -2.484  -6.386  -1.484  0.00  0.00    -0.312 N 
ATOM      8  C   UNL     1      -3.756  -5.650  -1.472  0.00  0.00    +0.128 C 
ATOM      9  C   UNL     1      -3.812  -4.788  -0.200  0.00  0.00    +0.092 C 
ATOM     10  C   UNL     1      -3.972  -5.686   1.028  0.00  0.00    +0.030 C 
ATOM     11  C   UNL     1      -2.468  -7.766  -1.596  0.00  0.00    +0.127 A 
ATOM     12  C   UNL     1      -1.284  -8.479  -1.400  0.00  0.00    +0.083 A 
ATOM     13  C   UNL     1      -1.316  -9.857  -1.521  0.00  0.00    +0.135 A 
ATOM     14  N   UNL     1      -2.461 -10.455  -1.819  0.00  0.00    -0.210 NA
ATOM     15  C   UNL     1      -3.570  -9.752  -1.999  0.00  0.00    +0.192 A 
ATOM     16  N   UNL     1      -3.582  -8.432  -1.887  0.00  0.00    -0.207 NA
ATOM     17 CL   UNL     1       0.128 -10.792  -1.288  0.00  0.00    -0.062 Cl
ATOM     18  H   UNL     1      -0.566  -2.472  -0.009  0.00  0.00    +0.150 HD
ENDROOT
BRANCH   1  19
ATOM     19  C   UNL     1      -1.433  -0.533   0.009  0.00  0.00    +0.105 C 
BRANCH  19  21
ATOM     20  C   UNL     1      -0.019   1.526   0.003  0.00  0.00    +0.005 C 
ATOM     21  C   UNL     1       0.002  -0.004  -0.004  0.00  0.00    +0.015 C 
ENDBRANCH  19  21
ENDBRANCH   1  19
BRANCH  15  22
ATOM     22  S   UNL     1      -5.067 -10.594  -2.393  0.00  0.00    -0.077 S 
BRANCH  22  23
ATOM     23  C   UNL     1      -4.588 -12.343  -2.435  0.00  0.00    +0.175 C 
BRANCH  23  24
ATOM     24  C   UNL     1      -5.793 -13.186  -2.765  0.00  0.00    +0.246 C 
ATOM     25  O   UNL     1      -6.869 -12.659  -2.954  0.00  0.00    -0.273 OA
ATOM     26  N   UNL     1      -5.675 -14.526  -2.851  0.00  0.00    -0.194 N 
ATOM     27  H   UNL     1      -4.815 -14.948  -2.701  0.00  0.00    +0.182 HD
BRANCH  26  28
ATOM     28  O   UNL     1      -6.807 -15.318  -3.162  0.00  0.00    -0.280 OA
BRANCH  28  29
ATOM     29  C   UNL     1      -6.538 -16.720  -3.220  0.00  0.00    +0.187 C 
ATOM     30  C   UNL     1      -7.825 -17.473  -3.561  0.00  0.00    +0.036 C 
ENDBRANCH  28  29
ENDBRANCH  26  28
ENDBRANCH  23  24
ENDBRANCH  22  23
ENDBRANCH  15  22
TORSDOF 7
