REMARK  Name = ZINC38610080
REMARK  14 active torsions:
REMARK  status: ('A' for Active; 'I' for Inactive)
REMARK    1  A    between atoms: C_1  and  C_2
REMARK    2  A    between atoms: C_2  and  C_3
REMARK    3  A    between atoms: C_3  and  C_4
REMARK    4  A    between atoms: C_4  and  C_5
REMARK    5  A    between atoms: C_5  and  O_6
REMARK    6  A    between atoms: O_6  and  C_7
REMARK    7  A    between atoms: C_10  and  C_16
REMARK    8  A    between atoms: C_12  and  O_13
REMARK    9  A    between atoms: O_13  and  C_14
REMARK   10  A    between atoms: C_14  and  C_15
REMARK   11  A    between atoms: C_19  and  C_34
REMARK   12  A    between atoms: N_26  and  C_27
REMARK   13  A    between atoms: C_27  and  C_28
REMARK   14  A    between atoms: C_39  and  O_40
REMARK                            x       y       z     vdW  Elec       q    Type
REMARK                         _______ _______ _______ _____ _____    ______ ____
ROOT
ATOM      1  C   UNL     1       3.976  -6.413  -6.901  0.00  0.00    +0.142 C 
ATOM      2  C   UNL     1       5.472  -6.306  -6.795  0.00  0.00    +0.035 A 
ATOM      3  C   UNL     1       6.627  -6.604  -6.064  0.00  0.00    +0.102 A 
ATOM      4  N   UNL     1       7.652  -6.102  -6.723  0.00  0.00    -0.173 NA
ATOM      5  N   UNL     1       7.260  -5.516  -7.798  0.00  0.00    -0.272 N 
ATOM      6  H   UNL     1       7.841  -5.077  -8.438  0.00  0.00    +0.189 HD
ATOM      7  C   UNL     1       5.901  -5.606  -7.906  0.00  0.00    +0.126 A 
ATOM      8  C   UNL     1       4.730  -5.261  -8.720  0.00  0.00    +0.266 C 
ATOM      9  O   UNL     1       4.770  -4.643  -9.767  0.00  0.00    -0.268 OA
ATOM     10  N   UNL     1       3.605  -5.726  -8.145  0.00  0.00    -0.281 N 
ENDROOT
BRANCH   1  14
ATOM     11  C   UNL     1       2.125  -4.493  -3.557  0.00  0.00    +0.162 A 
ATOM     12  C   UNL     1       2.855  -3.749  -4.470  0.00  0.00    +0.050 A 
ATOM     13  C   UNL     1       3.453  -4.373  -5.549  0.00  0.00    +0.009 A 
ATOM     14  C   UNL     1       3.323  -5.738  -5.722  0.00  0.00    -0.019 A 
ATOM     15  C   UNL     1       2.595  -6.486  -4.815  0.00  0.00    +0.055 A 
ATOM     16  C   UNL     1       1.999  -5.869  -3.728  0.00  0.00    +0.162 A 
BRANCH  11  17
ATOM     17  O   UNL     1       1.537  -3.881  -2.494  0.00  0.00    -0.488 OA
BRANCH  17  18
ATOM     18  C   UNL     1       1.708  -2.467  -2.384  0.00  0.00    +0.229 C 
BRANCH  18  19
ATOM     19  C   UNL     1       0.982  -1.962  -1.136  0.00  0.00    +0.041 C 
BRANCH  19  20
ATOM     20  C   UNL     1       1.165  -0.447  -1.017  0.00  0.00    +0.003 C 
BRANCH  20  22
ATOM     21  C   UNL     1       0.622   1.573   0.349  0.00  0.00    +0.004 C 
ATOM     22  C   UNL     1       0.438   0.058   0.231  0.00  0.00    -0.003 C 
ENDBRANCH  20  22
ENDBRANCH  19  20
ENDBRANCH  18  19
ENDBRANCH  17  18
ENDBRANCH  11  17
BRANCH  16  23
ATOM     23  O   UNL     1       1.288  -6.604  -2.832  0.00  0.00    -0.489 OA
BRANCH  23  24
ATOM     24  C   UNL     1       1.201  -8.010  -3.070  0.00  0.00    +0.226 C 
ATOM     25  C   UNL     1       0.368  -8.664  -1.966  0.00  0.00    +0.048 C 
ENDBRANCH  23  24
ENDBRANCH  16  23
ENDBRANCH   1  14
BRANCH   3  26
ATOM     26  C   UNL     1       6.687  -7.348  -4.781  0.00  0.00    +0.044 A 
ATOM     27  C   UNL     1       5.537  -7.934  -4.258  0.00  0.00    +0.014 A 
ATOM     28  C   UNL     1       5.598  -8.625  -3.064  0.00  0.00    +0.001 A 
ATOM     29  C   UNL     1       6.798  -8.739  -2.385  0.00  0.00    +0.004 A 
ATOM     30  C   UNL     1       7.945  -8.161  -2.896  0.00  0.00    +0.046 A 
ATOM     31  C   UNL     1       7.899  -7.470  -4.096  0.00  0.00    +0.126 A 
BRANCH  31  32
ATOM     32  O   UNL     1       9.028  -6.907  -4.602  0.00  0.00    -0.506 OA
ATOM     33  H   UNL     1       9.180  -5.998  -4.308  0.00  0.00    +0.292 HD
ENDBRANCH  31  32
ENDBRANCH   3  26
BRANCH  10  34
ATOM     34  C   UNL     1       2.245  -5.574  -8.668  0.00  0.00    +0.144 C 
BRANCH  34  35
ATOM     35  C   UNL     1       1.640  -4.302  -8.134  0.00  0.00    -0.027 A 
ATOM     36  C   UNL     1       0.932  -4.299  -6.941  0.00  0.00    +0.025 A 
ATOM     37  C   UNL     1       0.392  -3.112  -6.482  0.00  0.00    +0.111 A 
ATOM     38  N   UNL     1       0.543  -1.994  -7.164  0.00  0.00    -0.263 NA
ATOM     39  C   UNL     1       1.210  -1.959  -8.301  0.00  0.00    +0.111 A 
ATOM     40  C   UNL     1       1.783  -3.105  -8.819  0.00  0.00    +0.025 A 
ENDBRANCH  34  35
ENDBRANCH  10  34
TORSDOF 12
