REMARK  Name = ZINC09309663
REMARK  8 active torsions:
REMARK  status: ('A' for Active; 'I' for Inactive)
REMARK    1  A    between atoms: C_1  and  C_2
REMARK    2  A    between atoms: C_2  and  O_3
REMARK    3  A    between atoms: O_3  and  C_4
REMARK    4  A    between atoms: C_7  and  C_12
REMARK    5  A    between atoms: C_9  and  O_10
REMARK    6  A    between atoms: O_10  and  C_11
REMARK    7  A    between atoms: C_18  and  C_23
REMARK    8  A    between atoms: C_30  and  C_32
REMARK                            x       y       z     vdW  Elec       q    Type
REMARK                         _______ _______ _______ _____ _____    ______ ____
ROOT
ATOM      1  C   UNL     1      -1.996  -6.097  -0.011  0.00  0.00    +0.234 C 
ATOM      2  C   UNL     1      -1.934  -6.609   1.398  0.00  0.00    +0.027 C 
ATOM      3  C   UNL     1      -0.756  -6.975   1.945  0.00  0.00    +0.083 C 
ATOM      4  C   UNL     1       0.457  -6.859   1.097  0.00  0.00    +0.043 A 
ATOM      5  C   UNL     1       1.732  -6.893   1.646  0.00  0.00    +0.017 A 
ATOM      6  C   UNL     1       2.834  -6.781   0.820  0.00  0.00    -0.050 A 
ATOM      7  C   UNL     1       2.668  -6.634  -0.547  0.00  0.00    +0.007 A 
ATOM      8  C   UNL     1       1.402  -6.599  -1.101  0.00  0.00    +0.046 A 
ATOM      9  C   UNL     1       0.289  -6.712  -0.286  0.00  0.00    +0.131 A 
ATOM     10  O   UNL     1      -0.963  -6.689  -0.800  0.00  0.00    -0.479 OA
ATOM     11  C   UNL     1       4.220  -6.818   1.408  0.00  0.00    +0.044 C 
ATOM     12  N   UNL     1      -0.678  -7.433   3.218  0.00  0.00    -0.213 NA
ATOM     13  C   UNL     1      -1.709  -7.572   4.020  0.00  0.00    +0.237 C 
ATOM     14  N   UNL     1      -1.807  -8.009   5.295  0.00  0.00    -0.205 NA
ATOM     15  C   UNL     1      -3.050  -7.977   5.691  0.00  0.00    +0.203 C 
ATOM     16  N   UNL     1      -3.836  -7.510   4.681  0.00  0.00    -0.251 N 
ATOM     17  N   UNL     1      -2.985  -7.246   3.607  0.00  0.00    -0.208 N 
ATOM     18  C   UNL     1      -3.181  -6.733   2.245  0.00  0.00    +0.160 C 
ATOM     19  H   UNL     1      -4.798  -7.385   4.705  0.00  0.00    +0.171 HD
ENDROOT
BRANCH   1  23
ATOM     20  C   UNL     1      -1.498  -1.849   0.006  0.00  0.00    +0.162 A 
ATOM     21  C   UNL     1      -0.389  -2.680  -0.003  0.00  0.00    +0.050 A 
ATOM     22  C   UNL     1      -0.553  -4.052  -0.008  0.00  0.00    +0.011 A 
ATOM     23  C   UNL     1      -1.823  -4.600  -0.005  0.00  0.00    +0.001 A 
ATOM     24  C   UNL     1      -2.934  -3.777   0.004  0.00  0.00    +0.057 A 
ATOM     25  C   UNL     1      -2.776  -2.400   0.016  0.00  0.00    +0.162 A 
BRANCH  25  26
ATOM     26  O   UNL     1      -3.868  -1.589   0.030  0.00  0.00    -0.491 OA
ATOM     27  C   UNL     1      -5.148  -2.225   0.039  0.00  0.00    +0.277 C 
ENDBRANCH  25  26
BRANCH  20  28
ATOM     28  O   UNL     1      -1.339  -0.499   0.012  0.00  0.00    -0.489 OA
BRANCH  28  30
ATOM     29  C   UNL     1      -0.019   1.526   0.010  0.00  0.00    +0.048 C 
ATOM     30  C   UNL     1       0.002  -0.004   0.002  0.00  0.00    +0.226 C 
ENDBRANCH  28  30
ENDBRANCH  20  28
ENDBRANCH   1  23
BRANCH  18  31
ATOM     31  C   UNL     1      -4.145  -7.647   1.533  0.00  0.00    -0.003 A 
ATOM     32  C   UNL     1      -5.196  -7.122   0.796  0.00  0.00    +0.009 A 
ATOM     33  C   UNL     1      -6.058  -8.000   0.158  0.00  0.00    +0.020 A 
ATOM     34  C   UNL     1      -5.842  -9.360   0.276  0.00  0.00    +0.111 A 
ATOM     35  N   UNL     1      -4.832  -9.824   0.985  0.00  0.00    -0.263 NA
ATOM     36  C   UNL     1      -3.989  -9.018   1.601  0.00  0.00    +0.116 A 
ENDBRANCH  18  31
TORSDOF 5
