REMARK  Name = ZINC38675494
REMARK  8 active torsions:
REMARK  status: ('A' for Active; 'I' for Inactive)
REMARK    1  A    between atoms: C_1  and  N_2
REMARK    2  A    between atoms: C_6  and  C_7
REMARK    3  A    between atoms: C_7  and  C_9
REMARK    4  A    between atoms: C_7  and  N_27
REMARK    5  A    between atoms: C_9  and  N_10
REMARK    6  A    between atoms: N_13  and  C_14
REMARK    7  A    between atoms: C_14  and  C_15
REMARK    8  A    between atoms: C_14  and  C_21
REMARK                            x       y       z     vdW  Elec       q    Type
REMARK                         _______ _______ _______ _____ _____    ______ ____
ROOT
ATOM      1  N   UNL     1      -0.801   1.388   3.652  0.00  0.00    -0.301 N 
ATOM      2  C   UNL     1      -1.692   2.356   3.946  0.00  0.00    +0.300 C 
ATOM      3  O   UNL     1      -2.587   2.614   3.165  0.00  0.00    -0.253 OA
ATOM      4  N   UNL     1      -1.590   3.037   5.104  0.00  0.00    -0.289 N 
ATOM      5  H   UNL     1      -0.086   1.182   4.275  0.00  0.00    +0.150 HD
ATOM      6  H   UNL     1      -0.876   2.831   5.727  0.00  0.00    +0.151 HD
ENDROOT
BRANCH   1   7
ATOM      7  C   UNL     1      -0.911   0.647   2.393  0.00  0.00    +0.096 C 
BRANCH   7   8
ATOM      8  C   UNL     1       0.142  -0.463   2.360  0.00  0.00    -0.003 C 
BRANCH   8  14
ATOM      9  C   UNL     1      -2.393  -2.232   2.603  0.00  0.00    +0.148 C 
ATOM     10  N   UNL     1      -1.270  -2.237   3.543  0.00  0.00    -0.355 N 
ATOM     11  C   UNL     1      -1.169  -3.019   4.655  0.00  0.00    +0.085 A 
ATOM     12  C   UNL     1       0.003  -2.740   5.262  0.00  0.00    +0.019 A 
ATOM     13  C   UNL     1       0.648  -1.748   4.496  0.00  0.00    +0.021 A 
ATOM     14  C   UNL     1      -0.151  -1.464   3.448  0.00  0.00    +0.006 A 
ENDBRANCH   8  14
BRANCH   8  15
ATOM     15  N   UNL     1       1.473   0.119   2.575  0.00  0.00    +0.386 N 
ATOM     16  C   UNL     1       2.522  -0.912   2.366  0.00  0.00    -0.078 C 
ATOM     17  C   UNL     1       3.790  -0.072   2.067  0.00  0.00    -0.020 C 
ATOM     18  C   UNL     1       3.237   1.101   1.225  0.00  0.00    -0.020 C 
ATOM     19  C   UNL     1       1.738   1.173   1.572  0.00  0.00    -0.078 C 
ATOM     20  H   UNL     1       1.540   0.501   3.507  0.00  0.00    -0.081 HD
ENDBRANCH   8  15
ENDBRANCH   7   8
ENDBRANCH   1   7
BRANCH   4  21
ATOM     21  C   UNL     1      -2.559   4.089   5.423  0.00  0.00    +0.135 C 
BRANCH  21  22
ATOM     22  C   UNL     1      -2.639   4.262   6.917  0.00  0.00    -0.023 A 
ATOM     23  C   UNL     1      -1.489   4.212   7.682  0.00  0.00    +0.006 A 
ATOM     24  C   UNL     1      -1.562   4.370   9.053  0.00  0.00    +0.000 A 
ATOM     25  C   UNL     1      -2.787   4.580   9.660  0.00  0.00    +0.000 A 
ATOM     26  C   UNL     1      -3.937   4.630   8.895  0.00  0.00    +0.000 A 
ATOM     27  C   UNL     1      -3.863   4.476   7.524  0.00  0.00    +0.006 A 
ENDBRANCH  21  22
BRANCH  21  28
ATOM     28  C   UNL     1      -2.120   5.384   4.790  0.00  0.00    -0.023 A 
ATOM     29  C   UNL     1      -0.782   5.731   4.781  0.00  0.00    +0.006 A 
ATOM     30  C   UNL     1      -0.380   6.919   4.201  0.00  0.00    +0.000 A 
ATOM     31  C   UNL     1      -1.316   7.760   3.628  0.00  0.00    +0.000 A 
ATOM     32  C   UNL     1      -2.654   7.413   3.636  0.00  0.00    +0.000 A 
ATOM     33  C   UNL     1      -3.056   6.223   4.213  0.00  0.00    +0.006 A 
ENDBRANCH  21  28
ENDBRANCH   4  21
TORSDOF 7
