REMARK  Name = ZINC63557056
REMARK  6 active torsions:
REMARK  status: ('A' for Active; 'I' for Inactive)
REMARK    1  A    between atoms: C_6  and  C_11
REMARK    2  A    between atoms: C_11  and  C_12
REMARK    3  A    between atoms: C_12  and  N_13
REMARK    4  A    between atoms: C_15  and  C_20
REMARK    5  A    between atoms: N_22  and  C_23
REMARK    6  A    between atoms: C_27  and  C_30
REMARK                            x       y       z     vdW  Elec       q    Type
REMARK                         _______ _______ _______ _____ _____    ______ ____
ROOT
ATOM      1  N   UNL     1       5.000  -3.595  -1.503  0.00  0.00    -0.300 N 
ATOM      2  C   UNL     1       6.416  -3.969  -1.407  0.00  0.00    +0.121 C 
ATOM      3  C   UNL     1       6.421  -5.466  -1.024  0.00  0.00    +0.101 C 
ATOM      4  C   UNL     1       5.055  -5.937  -1.574  0.00  0.00    +0.110 C 
ATOM      5  C   UNL     1       4.213  -4.681  -1.598  0.00  0.00    +0.216 C 
ATOM      6  O   UNL     1       3.004  -4.656  -1.691  0.00  0.00    -0.276 OA
ENDROOT
BRANCH   3   7
ATOM      7  C   UNL     1       7.556  -6.192  -1.701  0.00  0.00    +0.220 C 
ATOM      8  O   UNL     1       8.311  -5.588  -2.433  0.00  0.00    -0.275 OA
ATOM      9  N   UNL     1       7.730  -7.512  -1.493  0.00  0.00    -0.290 N 
ATOM     10  H   UNL     1       7.126  -7.995  -0.907  0.00  0.00    +0.151 HD
BRANCH   9  11
ATOM     11  C   UNL     1       8.833  -8.217  -2.151  0.00  0.00    +0.216 C 
ATOM     12  N   UNL     1       8.492  -8.575  -3.562  0.00  0.00    -0.227 NA
ATOM     13  N   UNL     1       9.276  -9.690  -4.051  0.00  0.00    -0.241 NA
ATOM     14  C   UNL     1       9.647 -10.705  -3.035  0.00  0.00    +0.133 C 
ATOM     15  S   UNL     1       9.046  -9.925  -1.475  0.00  0.00    -0.102 S 
ATOM     16  H   UNL     1       8.584  -7.775  -4.170  0.00  0.00    +0.143 HD
ATOM     17  H   UNL     1      10.089  -9.368  -4.553  0.00  0.00    +0.142 HD
BRANCH  14  18
ATOM     18  C   UNL     1       8.927 -12.029  -3.299  0.00  0.00    +0.017 C 
ATOM     19  C   UNL     1       7.418 -11.785  -3.366  0.00  0.00    +0.006 C 
ATOM     20  C   UNL     1       6.698 -13.109  -3.630  0.00  0.00    +0.000 C 
ATOM     21  C   UNL     1       7.006 -14.091  -2.497  0.00  0.00    +0.000 C 
ATOM     22  C   UNL     1       8.515 -14.335  -2.430  0.00  0.00    +0.000 C 
ATOM     23  C   UNL     1       9.235 -13.011  -2.167  0.00  0.00    +0.006 C 
ENDBRANCH  14  18
ENDBRANCH   9  11
ENDBRANCH   3   7
BRANCH   1  24
ATOM     24  C   UNL     1       4.508  -2.215  -1.491  0.00  0.00    +0.112 C 
BRANCH  24  25
ATOM     25  C   UNL     1       4.231  -1.785  -0.049  0.00  0.00    +0.052 C 
BRANCH  25  31
ATOM     26  C   UNL     1      -0.017   1.399   0.010  0.00  0.00    +0.022 A 
ATOM     27  C   UNL     1       1.109   2.143   0.003  0.00  0.00    +0.027 A 
ATOM     28  C   UNL     1       2.385   1.516  -0.013  0.00  0.00    +0.043 A 
ATOM     29  N   UNL     1       3.600   2.009  -0.022  0.00  0.00    -0.380 N 
ATOM     30  C   UNL     1       4.557   0.897  -0.038  0.00  0.00    +0.144 C 
ATOM     31  C   UNL     1       3.724  -0.366  -0.036  0.00  0.00    -0.040 C 
ATOM     32  C   UNL     1       2.433   0.036  -0.021  0.00  0.00    +0.000 A 
ATOM     33  C   UNL     1       1.163  -0.699  -0.013  0.00  0.00    +0.030 A 
ATOM     34  C   UNL     1       0.002  -0.004   0.002  0.00  0.00    +0.042 A 
ATOM     35 CL   UNL     1      -1.502  -0.870   0.012  0.00  0.00    -0.084 Cl
ATOM     36  H   UNL     1       3.828   2.952  -0.020  0.00  0.00    +0.160 HD
ENDBRANCH  25  31
ENDBRANCH  24  25
ENDBRANCH   1  24
TORSDOF 6
