REMARK  Name = ZINC03371040
REMARK  12 active torsions:
REMARK  status: ('A' for Active; 'I' for Inactive)
REMARK    1  A    between atoms: C_1  and  C_2
REMARK    2  A    between atoms: C_2  and  C_3
REMARK    3  A    between atoms: C_3  and  C_4
REMARK    4  A    between atoms: C_4  and  N_5
REMARK    5  A    between atoms: C_9  and  S_31
REMARK    6  A    between atoms: C_13  and  S_14
REMARK    7  A    between atoms: S_14  and  C_15
REMARK    8  A    between atoms: C_15  and  C_17
REMARK    9  A    between atoms: C_15  and  C_18
REMARK   10  A    between atoms: N_20  and  C_21
REMARK   11  A    between atoms: C_21  and  C_22
REMARK   12  A    between atoms: S_31  and  N_34
REMARK                            x       y       z     vdW  Elec       q    Type
REMARK                         _______ _______ _______ _____ _____    ______ ____
ROOT
ATOM      1  N   UNL     1      -1.413  -1.998   0.005  0.00  0.00    -0.319 N 
ATOM      2  C   UNL     1      -1.419  -2.814  -1.115  0.00  0.00    +0.070 A 
ATOM      3  C   UNL     1      -1.442  -2.573  -2.480  0.00  0.00    +0.030 A 
ATOM      4  C   UNL     1      -1.441  -3.631  -3.365  0.00  0.00    +0.030 A 
ATOM      5  C   UNL     1      -1.417  -4.937  -2.898  0.00  0.00    +0.107 A 
ATOM      6  C   UNL     1      -1.385  -5.195  -1.546  0.00  0.00    +0.058 A 
ATOM      7  C   UNL     1      -1.391  -4.135  -0.637  0.00  0.00    +0.092 A 
ATOM      8  N   UNL     1      -1.379  -4.069   0.720  0.00  0.00    -0.222 NA
ATOM      9  C   UNL     1      -1.392  -2.815   1.100  0.00  0.00    +0.171 A 
ENDROOT
BRANCH   5  10
ATOM     10  S   UNL     1      -1.415  -6.275  -4.045  0.00  0.00    +0.056 S 
ATOM     11  O   UNL     1      -1.941  -7.401  -3.355  0.00  0.00    -0.153 OA
ATOM     12  O   UNL     1      -1.990  -5.781  -5.247  0.00  0.00    -0.153 OA
BRANCH  10  13
ATOM     13  N   UNL     1       0.167  -6.626  -4.386  0.00  0.00    -0.204 NA
ATOM     14  H   UNL     1       0.424  -7.533  -4.615  0.00  0.00    +0.144 HD
ATOM     15  H   UNL     1       0.837  -5.925  -4.355  0.00  0.00    +0.144 HD
ENDBRANCH  10  13
ENDBRANCH   5  10
BRANCH   1  16
ATOM     16  C   UNL     1      -1.433  -0.534   0.013  0.00  0.00    +0.124 C 
BRANCH  16  17
ATOM     17  C   UNL     1       0.002  -0.004   0.002  0.00  0.00    +0.021 C 
BRANCH  17  19
ATOM     18  C   UNL     1       1.417   2.055  -0.000  0.00  0.00    +0.004 C 
ATOM     19  C   UNL     1      -0.019   1.526   0.010  0.00  0.00    -0.002 C 
ENDBRANCH  17  19
ENDBRANCH  16  17
ENDBRANCH   1  16
BRANCH   9  20
ATOM     20  S   UNL     1      -1.384  -2.264   2.774  0.00  0.00    -0.075 S 
BRANCH  20  21
ATOM     21  C   UNL     1      -1.355  -3.858   3.630  0.00  0.00    +0.137 C 
ATOM     22  C   UNL     1      -2.655  -4.613   3.346  0.00  0.00    +0.029 C 
BRANCH  21  23
ATOM     23  C   UNL     1      -1.220  -3.630   5.113  0.00  0.00    +0.226 C 
ATOM     24  O   UNL     1      -1.595  -2.585   5.602  0.00  0.00    -0.275 OA
ATOM     25  N   UNL     1      -0.684  -4.587   5.897  0.00  0.00    -0.310 N 
ATOM     26  H   UNL     1      -0.385  -5.422   5.505  0.00  0.00    +0.149 HD
BRANCH  25  27
ATOM     27  C   UNL     1      -0.554  -4.364   7.339  0.00  0.00    +0.139 C 
BRANCH  27  28
ATOM     28  C   UNL     1       0.071  -5.577   7.979  0.00  0.00    -0.027 A 
ATOM     29  C   UNL     1      -0.733  -6.600   8.449  0.00  0.00    +0.009 A 
ATOM     30  C   UNL     1      -0.165  -7.717   9.032  0.00  0.00    +0.050 A 
ATOM     31  C   UNL     1       1.212  -7.809   9.158  0.00  0.00    +0.166 A 
ATOM     32  C   UNL     1       2.021  -6.776   8.690  0.00  0.00    +0.167 A 
ATOM     33  C   UNL     1       1.445  -5.662   8.101  0.00  0.00    +0.054 A 
ATOM     34  O   UNL     1       3.325  -7.102   8.928  0.00  0.00    -0.453 OA
ATOM     35  C   UNL     1       3.286  -8.153   9.912  0.00  0.00    +0.466 C 
ATOM     36  O   UNL     1       2.009  -8.781   9.690  0.00  0.00    -0.453 OA
ENDBRANCH  27  28
ENDBRANCH  25  27
ENDBRANCH  21  23
ENDBRANCH  20  21
ENDBRANCH   9  20
TORSDOF 10
