REMARK  Name = ZINC26920183
REMARK  8 active torsions:
REMARK  status: ('A' for Active; 'I' for Inactive)
REMARK    1  A    between atoms: C_1  and  C_2
REMARK    2  A    between atoms: C_2  and  C_3
REMARK    3  A    between atoms: C_3  and  C_4
REMARK    4  A    between atoms: C_5  and  O_31
REMARK    5  A    between atoms: C_6  and  C_23
REMARK    6  A    between atoms: C_12  and  C_17
REMARK    7  A    between atoms: C_23  and  N_24
REMARK    8  A    between atoms: N_27  and  C_30
REMARK                            x       y       z     vdW  Elec       q    Type
REMARK                         _______ _______ _______ _____ _____    ______ ____
ROOT
ATOM      1  C   UNL     1      -2.324   0.409   4.639  0.00  0.00    -0.009 C 
ATOM      2  C   UNL     1      -1.993   1.552   4.011  0.00  0.00    +0.105 C 
ATOM      3  C   UNL     1      -0.549   1.890   3.752  0.00  0.00    +0.114 C 
ATOM      4  C   UNL     1       0.323   1.392   4.907  0.00  0.00    +0.219 C 
ATOM      5  C   UNL     1      -0.041  -0.034   5.239  0.00  0.00    +0.002 C 
ATOM      6  C   UNL     1      -1.322  -0.462   5.109  0.00  0.00    +0.014 C 
ATOM      7  C   UNL     1       0.954  -0.918   5.719  0.00  0.00    -0.004 C 
ATOM      8  C   UNL     1       2.276  -0.495   5.747  0.00  0.00    +0.100 C 
ATOM      9  C   UNL     1       2.601   0.768   5.230  0.00  0.00    +0.333 C 
ATOM     10  O   UNL     1       3.708   1.238   5.428  0.00  0.00    -0.246 OA
ATOM     11  O   UNL     1       1.694   1.464   4.515  0.00  0.00    -0.453 OA
ENDROOT
BRANCH   7  12
ATOM     12  C   UNL     1       0.590  -2.276   6.184  0.00  0.00    -0.017 A 
ATOM     13  C   UNL     1       0.068  -3.208   5.287  0.00  0.00    +0.008 A 
ATOM     14  C   UNL     1      -0.265  -4.473   5.726  0.00  0.00    +0.001 A 
ATOM     15  C   UNL     1      -0.092  -4.814   7.056  0.00  0.00    +0.000 A 
ATOM     16  C   UNL     1       0.421  -3.893   7.952  0.00  0.00    +0.001 A 
ATOM     17  C   UNL     1       0.762  -2.627   7.524  0.00  0.00    +0.008 A 
ENDBRANCH   7  12
BRANCH   2  18
ATOM     18  O   UNL     1      -2.962   2.401   3.609  0.00  0.00    -0.510 OA
ATOM     19  H   UNL     1      -2.696   3.336   3.095  0.00  0.00    +0.292 HD
ENDBRANCH   2  18
BRANCH   1  20
ATOM     20  C   UNL     1      -3.776   0.060   4.842  0.00  0.00    +0.038 C 
BRANCH  20  22
ATOM     21  C   UNL     1      -5.712  -1.225   3.925  0.00  0.00    +0.004 C 
ATOM     22  C   UNL     1      -4.238  -0.870   3.719  0.00  0.00    +0.001 C 
ENDBRANCH  20  22
ENDBRANCH   1  20
BRANCH   3  23
ATOM     23  C   UNL     1      -0.097   1.223   2.451  0.00  0.00    +0.099 C 
BRANCH  23  24
ATOM     24  N   UNL     1      -0.880   1.758   1.329  0.00  0.00    -0.305 NA
ATOM     25  C   UNL     1      -0.412   1.205   0.050  0.00  0.00    +0.066 C 
ATOM     26  C   UNL     1      -1.301   1.724  -1.083  0.00  0.00    -0.064 C 
ATOM     27  N   UNL     1      -1.260   3.193  -1.101  0.00  0.00    +0.379 N 
ATOM     28  C   UNL     1      -1.728   3.745   0.178  0.00  0.00    -0.064 C 
ATOM     29  C   UNL     1      -0.839   3.227   1.311  0.00  0.00    +0.066 C 
ATOM     30  C   UNL     1      -2.042   3.728  -2.223  0.00  0.00    -0.096 C 
ATOM     31  H   UNL     1      -0.213   3.502  -1.242  0.00  0.00    -0.082 HD
ENDBRANCH  23  24
ENDBRANCH   3  23
TORSDOF 6
