REMARK  Name = ZINC62688848
REMARK  4 active torsions:
REMARK  status: ('A' for Active; 'I' for Inactive)
REMARK    1  A    between atoms: C_1  and  C_2
REMARK    2  A    between atoms: C_2  and  S_3
REMARK    3  A    between atoms: S_3  and  N_6
REMARK    4  A    between atoms: C_12  and  C_14
REMARK                            x       y       z     vdW  Elec       q    Type
REMARK                         _______ _______ _______ _____ _____    ______ ____
ROOT
ATOM      1  N   UNL     1       0.846  -2.229   1.579  0.00  0.00    -0.163 NA
ATOM      2  C   UNL     1      -0.357  -2.845   2.165  0.00  0.00    +0.129 C 
ATOM      3  C   UNL     1      -1.203  -3.417   1.027  0.00  0.00    +0.121 C 
ATOM      4  N   UNL     1      -0.376  -4.179   0.101  0.00  0.00    -0.312 N 
ATOM      5  C   UNL     1       0.942  -4.029  -0.035  0.00  0.00    +0.237 C 
ATOM      6  O   UNL     1       1.511  -4.666  -0.897  0.00  0.00    -0.274 OA
ATOM      7  C   UNL     1       1.753  -3.107   0.826  0.00  0.00    +0.198 C 
ATOM      8  H   UNL     1      -0.815  -4.841  -0.456  0.00  0.00    +0.149 HD
ENDROOT
BRANCH   7   9
ATOM      9  C   UNL     1       2.657  -2.271  -0.044  0.00  0.00    +0.015 A 
ATOM     10  C   UNL     1       2.122  -1.500  -1.058  0.00  0.00    +0.008 A 
ATOM     11  C   UNL     1       2.950  -0.733  -1.855  0.00  0.00    +0.001 A 
ATOM     12  C   UNL     1       4.316  -0.737  -1.640  0.00  0.00    +0.003 A 
ATOM     13  C   UNL     1       4.854  -1.506  -0.626  0.00  0.00    +0.039 A 
ATOM     14  C   UNL     1       4.024  -2.271   0.177  0.00  0.00    +0.129 A 
ATOM     15  F   UNL     1       4.548  -3.020   1.171  0.00  0.00    -0.205 F 
ENDBRANCH   7   9
BRANCH   1  16
ATOM     16  S   UNL     1       1.159  -0.612   1.755  0.00  0.00    +0.033 S 
ATOM     17  O   UNL     1       2.552  -0.484   1.505  0.00  0.00    -0.158 OA
ATOM     18  O   UNL     1       0.616  -0.274   3.024  0.00  0.00    -0.158 OA
BRANCH  16  20
ATOM     19  C   UNL     1       0.264   1.711   0.622  0.00  0.00    +0.029 C 
ATOM     20  C   UNL     1       0.210   0.193   0.435  0.00  0.00    +0.182 C 
ENDBRANCH  16  20
ENDBRANCH   1  16
TORSDOF 3
