REMARK  Name = ZINC46699467
REMARK  13 active torsions:
REMARK  status: ('A' for Active; 'I' for Inactive)
REMARK    1  A    between atoms: C_1  and  N_2
REMARK    2  A    between atoms: N_2  and  C_3
REMARK    3  A    between atoms: N_2  and  C_4
REMARK    4  A    between atoms: C_4  and  C_6
REMARK    5  A    between atoms: C_4  and  C_26
REMARK    6  A    between atoms: C_6  and  N_7
REMARK    7  A    between atoms: C_8  and  C_10
REMARK    8  A    between atoms: C_10  and  C_11
REMARK    9  A    between atoms: C_14  and  N_17
REMARK   10  A    between atoms: N_17  and  S_18
REMARK   11  A    between atoms: S_18  and  C_21
REMARK   12  A    between atoms: C_31  and  O_32
REMARK   13  A    between atoms: O_32  and  C_33
REMARK                            x       y       z     vdW  Elec       q    Type
REMARK                         _______ _______ _______ _____ _____    ______ ____
ROOT
ATOM      1  N   UNL     1      -0.620  -2.990   0.732  0.00  0.00    -0.316 N 
ATOM      2  C   UNL     1      -0.855  -4.289   1.003  0.00  0.00    +0.217 C 
ATOM      3  O   UNL     1      -1.524  -4.956   0.243  0.00  0.00    -0.275 OA
ATOM      4  H   UNL     1      -0.085  -2.456   1.340  0.00  0.00    +0.149 HD
ENDROOT
BRANCH   1   5
ATOM      5  C   UNL     1      -1.173  -2.384  -0.481  0.00  0.00    +0.093 C 
BRANCH   5   6
ATOM      6  C   UNL     1      -0.869  -0.884  -0.487  0.00  0.00    -0.017 C 
BRANCH   6   7
ATOM      7  C   UNL     1       0.619  -0.674  -0.601  0.00  0.00    -0.018 A 
ATOM      8  C   UNL     1       1.382  -0.495   0.538  0.00  0.00    +0.005 A 
ATOM      9  C   UNL     1       2.747  -0.302   0.434  0.00  0.00    +0.000 A 
ATOM     10  C   UNL     1       3.353  -0.288  -0.809  0.00  0.00    +0.004 A 
ATOM     11  C   UNL     1       2.595  -0.467  -1.950  0.00  0.00    +0.046 A 
ATOM     12  C   UNL     1       1.226  -0.666  -1.848  0.00  0.00    +0.122 A 
BRANCH  12  13
ATOM     13  O   UNL     1       0.479  -0.849  -2.969  0.00  0.00    -0.495 OA
ATOM     14  C   UNL     1       1.171  -0.829  -4.220  0.00  0.00    +0.277 C 
ENDBRANCH  12  13
ENDBRANCH   6   7
BRANCH   6  16
ATOM     15  C   UNL     1      -1.153   1.173   0.714  0.00  0.00    -0.096 C 
ATOM     16  N   UNL     1      -1.354  -0.281   0.762  0.00  0.00    +0.382 N 
ATOM     17  C   UNL     1      -2.784  -0.573   0.923  0.00  0.00    -0.096 C 
ATOM     18  H   UNL     1      -0.842  -0.666   1.542  0.00  0.00    -0.082 HD
ENDBRANCH   6  16
ENDBRANCH   5   6
ENDBRANCH   1   5
BRANCH   2  19
ATOM     19  C   UNL     1      -0.286  -4.913   2.252  0.00  0.00    +0.130 C 
BRANCH  19  20
ATOM     20  C   UNL     1      -0.692  -6.362   2.319  0.00  0.00    -0.039 A 
ATOM     21  C   UNL     1      -1.870  -6.721   2.948  0.00  0.00    +0.006 A 
ATOM     22  C   UNL     1      -2.245  -8.048   3.011  0.00  0.00    +0.025 A 
ATOM     23  C   UNL     1      -1.437  -9.024   2.442  0.00  0.00    +0.048 A 
ATOM     24  C   UNL     1      -0.254  -8.661   1.810  0.00  0.00    +0.025 A 
ATOM     25  C   UNL     1       0.112  -7.331   1.746  0.00  0.00    +0.006 A 
BRANCH  23  26
ATOM     26  N   UNL     1      -1.813 -10.368   2.504  0.00  0.00    -0.216 N 
ATOM     27  H   UNL     1      -2.126 -10.746   3.341  0.00  0.00    +0.174 HD
BRANCH  26  28
ATOM     28  S   UNL     1      -1.724 -11.317   1.150  0.00  0.00    +0.079 S 
ATOM     29  O   UNL     1      -0.412 -11.155   0.627  0.00  0.00    -0.149 OA
ATOM     30  O   UNL     1      -2.250 -12.587   1.508  0.00  0.00    -0.149 OA
BRANCH  28  31
ATOM     31  C   UNL     1      -2.828 -10.632  -0.040  0.00  0.00    +0.146 A 
ATOM     32  C   UNL     1      -2.566  -9.766  -1.050  0.00  0.00    +0.036 A 
ATOM     33  C   UNL     1      -3.601  -9.360  -1.870  0.00  0.00    +0.010 A 
ATOM     34  C   UNL     1      -4.849  -9.838  -1.640  0.00  0.00    +0.047 A 
ATOM     35  S   UNL     1      -4.582 -10.903  -0.233  0.00  0.00    -0.077 S 
ENDBRANCH  28  31
ENDBRANCH  26  28
ENDBRANCH  23  26
ENDBRANCH  19  20
ENDBRANCH   2  19
TORSDOF 10
