REMARK  Name = ZINC13713572
REMARK  14 active torsions:
REMARK  status: ('A' for Active; 'I' for Inactive)
REMARK    1  A    between atoms: C_1  and  C_2
REMARK    2  A    between atoms: C_2  and  O_3
REMARK    3  A    between atoms: O_3  and  C_4
REMARK    4  A    between atoms: C_4  and  C_6
REMARK    5  A    between atoms: C_7  and  N_20
REMARK    6  A    between atoms: C_10  and  O_18
REMARK    7  A    between atoms: C_11  and  O_16
REMARK    8  A    between atoms: O_16  and  C_17
REMARK    9  A    between atoms: O_18  and  C_19
REMARK   10  A    between atoms: C_21  and  C_23
REMARK   11  A    between atoms: C_23  and  C_25
REMARK   12  A    between atoms: C_23  and  N_26
REMARK   13  A    between atoms: C_28  and  C_35
REMARK   14  A    between atoms: C_31  and  C_34
REMARK                            x       y       z     vdW  Elec       q    Type
REMARK                         _______ _______ _______ _____ _____    ______ ____
ROOT
ATOM      1  C   UNL     1       2.528  -3.272  -3.390  0.00  0.00    +0.147 A 
ATOM      2  C   UNL     1       1.255  -3.631  -2.995  0.00  0.00    +0.073 A 
ATOM      3  C   UNL     1       0.346  -2.617  -3.533  0.00  0.00    +0.025 A 
ATOM      4  C   UNL     1      -1.041  -2.439  -3.470  0.00  0.00    +0.061 A 
ATOM      5  C   UNL     1      -1.620  -1.357  -4.093  0.00  0.00    +0.162 A 
ATOM      6  C   UNL     1      -0.827  -0.438  -4.789  0.00  0.00    +0.163 A 
ATOM      7  C   UNL     1       0.541  -0.604  -4.858  0.00  0.00    +0.075 A 
ATOM      8  C   UNL     1       1.144  -1.692  -4.232  0.00  0.00    +0.053 A 
ATOM      9  N   UNL     1       2.455  -2.100  -4.130  0.00  0.00    -0.347 N 
ATOM     10  H   UNL     1       3.215  -1.639  -4.520  0.00  0.00    +0.166 HD
ENDROOT
BRANCH   2  11
ATOM     11  N   UNL     1       0.903  -4.742  -2.234  0.00  0.00    -0.284 N 
ATOM     12  C   UNL     1      -0.136  -4.670  -1.379  0.00  0.00    +0.203 C 
ATOM     13  O   UNL     1      -0.818  -3.668  -1.335  0.00  0.00    -0.277 OA
ATOM     14  H   UNL     1       1.405  -5.567  -2.320  0.00  0.00    +0.155 HD
BRANCH  12  15
ATOM     15  C   UNL     1      -0.450  -5.836  -0.476  0.00  0.00    +0.016 C 
ATOM     16  C   UNL     1      -1.373  -6.813  -1.208  0.00  0.00    -0.004 C 
BRANCH  15  17
ATOM     17  N   UNL     1      -1.116  -5.349   0.739  0.00  0.00    +0.387 N 
ATOM     18  C   UNL     1      -0.216  -4.439   1.457  0.00  0.00    -0.075 C 
ATOM     19  C   UNL     1      -0.935  -3.865   2.680  0.00  0.00    -0.031 C 
ATOM     20  C   UNL     1      -1.349  -5.012   3.607  0.00  0.00    +0.003 C 
ATOM     21  C   UNL     1      -2.227  -5.994   2.826  0.00  0.00    -0.031 C 
ATOM     22  C   UNL     1      -1.460  -6.489   1.597  0.00  0.00    -0.075 C 
ATOM     23  C   UNL     1      -2.583  -7.184   3.720  0.00  0.00    +0.005 C 
ATOM     24  C   UNL     1       0.006  -2.918   3.428  0.00  0.00    +0.005 C 
ATOM     25  H   UNL     1      -1.958  -4.854   0.484  0.00  0.00    -0.081 HD
ENDBRANCH  15  17
ENDBRANCH  12  15
ENDBRANCH   2  11
BRANCH   1  26
ATOM     26  C   UNL     1       3.715  -3.982  -3.085  0.00  0.00    +0.358 C 
ATOM     27  O   UNL     1       3.672  -4.958  -2.361  0.00  0.00    -0.243 OA
BRANCH  26  28
ATOM     28  O   UNL     1       4.895  -3.575  -3.599  0.00  0.00    -0.460 OA
BRANCH  28  30
ATOM     29  C   UNL     1       7.286  -3.729  -3.920  0.00  0.00    +0.048 C 
ATOM     30  C   UNL     1       6.053  -4.337  -3.249  0.00  0.00    +0.229 C 
ENDBRANCH  28  30
ENDBRANCH  26  28
ENDBRANCH   1  26
BRANCH   6  31
ATOM     31  O   UNL     1      -1.409   0.626  -5.401  0.00  0.00    -0.491 OA
ATOM     32  C   UNL     1      -0.544   1.528  -6.095  0.00  0.00    +0.277 C 
ENDBRANCH   6  31
BRANCH   5  33
ATOM     33  O   UNL     1      -2.968  -1.181  -4.034  0.00  0.00    -0.491 OA
ATOM     34  C   UNL     1      -3.718  -2.156  -3.308  0.00  0.00    +0.277 C 
ENDBRANCH   5  33
TORSDOF 8
