REMARK  Name = ZINC00237115
REMARK  7 active torsions:
REMARK  status: ('A' for Active; 'I' for Inactive)
REMARK    1  A    between atoms: C_1  and  C_2
REMARK    2  A    between atoms: C_6  and  N_8
REMARK    3  A    between atoms: N_8  and  C_9
REMARK    4  A    between atoms: C_9  and  C_11
REMARK    5  A    between atoms: C_9  and  C_12
REMARK    6  A    between atoms: N_14  and  N_15
REMARK    7  A    between atoms: C_16  and  C_17
REMARK                            x       y       z     vdW  Elec       q    Type
REMARK                         _______ _______ _______ _____ _____    ______ ____
ROOT
ATOM      1  C   UNL     1       1.170   3.359   0.009  0.00  0.00    +0.252 C 
ATOM      2  O   UNL     1       0.111   3.952   0.022  0.00  0.00    -0.272 OA
ATOM      3  N   UNL     1       1.188   2.012   0.002  0.00  0.00    -0.205 N 
ATOM      4  H   UNL     1       2.035   1.538  -0.009  0.00  0.00    +0.177 HD
ENDROOT
BRANCH   1   5
ATOM      5  C   UNL     1       2.465   4.131   0.001  0.00  0.00    +0.155 C 
ATOM      6  C   UNL     1       3.260   3.779  -1.258  0.00  0.00    +0.038 C 
BRANCH   5   7
ATOM      7  N   UNL     1       2.177   5.567   0.011  0.00  0.00    -0.333 N 
ATOM      8  H   UNL     1       1.332   5.895  -0.334  0.00  0.00    +0.147 HD
BRANCH   7  14
ATOM      9  C   UNL     1       3.492  10.189   1.040  0.00  0.00    +0.044 C 
ATOM     10  C   UNL     1       3.784   8.711   1.030  0.00  0.00    -0.049 A 
ATOM     11  C   UNL     1       4.989   8.241   1.521  0.00  0.00    +0.003 A 
ATOM     12  C   UNL     1       5.261   6.886   1.513  0.00  0.00    +0.002 A 
ATOM     13  C   UNL     1       4.331   5.996   1.013  0.00  0.00    +0.023 A 
ATOM     14  C   UNL     1       3.120   6.464   0.518  0.00  0.00    +0.028 A 
ATOM     15  C   UNL     1       2.852   7.827   0.524  0.00  0.00    +0.026 A 
ENDBRANCH   7  14
ENDBRANCH   5   7
ENDBRANCH   1   5
BRANCH   3  16
ATOM     16  N   UNL     1      -0.015   1.295   0.009  0.00  0.00    -0.188 NA
ATOM     17  C   UNL     1       0.002  -0.004   0.002  0.00  0.00    +0.140 C 
BRANCH  17  18
ATOM     18  C   UNL     1      -1.262  -0.757   0.010  0.00  0.00    +0.020 A 
ATOM     19  C   UNL     1      -1.403  -2.110  -0.002  0.00  0.00    +0.093 A 
ATOM     20  N   UNL     1      -2.727  -2.435   0.014  0.00  0.00    -0.360 N 
ATOM     21  H   UNL     1      -3.076  -3.340   0.011  0.00  0.00    +0.165 HD
ATOM     22  C   UNL     1      -3.498  -1.292   0.028  0.00  0.00    +0.047 A 
ATOM     23  C   UNL     1      -2.624  -0.193   0.026  0.00  0.00    +0.008 A 
ATOM     24  C   UNL     1      -3.132   1.104   0.038  0.00  0.00    +0.010 A 
ATOM     25  C   UNL     1      -4.496   1.301   0.052  0.00  0.00    +0.001 A 
ATOM     26  C   UNL     1      -5.361   0.216   0.053  0.00  0.00    +0.002 A 
ATOM     27  C   UNL     1      -4.872  -1.071   0.041  0.00  0.00    +0.026 A 
ENDBRANCH  17  18
ENDBRANCH   3  16
TORSDOF 5
