REMARK  Name = ZINC20764632
REMARK  9 active torsions:
REMARK  status: ('A' for Active; 'I' for Inactive)
REMARK    1  A    between atoms: C_1  and  C_2
REMARK    2  A    between atoms: C_2  and  O_3
REMARK    3  A    between atoms: O_3  and  C_4
REMARK    4  A    between atoms: C_7  and  C_10
REMARK    5  A    between atoms: C_12  and  C_26
REMARK    6  A    between atoms: C_15  and  C_18
REMARK    7  A    between atoms: C_23  and  O_24
REMARK    8  A    between atoms: C_31  and  O_32
REMARK    9  A    between atoms: O_32  and  C_33
REMARK                            x       y       z     vdW  Elec       q    Type
REMARK                         _______ _______ _______ _____ _____    ______ ____
ROOT
ATOM      1  C   UNL     1      -4.064   1.965   2.388  0.00  0.00    +0.047 C 
ATOM      2  N   UNL     1      -2.789   2.081   2.366  0.00  0.00    -0.264 NA
ATOM      3  C   UNL     1      -1.982   2.457   3.520  0.00  0.00    +0.207 C 
ATOM      4  N   UNL     1      -2.739   2.274   4.764  0.00  0.00    -0.284 NA
ATOM      5  C   UNL     1      -4.048   2.942   4.666  0.00  0.00    +0.095 C 
ATOM      6  C   UNL     1      -4.888   2.197   3.624  0.00  0.00    +0.079 C 
ATOM      7  H   UNL     1      -2.895   1.200   4.944  0.00  0.00    +0.125 HD
ENDROOT
BRANCH   5   8
ATOM      8  C   UNL     1      -4.741   2.901   6.003  0.00  0.00    +0.013 A 
ATOM      9  C   UNL     1      -4.357   1.974   6.953  0.00  0.00    +0.028 A 
ATOM     10  C   UNL     1      -4.994   1.936   8.181  0.00  0.00    +0.042 A 
ATOM     11  C   UNL     1      -6.016   2.826   8.460  0.00  0.00    +0.023 A 
ATOM     12  C   UNL     1      -6.402   3.754   7.514  0.00  0.00    +0.047 A 
ATOM     13  C   UNL     1      -5.761   3.798   6.284  0.00  0.00    +0.122 A 
ATOM     14 CL   UNL     1      -4.509   0.770   9.372  0.00  0.00    -0.084 Cl
BRANCH  13  15
ATOM     15  O   UNL     1      -6.137   4.715   5.353  0.00  0.00    -0.506 OA
ATOM     16  H   UNL     1      -6.946   5.426   5.576  0.00  0.00    +0.292 HD
ENDBRANCH  13  15
ENDBRANCH   5   8
BRANCH   3  17
ATOM     17  C   UNL     1      -0.744   1.599   3.561  0.00  0.00    +0.034 A 
ATOM     18  C   UNL     1      -0.203   1.224   4.776  0.00  0.00    +0.026 A 
ATOM     19  C   UNL     1       0.937   0.441   4.814  0.00  0.00    +0.018 A 
ATOM     20  C   UNL     1       1.535   0.028   3.637  0.00  0.00    +0.019 A 
ATOM     21  C   UNL     1       0.994   0.397   2.421  0.00  0.00    +0.047 A 
ATOM     22  C   UNL     1      -0.149   1.182   2.380  0.00  0.00    +0.127 A 
ATOM     23 BR   UNL     1       1.679  -0.065   6.478  0.00  0.00    -0.050 Br
BRANCH  22  24
ATOM     24  O   UNL     1      -0.682   1.547   1.184  0.00  0.00    -0.495 OA
ATOM     25  C   UNL     1      -0.013   1.086   0.008  0.00  0.00    +0.277 C 
ENDBRANCH  22  24
ENDBRANCH   3  17
BRANCH   1  29
ATOM     26  C   UNL     1      -6.059   0.877  -1.198  0.00  0.00    +0.121 A 
ATOM     27  C   UNL     1      -4.676   1.010  -1.188  0.00  0.00    +0.046 A 
ATOM     28  C   UNL     1      -4.024   1.363  -0.026  0.00  0.00    +0.013 A 
ATOM     29  C   UNL     1      -4.757   1.587   1.143  0.00  0.00    -0.004 A 
ATOM     30  C   UNL     1      -6.147   1.446   1.129  0.00  0.00    +0.013 A 
ATOM     31  C   UNL     1      -6.791   1.098  -0.038  0.00  0.00    +0.046 A 
BRANCH  26  32
ATOM     32  O   UNL     1      -6.697   0.529  -2.345  0.00  0.00    -0.492 OA
BRANCH  32  34
ATOM     33  C   UNL     1      -8.656   0.013  -3.662  0.00  0.00    +0.048 C 
ATOM     34  C   UNL     1      -8.119   0.409  -2.285  0.00  0.00    +0.225 C 
ENDBRANCH  32  34
ENDBRANCH  26  32
ENDBRANCH   1  29
TORSDOF 7
