REMARK  Name = ZINC64814506
REMARK  6 active torsions:
REMARK  status: ('A' for Active; 'I' for Inactive)
REMARK    1  A    between atoms: C_1  and  C_2
REMARK    2  A    between atoms: C_4  and  N_13
REMARK    3  A    between atoms: N_13  and  C_14
REMARK    4  A    between atoms: C_17  and  N_20
REMARK    5  A    between atoms: N_20  and  S_21
REMARK    6  A    between atoms: S_21  and  C_24
REMARK                            x       y       z     vdW  Elec       q    Type
REMARK                         _______ _______ _______ _____ _____    ______ ____
ROOT
ATOM      1  C   UNL     1       0.438  -2.026  -3.588  0.00  0.00    +0.032 A 
ATOM      2  C   UNL     1       0.922  -0.755  -3.873  0.00  0.00    +0.025 A 
ATOM      3  C   UNL     1       0.627  -0.160  -5.083  0.00  0.00    +0.026 A 
ATOM      4  C   UNL     1      -0.152  -0.832  -6.016  0.00  0.00    +0.048 A 
ATOM      5  C   UNL     1      -0.635  -2.102  -5.732  0.00  0.00    +0.026 A 
ATOM      6  C   UNL     1      -0.337  -2.700  -4.523  0.00  0.00    +0.025 A 
ENDROOT
BRANCH   1   7
ATOM      7  N   UNL     1       0.736  -2.630  -2.360  0.00  0.00    -0.299 N 
ATOM      8  H   UNL     1       0.851  -3.591  -2.307  0.00  0.00    +0.154 HD
BRANCH   7  12
ATOM      9  C   UNL     1       1.850  -2.187   2.414  0.00  0.00    +0.063 C 
ATOM     10  C   UNL     1       1.403  -1.613   1.094  0.00  0.00    +0.019 A 
ATOM     11  C   UNL     1       1.286  -2.426  -0.016  0.00  0.00    +0.064 A 
ATOM     12  C   UNL     1       0.868  -1.853  -1.220  0.00  0.00    +0.128 A 
ATOM     13  N   UNL     1       0.598  -0.551  -1.255  0.00  0.00    -0.201 NA
ATOM     14  C   UNL     1       0.723   0.193  -0.167  0.00  0.00    +0.197 A 
ATOM     15  N   UNL     1       1.113  -0.325   0.989  0.00  0.00    -0.331 N 
ATOM     16  N   UNL     1       0.435   1.545  -0.238  0.00  0.00    -0.301 N 
ATOM     17  C   UNL     1       0.531   2.501   0.875  0.00  0.00    +0.108 C 
ATOM     18  C   UNL     1       0.088   3.878   0.336  0.00  0.00    +0.020 C 
ATOM     19  C   UNL     1      -0.771   3.507  -0.901  0.00  0.00    +0.020 C 
ATOM     20  C   UNL     1      -0.013   2.266  -1.443  0.00  0.00    +0.108 C 
ATOM     21  H   UNL     1       1.190   0.248   1.767  0.00  0.00    +0.168 HD
ENDBRANCH   7  12
ENDBRANCH   1   7
BRANCH   4  22
ATOM     22  N   UNL     1      -0.450  -0.229  -7.243  0.00  0.00    -0.216 N 
ATOM     23  H   UNL     1      -0.728   0.701  -7.272  0.00  0.00    +0.174 HD
BRANCH  22  24
ATOM     24  S   UNL     1      -0.330  -1.100  -8.646  0.00  0.00    +0.072 S 
ATOM     25  O   UNL     1      -1.089  -2.286  -8.454  0.00  0.00    -0.150 OA
ATOM     26  O   UNL     1      -0.587  -0.195  -9.710  0.00  0.00    -0.150 OA
BRANCH  24  27
ATOM     27  C   UNL     1       1.352  -1.600  -8.806  0.00  0.00    +0.111 A 
ATOM     28  C   UNL     1       2.278  -0.741  -9.368  0.00  0.00    +0.032 A 
ATOM     29  C   UNL     1       3.598  -1.131  -9.494  0.00  0.00    +0.043 A 
ATOM     30  C   UNL     1       3.994  -2.383  -9.057  0.00  0.00    +0.159 A 
ATOM     31  C   UNL     1       3.067  -3.244  -8.492  0.00  0.00    +0.160 A 
ATOM     32  C   UNL     1       1.746  -2.849  -8.363  0.00  0.00    +0.070 A 
ATOM     33  F   UNL     1       3.451  -4.467  -8.065  0.00  0.00    -0.202 F 
ATOM     34  F   UNL     1       5.285  -2.765  -9.180  0.00  0.00    -0.202 F 
ENDBRANCH  24  27
ENDBRANCH  22  24
ENDBRANCH   4  22
TORSDOF 5
