REMARK  Name = ZINC64228219
REMARK  10 active torsions:
REMARK  status: ('A' for Active; 'I' for Inactive)
REMARK    1  A    between atoms: C_1  and  C_2
REMARK    2  A    between atoms: C_2  and  N_3
REMARK    3  A    between atoms: N_3  and  C_4
REMARK    4  A    between atoms: N_3  and  C_6
REMARK    5  A    between atoms: C_4  and  C_5
REMARK    6  A    between atoms: C_6  and  C_7
REMARK    7  A    between atoms: C_7  and  C_8
REMARK    8  A    between atoms: C_8  and  N_9
REMARK    9  A    between atoms: C_29  and  C_31
REMARK   10  A    between atoms: C_35  and  N_37
REMARK                            x       y       z     vdW  Elec       q    Type
REMARK                         _______ _______ _______ _____ _____    ______ ____
ROOT
ATOM      1  N   UNL     1       2.352  -4.535   3.681  0.00  0.00    -0.291 N 
ATOM      2  C   UNL     1       3.815  -4.613   3.852  0.00  0.00    +0.203 C 
ATOM      3  C   UNL     1       4.155  -5.950   4.475  0.00  0.00    +0.234 C 
ATOM      4  O   UNL     1       5.081  -6.622   4.072  0.00  0.00    -0.274 OA
ATOM      5  N   UNL     1       3.366  -6.368   5.519  0.00  0.00    -0.279 N 
ATOM      6  C   UNL     1       2.351  -5.428   5.945  0.00  0.00    +0.167 C 
ATOM      7  C   UNL     1       1.589  -4.920   4.746  0.00  0.00    +0.237 C 
ATOM      8  O   UNL     1       0.378  -4.862   4.728  0.00  0.00    -0.274 OA
ATOM      9  C   UNL     1       1.440  -5.823   7.078  0.00  0.00    +0.065 C 
ATOM     10  C   UNL     1       1.639  -7.277   7.410  0.00  0.00    -0.034 C 
ATOM     11  C   UNL     1       0.786  -8.244   7.717  0.00  0.00    -0.001 A 
ATOM     12  C   UNL     1      -0.676  -8.243   7.891  0.00  0.00    +0.010 A 
ATOM     13  C   UNL     1      -1.244  -9.437   8.204  0.00  0.00    +0.001 A 
ATOM     14  C   UNL     1      -0.513 -10.618   8.361  0.00  0.00    +0.002 A 
ATOM     15  C   UNL     1       0.834 -10.711   8.224  0.00  0.00    +0.026 A 
ATOM     16  C   UNL     1       1.544  -9.519   7.897  0.00  0.00    +0.043 A 
ATOM     17  N   UNL     1       2.815  -9.321   7.720  0.00  0.00    -0.375 N 
ATOM     18  C   UNL     1       3.034  -7.898   7.432  0.00  0.00    +0.131 C 
ATOM     19  C   UNL     1       3.607  -7.707   6.036  0.00  0.00    +0.133 C 
ATOM     20  H   UNL     1       3.506 -10.001   7.770  0.00  0.00    +0.160 HD
ENDROOT
BRANCH  19  21
ATOM     21  C   UNL     1       2.937  -8.710   5.132  0.00  0.00    -0.023 A 
ATOM     22  C   UNL     1       1.690  -8.437   4.601  0.00  0.00    +0.005 A 
ATOM     23  C   UNL     1       1.076  -9.357   3.772  0.00  0.00    +0.003 A 
ATOM     24  C   UNL     1       1.709 -10.549   3.473  0.00  0.00    +0.033 A 
ATOM     25  C   UNL     1       2.956 -10.821   4.003  0.00  0.00    +0.127 A 
ATOM     26  C   UNL     1       3.572  -9.899   4.829  0.00  0.00    +0.038 A 
BRANCH  25  27
ATOM     27  N   UNL     1       3.634 -12.098   3.683  0.00  0.00    +0.056 N 
ATOM     28  O   UNL     1       3.096 -12.902   2.958  0.00  0.00    -0.126 OA
ATOM     29  O   UNL     1       4.725 -12.335   4.146  0.00  0.00    -0.126 OA
ENDBRANCH  25  27
ENDBRANCH  19  21
BRANCH   1  30
ATOM     30  C   UNL     1       1.748  -4.062   2.433  0.00  0.00    +0.106 C 
BRANCH  30  31
ATOM     31  C   UNL     1       1.558  -2.546   2.502  0.00  0.00    +0.000 C 
BRANCH  31  32
ATOM     32  C   UNL     1       0.926  -2.051   1.199  0.00  0.00    -0.077 C 
BRANCH  32  33
ATOM     33  N   UNL     1       0.643  -0.614   1.306  0.00  0.00    +0.379 N 
ATOM     34  H   UNL     1       0.074  -0.444   2.122  0.00  0.00    -0.082 HD
BRANCH  33  36
ATOM     35  C   UNL     1       1.607   1.609   1.663  0.00  0.00    -0.017 C 
ATOM     36  C   UNL     1       1.905   0.127   1.426  0.00  0.00    -0.082 C 
ENDBRANCH  33  36
BRANCH  33  37
ATOM     37  C   UNL     1      -0.076  -0.166   0.106  0.00  0.00    -0.082 C 
ATOM     38  C   UNL     1      -1.460  -0.817   0.068  0.00  0.00    -0.017 C 
ENDBRANCH  33  37
ENDBRANCH  32  33
ENDBRANCH  31  32
ENDBRANCH  30  31
ENDBRANCH   1  30
TORSDOF 8
