REMARK  Name = ZINC09441887
REMARK  8 active torsions:
REMARK  status: ('A' for Active; 'I' for Inactive)
REMARK    1  A    between atoms: C_1  and  C_2
REMARK    2  A    between atoms: C_5  and  S_8
REMARK    3  A    between atoms: S_8  and  N_11
REMARK    4  A    between atoms: C_14  and  C_17
REMARK    5  A    between atoms: N_19  and  C_20
REMARK    6  A    between atoms: C_20  and  C_21
REMARK    7  A    between atoms: C_21  and  C_23
REMARK    8  A    between atoms: C_21  and  N_66
REMARK                            x       y       z     vdW  Elec       q    Type
REMARK                         _______ _______ _______ _____ _____    ______ ____
ROOT
ATOM      1  C   UNL     1       6.392  -0.261   0.638  0.00  0.00    +0.216 C 
ATOM      2  O   UNL     1       7.154   0.239   1.438  0.00  0.00    -0.276 OA
ATOM      3  N   UNL     1       5.107  -0.481   0.979  0.00  0.00    -0.316 N 
ATOM      4  H   UNL     1       4.497  -0.881   0.339  0.00  0.00    +0.149 HD
ENDROOT
BRANCH   1   8
ATOM      5  N   UNL     1       8.543  -2.046  -2.542  0.00  0.00    -0.177 NA
ATOM      6  C   UNL     1       8.853  -0.635  -2.272  0.00  0.00    +0.110 C 
ATOM      7  C   UNL     1       8.367  -0.284  -0.862  0.00  0.00    +0.030 C 
ATOM      8  C   UNL     1       6.883  -0.637  -0.737  0.00  0.00    +0.077 C 
ATOM      9  C   UNL     1       6.694  -2.140  -0.952  0.00  0.00    +0.030 C 
ATOM     10  C   UNL     1       7.161  -2.512  -2.363  0.00  0.00    +0.110 C 
BRANCH   5  11
ATOM     11  S   UNL     1       9.728  -3.091  -3.038  0.00  0.00    +0.061 S 
ATOM     12  O   UNL     1       9.075  -4.147  -3.729  0.00  0.00    -0.153 OA
ATOM     13  O   UNL     1      10.742  -2.298  -3.640  0.00  0.00    -0.153 OA
BRANCH  11  18
ATOM     14  C   UNL     1      12.158  -5.520   1.922  0.00  0.00    +0.044 C 
ATOM     15  C   UNL     1      11.551  -4.913   0.683  0.00  0.00    -0.050 A 
ATOM     16  C   UNL     1      10.471  -5.523   0.073  0.00  0.00    +0.005 A 
ATOM     17  C   UNL     1       9.914  -4.967  -1.064  0.00  0.00    +0.029 A 
ATOM     18  C   UNL     1      10.437  -3.800  -1.589  0.00  0.00    +0.105 A 
ATOM     19  C   UNL     1      11.520  -3.193  -0.982  0.00  0.00    +0.029 A 
ATOM     20  C   UNL     1      12.074  -3.747   0.158  0.00  0.00    +0.005 A 
ENDBRANCH  11  18
ENDBRANCH   5  11
ENDBRANCH   1   8
BRANCH   3  21
ATOM     21  C   UNL     1       4.630  -0.116   2.315  0.00  0.00    +0.093 C 
BRANCH  21  22
ATOM     22  C   UNL     1       3.114  -0.304   2.384  0.00  0.00    -0.020 C 
BRANCH  22  23
ATOM     23  C   UNL     1       2.637  -0.026   3.787  0.00  0.00    -0.059 A 
ATOM     24  C   UNL     1       2.211   1.243   4.132  0.00  0.00    +0.005 A 
ATOM     25  C   UNL     1       1.768   1.498   5.416  0.00  0.00    +0.038 A 
ATOM     26  C   UNL     1       1.762   0.485   6.360  0.00  0.00    +0.123 A 
ATOM     27  C   UNL     1       2.194  -0.784   6.014  0.00  0.00    +0.038 A 
ATOM     28  C   UNL     1       2.631  -1.038   4.728  0.00  0.00    +0.005 A 
ATOM     29  F   UNL     1       1.335   0.734   7.617  0.00  0.00    -0.205 F 
ENDBRANCH  22  23
BRANCH  22  35
ATOM     30  C   UNL     1       3.251   1.855   1.295  0.00  0.00    -0.049 C 
ATOM     31  C   UNL     1       2.508   2.817   0.364  0.00  0.00    +0.141 C 
ATOM     32  O   UNL     1       2.262   2.168  -0.886  0.00  0.00    -0.383 OA
ATOM     33  C   UNL     1       1.494   0.967  -0.770  0.00  0.00    +0.141 C 
ATOM     34  C   UNL     1       2.227  -0.014   0.149  0.00  0.00    -0.049 C 
ATOM     35  N   UNL     1       2.437   0.633   1.461  0.00  0.00    +0.388 N 
ATOM     36  H   UNL     1       1.525   0.890   1.857  0.00  0.00    -0.081 HD
ENDBRANCH  22  35
ENDBRANCH  21  22
ENDBRANCH   3  21
TORSDOF 7
