REMARK  Name = ZINC38754961
REMARK  5 active torsions:
REMARK  status: ('A' for Active; 'I' for Inactive)
REMARK    1  A    between atoms: C_6  and  C_7
REMARK    2  A    between atoms: C_9  and  C_12
REMARK    3  A    between atoms: C_12  and  N_13
REMARK    4  A    between atoms: C_14  and  C_16
REMARK    5  A    between atoms: C_16  and  C_17
REMARK                            x       y       z     vdW  Elec       q    Type
REMARK                         _______ _______ _______ _____ _____    ______ ____
ROOT
ATOM      1  C   UNL     1      -4.939  -0.553  -0.044  0.00  0.00    +0.163 C 
ENDROOT
BRANCH   1   4
ATOM      2  C   UNL     1      -1.404   0.512  -0.184  0.00  0.00    +0.168 A 
ATOM      3  C   UNL     1      -2.734   0.801  -0.170  0.00  0.00    +0.077 A 
ATOM      4  C   UNL     1      -3.439  -0.407  -0.087  0.00  0.00    +0.101 A 
ATOM      5  N   UNL     1      -2.576  -1.384  -0.052  0.00  0.00    -0.081 NA
ATOM      6  O   UNL     1      -1.276  -0.827  -0.118  0.00  0.00    -0.354 OA
BRANCH   2  12
ATOM      7  C   UNL     1      -0.578   2.856  -0.329  0.00  0.00    +0.015 A 
ATOM      8  C   UNL     1       0.455   3.767  -0.405  0.00  0.00    +0.050 A 
ATOM      9  C   UNL     1       1.773   3.330  -0.418  0.00  0.00    +0.162 A 
ATOM     10  C   UNL     1       2.058   1.969  -0.352  0.00  0.00    +0.163 A 
ATOM     11  C   UNL     1       1.026   1.050  -0.277  0.00  0.00    +0.061 A 
ATOM     12  C   UNL     1      -0.299   1.490  -0.264  0.00  0.00    +0.024 A 
ATOM     13  O   UNL     1       3.345   1.526  -0.356  0.00  0.00    -0.485 OA
ATOM     14  C   UNL     1       4.342   2.449  -0.807  0.00  0.00    +0.270 C 
ATOM     15  C   UNL     1       4.086   3.801  -0.129  0.00  0.00    +0.270 C 
ATOM     16  O   UNL     1       2.776   4.247  -0.498  0.00  0.00    -0.485 OA
ENDBRANCH   2  12
ENDBRANCH   1   4
BRANCH   1  17
ATOM     17  N   UNL     1      -5.445  -0.795  -1.397  0.00  0.00    -0.310 N 
ATOM     18  C   UNL     1      -6.767  -0.958  -1.603  0.00  0.00    +0.215 C 
ATOM     19  O   UNL     1      -7.537  -0.904  -0.668  0.00  0.00    -0.276 OA
ATOM     20  H   UNL     1      -4.828  -0.839  -2.145  0.00  0.00    +0.149 HD
BRANCH  18  21
ATOM     21  C   UNL     1      -7.287  -1.208  -2.995  0.00  0.00    +0.121 C 
BRANCH  21  22
ATOM     22  C   UNL     1      -8.817  -1.197  -2.977  0.00  0.00    +0.112 C 
ATOM     23  C   UNL     1      -9.303   0.186  -2.487  0.00  0.00    +0.103 C 
ATOM     24  S   UNL     1     -10.846   0.317  -3.484  0.00  0.00    -0.086 S 
ATOM     25  C   UNL     1     -10.412  -0.840  -4.770  0.00  0.00    +0.172 A 
ATOM     26  N   UNL     1      -9.311  -1.511  -4.323  0.00  0.00    -0.283 N 
ATOM     27  C   UNL     1      -8.765  -2.431  -5.175  0.00  0.00    +0.255 A 
ATOM     28  O   UNL     1      -7.762  -3.044  -4.849  0.00  0.00    -0.268 OA
ATOM     29  C   UNL     1      -9.356  -2.669  -6.420  0.00  0.00    +0.090 A 
ATOM     30  C   UNL     1     -10.473  -1.970  -6.779  0.00  0.00    +0.119 A 
ATOM     31  N   UNL     1     -10.969  -1.074  -5.937  0.00  0.00    -0.231 NA
ENDBRANCH  21  22
ENDBRANCH  18  21
ENDBRANCH   1  17
TORSDOF 5
