REMARK  Name = ZINC03551058
REMARK  13 active torsions:
REMARK  status: ('A' for Active; 'I' for Inactive)
REMARK    1  A    between atoms: C_1  and  C_2
REMARK    2  A    between atoms: C_2  and  C_3
REMARK    3  A    between atoms: C_3  and  C_5
REMARK    4  A    between atoms: C_3  and  N_59
REMARK    5  A    between atoms: C_8  and  S_17
REMARK    6  A    between atoms: N_9  and  C_10
REMARK    7  A    between atoms: C_10  and  C_11
REMARK    8  A    between atoms: S_17  and  C_18
REMARK    9  A    between atoms: C_18  and  C_20
REMARK   10  A    between atoms: C_18  and  C_21
REMARK   11  A    between atoms: N_23  and  C_24
REMARK   12  A    between atoms: C_31  and  N_59
REMARK   13  A    between atoms: C_32  and  N_59
REMARK                            x       y       z     vdW  Elec       q    Type
REMARK                         _______ _______ _______ _____ _____    ______ ____
ROOT
ATOM      1  C   UNL     1      -3.362   1.451   2.206  0.00  0.00    +0.121 A 
ATOM      2  N   UNL     1      -3.543   0.728   3.275  0.00  0.00    -0.135 NA
ATOM      3  N   UNL     1      -2.741  -0.276   3.270  0.00  0.00    -0.123 NA
ATOM      4  C   UNL     1      -2.001  -0.251   2.186  0.00  0.00    +0.193 A 
ATOM      5  N   UNL     1      -2.371   0.855   1.475  0.00  0.00    -0.303 N 
ENDROOT
BRANCH   1   6
ATOM      6  C   UNL     1      -4.106   2.709   1.841  0.00  0.00    +0.000 C 
BRANCH   6   9
ATOM      7  C   UNL     1      -4.736   3.003   4.161  0.00  0.00    -0.096 C 
ATOM      8  C   UNL     1      -2.745   4.081   3.301  0.00  0.00    -0.096 C 
ATOM      9  N   UNL     1      -4.122   3.650   2.981  0.00  0.00    +0.383 N 
ATOM     10  H   UNL     1      -4.679   4.474   2.726  0.00  0.00    -0.082 HD
ENDBRANCH   6   9
BRANCH   6  12
ATOM     11  C   UNL     1      -6.281   3.626   1.022  0.00  0.00    +0.002 C 
ATOM     12  C   UNL     1      -5.548   2.359   1.467  0.00  0.00    -0.011 C 
ENDBRANCH   6  12
ENDBRANCH   1   6
BRANCH   5  13
ATOM     13  C   UNL     1      -1.823   1.306   0.193  0.00  0.00    +0.160 C 
BRANCH  13  14
ATOM     14  C   UNL     1      -0.663   2.236   0.442  0.00  0.00    -0.028 A 
ATOM     15  C   UNL     1       0.618   1.728   0.547  0.00  0.00    +0.005 A 
ATOM     16  C   UNL     1       1.683   2.581   0.769  0.00  0.00    +0.000 A 
ATOM     17  C   UNL     1       1.466   3.941   0.891  0.00  0.00    +0.000 A 
ATOM     18  C   UNL     1       0.184   4.448   0.791  0.00  0.00    +0.000 A 
ATOM     19  C   UNL     1      -0.881   3.595   0.569  0.00  0.00    +0.005 A 
ENDBRANCH  13  14
ENDBRANCH   5  13
BRANCH   4  20
ATOM     20  S   UNL     1      -0.763  -1.421   1.734  0.00  0.00    -0.074 S 
BRANCH  20  21
ATOM     21  C   UNL     1      -0.869  -2.550   3.145  0.00  0.00    +0.137 C 
ATOM     22  C   UNL     1      -0.441  -1.817   4.418  0.00  0.00    +0.029 C 
BRANCH  21  23
ATOM     23  C   UNL     1       0.041  -3.729   2.914  0.00  0.00    +0.230 C 
ATOM     24  O   UNL     1       1.001  -3.620   2.181  0.00  0.00    -0.274 OA
ATOM     25  N   UNL     1      -0.213  -4.905   3.522  0.00  0.00    -0.285 N 
ATOM     26  H   UNL     1      -1.021  -5.015   4.047  0.00  0.00    +0.155 HD
BRANCH  25  27
ATOM     27  C   UNL     1       0.690  -5.967   3.395  0.00  0.00    +0.034 A 
ATOM     28  C   UNL     1       0.226  -7.276   3.378  0.00  0.00    +0.025 A 
ATOM     29  C   UNL     1       1.119  -8.322   3.247  0.00  0.00    +0.022 A 
ATOM     30  C   UNL     1       2.475  -8.067   3.146  0.00  0.00    +0.041 A 
ATOM     31  C   UNL     1       2.940  -6.764   3.168  0.00  0.00    +0.022 A 
ATOM     32  C   UNL     1       2.051  -5.714   3.292  0.00  0.00    +0.025 A 
ATOM     33 CL   UNL     1       3.595  -9.384   2.989  0.00  0.00    -0.084 Cl
ENDBRANCH  25  27
ENDBRANCH  21  23
ENDBRANCH  20  21
ENDBRANCH   4  20
TORSDOF 9
