REMARK  Name = ZINC64007177
REMARK  5 active torsions:
REMARK  status: ('A' for Active; 'I' for Inactive)
REMARK    1  A    between atoms: C_1  and  C_2
REMARK    2  A    between atoms: C_3  and  C_25
REMARK    3  A    between atoms: C_12  and  C_14
REMARK    4  A    between atoms: C_25  and  N_26
REMARK    5  A    between atoms: C_27  and  C_29
REMARK                            x       y       z     vdW  Elec       q    Type
REMARK                         _______ _______ _______ _____ _____    ______ ____
ROOT
ATOM      1  C   UNL     1      -0.320   1.565  -0.155  0.00  0.00    +0.066 C 
ATOM      2  C   UNL     1      -0.246   0.060  -0.123  0.00  0.00    +0.043 A 
ATOM      3  C   UNL     1      -0.182  -0.647  -1.308  0.00  0.00    -0.006 A 
ATOM      4  C   UNL     1      -0.111  -2.035  -1.271  0.00  0.00    -0.033 A 
ATOM      5  C   UNL     1      -0.101  -2.657  -0.040  0.00  0.00    -0.008 A 
ATOM      6  C   UNL     1      -0.175  -1.883   1.107  0.00  0.00    +0.116 A 
ATOM      7  N   UNL     1      -0.238  -0.569   1.036  0.00  0.00    -0.260 NA
ATOM      8  C   UNL     1       0.001  -4.153   0.105  0.00  0.00    +0.145 C 
ATOM      9  N   UNL     1      -0.201  -4.788  -1.203  0.00  0.00    -0.293 N 
ATOM     10  C   UNL     1       0.494  -4.197  -2.359  0.00  0.00    +0.113 C 
ATOM     11  C   UNL     1      -0.056  -2.787  -2.571  0.00  0.00    +0.055 C 
ATOM     12  C   UNL     1      -0.993  -5.870  -1.341  0.00  0.00    +0.252 C 
ATOM     13  O   UNL     1      -1.228  -6.315  -2.448  0.00  0.00    -0.270 OA
ENDROOT
BRANCH  12  14
ATOM     14  C   UNL     1      -1.573  -6.513  -0.152  0.00  0.00    +0.101 A 
ATOM     15  C   UNL     1      -0.779  -7.261   0.710  0.00  0.00    +0.023 A 
ATOM     16  C   UNL     1      -1.355  -7.862   1.838  0.00  0.00    -0.027 A 
ATOM     17  C   UNL     1      -0.447  -8.674   2.725  0.00  0.00    +0.037 C 
ATOM     18  C   UNL     1      -1.085  -8.894   4.095  0.00  0.00    +0.005 C 
ATOM     19  C   UNL     1      -2.505  -9.431   3.882  0.00  0.00    +0.006 C 
ATOM     20  C   UNL     1      -3.356  -8.311   3.287  0.00  0.00    +0.053 C 
ATOM     21  C   UNL     1      -2.676  -7.706   2.084  0.00  0.00    +0.022 A 
ATOM     22  N   UNL     1      -3.457  -6.978   1.236  0.00  0.00    -0.325 N 
ATOM     23  C   UNL     1      -2.954  -6.379   0.145  0.00  0.00    +0.261 A 
ATOM     24  O   UNL     1      -3.679  -5.729  -0.588  0.00  0.00    -0.267 OA
ATOM     25  H   UNL     1      -4.403  -6.887   1.428  0.00  0.00    +0.169 HD
ENDBRANCH  12  14
BRANCH   3  26
ATOM     26  C   UNL     1      -0.191   0.080  -2.628  0.00  0.00    +0.141 C 
BRANCH  26  27
ATOM     27  N   UNL     1       1.186   0.387  -3.025  0.00  0.00    -0.309 N 
ATOM     28  C   UNL     1       1.425   1.039  -4.180  0.00  0.00    +0.240 C 
ATOM     29  O   UNL     1       0.500   1.371  -4.892  0.00  0.00    -0.273 OA
ATOM     30  H   UNL     1       1.925   0.122  -2.456  0.00  0.00    +0.149 HD
BRANCH  28  31
ATOM     31  C   UNL     1       2.841   1.355  -4.588  0.00  0.00    +0.190 C 
ATOM     32  C   UNL     1       3.624   0.077  -4.787  0.00  0.00    +0.016 C 
ATOM     33  C   UNL     1       4.020   0.078  -6.080  0.00  0.00    -0.004 A 
ATOM     34  C   UNL     1       4.803  -0.871  -6.881  0.00  0.00    +0.010 A 
ATOM     35  C   UNL     1       5.044  -0.590  -8.182  0.00  0.00    +0.001 A 
ATOM     36  C   UNL     1       4.566   0.583  -8.783  0.00  0.00    +0.002 A 
ATOM     37  C   UNL     1       3.840   1.502  -8.112  0.00  0.00    +0.026 A 
ATOM     38  C   UNL     1       3.527   1.309  -6.739  0.00  0.00    +0.043 A 
ATOM     39  N   UNL     1       2.852   2.042  -5.885  0.00  0.00    -0.370 N 
ATOM     40  H   UNL     1       2.430   2.894  -6.078  0.00  0.00    +0.161 HD
ENDBRANCH  28  31
ENDBRANCH  26  27
ENDBRANCH   3  26
TORSDOF 4
