REMARK  Name = ZINC34630726
REMARK  10 active torsions:
REMARK  status: ('A' for Active; 'I' for Inactive)
REMARK    1  A    between atoms: C_1  and  C_2
REMARK    2  A    between atoms: C_2  and  C_3
REMARK    3  A    between atoms: C_2  and  O_4
REMARK    4  A    between atoms: O_4  and  C_5
REMARK    5  A    between atoms: C_7  and  C_13
REMARK    6  A    between atoms: C_10  and  O_11
REMARK    7  A    between atoms: O_11  and  C_12
REMARK    8  A    between atoms: C_13  and  C_21
REMARK    9  A    between atoms: N_16  and  C_20
REMARK   10  A    between atoms: C_25  and  C_27
REMARK                            x       y       z     vdW  Elec       q    Type
REMARK                         _______ _______ _______ _____ _____    ______ ____
ROOT
ATOM      1  C   UNL     1       0.311  -4.511  -2.399  0.00  0.00    +0.162 C 
ATOM      2  C   UNL     1       0.507  -3.812  -3.727  0.00  0.00    +0.254 C 
ATOM      3  O   UNL     1      -0.322  -3.668  -4.600  0.00  0.00    -0.272 OA
ATOM      4  N   UNL     1       1.782  -3.381  -3.748  0.00  0.00    -0.247 N 
ATOM      5  C   UNL     1       2.441  -3.716  -2.591  0.00  0.00    +0.161 C 
ATOM      6  N   UNL     1       1.617  -4.399  -1.730  0.00  0.00    -0.297 N 
ATOM      7  N   UNL     1       3.685  -3.425  -2.342  0.00  0.00    -0.375 N 
ATOM      8  C   UNL     1       2.389  -2.649  -4.863  0.00  0.00    +0.141 C 
ATOM      9  H   UNL     1       4.210  -2.939  -2.997  0.00  0.00    +0.158 HD
ATOM     10  H   UNL     1       1.850  -4.740  -0.852  0.00  0.00    +0.150 HD
ATOM     11  H   UNL     1       4.087  -3.694  -1.501  0.00  0.00    +0.158 HD
ENDROOT
BRANCH   1  14
ATOM     12  C   UNL     1      -2.897  -2.746  -1.466  0.00  0.00    +0.163 A 
ATOM     13  C   UNL     1      -1.915  -3.385  -2.207  0.00  0.00    +0.056 A 
ATOM     14  C   UNL     1      -0.755  -3.816  -1.591  0.00  0.00    -0.007 A 
ATOM     15  C   UNL     1      -0.571  -3.613  -0.236  0.00  0.00    +0.010 A 
ATOM     16  C   UNL     1      -1.546  -2.977   0.509  0.00  0.00    +0.050 A 
ATOM     17  C   UNL     1      -2.709  -2.536  -0.103  0.00  0.00    +0.162 A 
BRANCH  17  18
ATOM     18  O   UNL     1      -3.667  -1.905   0.628  0.00  0.00    -0.491 OA
ATOM     19  C   UNL     1      -3.406  -1.724   2.021  0.00  0.00    +0.277 C 
ENDBRANCH  17  18
BRANCH  12  20
ATOM     20  O   UNL     1      -4.038  -2.321  -2.070  0.00  0.00    -0.486 OA
BRANCH  20  22
ATOM     21  C   UNL     1      -5.703  -2.669  -3.787  0.00  0.00    +0.051 C 
ATOM     22  C   UNL     1      -4.211  -2.665  -3.446  0.00  0.00    +0.167 C 
ATOM     23  C   UNL     1      -3.490  -1.639  -4.322  0.00  0.00    +0.051 C 
ENDBRANCH  20  22
ENDBRANCH  12  20
ENDBRANCH   1  14
BRANCH   1  24
ATOM     24  C   UNL     1      -0.050  -5.959  -2.611  0.00  0.00    -0.010 A 
ATOM     25  C   UNL     1      -1.186  -6.289  -3.328  0.00  0.00    +0.006 A 
ATOM     26  C   UNL     1      -1.523  -7.616  -3.526  0.00  0.00    +0.001 A 
ATOM     27  C   UNL     1      -0.727  -8.618  -3.009  0.00  0.00    +0.008 A 
ATOM     28  C   UNL     1       0.419  -8.290  -2.286  0.00  0.00    -0.016 A 
ATOM     29  C   UNL     1       0.756  -6.952  -2.093  0.00  0.00    +0.015 A 
BRANCH  28  30
ATOM     30  C   UNL     1       1.279  -9.363  -1.728  0.00  0.00    +0.000 A 
ATOM     31  C   UNL     1       0.954 -10.708  -1.924  0.00  0.00    +0.011 A 
ATOM     32  C   UNL     1       1.788 -11.671  -1.383  0.00  0.00    +0.020 A 
ATOM     33  C   UNL     1       2.906 -11.274  -0.671  0.00  0.00    +0.111 A 
ATOM     34  N   UNL     1       3.187  -9.997  -0.502  0.00  0.00    -0.263 NA
ATOM     35  C   UNL     1       2.425  -9.046  -1.004  0.00  0.00    +0.119 A 
ENDBRANCH  28  30
ENDBRANCH   1  24
TORSDOF 6
