REMARK  Name = ZINC01898459
REMARK  8 active torsions:
REMARK  status: ('A' for Active; 'I' for Inactive)
REMARK    1  A    between atoms: C_2  and  C_3
REMARK    2  A    between atoms: C_2  and  N_15
REMARK    3  A    between atoms: C_6  and  C_9
REMARK    4  A    between atoms: N_15  and  N_16
REMARK    5  A    between atoms: C_17  and  C_19
REMARK    6  A    between atoms: C_19  and  S_20
REMARK    7  A    between atoms: S_20  and  C_21
REMARK    8  A    between atoms: N_34  and  C_35
REMARK                            x       y       z     vdW  Elec       q    Type
REMARK                         _______ _______ _______ _____ _____    ______ ____
ROOT
ATOM      1  C   UNL     1       5.624   0.197   2.221  0.00  0.00    +0.174 C 
ENDROOT
BRANCH   1   3
ATOM      2  N   UNL     1       3.606   0.116   3.649  0.00  0.00    -0.236 N 
ATOM      3  C   UNL     1       4.578  -0.557   3.002  0.00  0.00    +0.239 C 
ATOM      4  O   UNL     1       4.612  -1.768   3.049  0.00  0.00    -0.273 OA
ATOM      5  H   UNL     1       3.579   1.085   3.612  0.00  0.00    +0.173 HD
BRANCH   2   6
ATOM      6  N   UNL     1       2.634  -0.585   4.375  0.00  0.00    -0.264 N 
ATOM      7  H   UNL     1       2.661  -1.554   4.412  0.00  0.00    +0.170 HD
BRANCH   6   9
ATOM      8  C   UNL     1       1.589   1.444   4.994  0.00  0.00    +0.035 C 
ATOM      9  C   UNL     1       1.627   0.111   5.045  0.00  0.00    +0.044 C 
BRANCH   9  10
ATOM     10  C   UNL     1       0.600  -0.629   5.812  0.00  0.00    -0.003 A 
ATOM     11  C   UNL     1       0.641  -2.023   5.870  0.00  0.00    +0.010 A 
ATOM     12  C   UNL     1      -0.314  -2.711   6.584  0.00  0.00    +0.009 A 
ATOM     13  C   UNL     1      -1.324  -2.015   7.248  0.00  0.00    -0.018 A 
ATOM     14  C   UNL     1      -1.367  -0.622   7.190  0.00  0.00    +0.009 A 
ATOM     15  C   UNL     1      -0.408   0.067   6.482  0.00  0.00    +0.010 A 
BRANCH  13  16
ATOM     16  C   UNL     1      -2.354  -2.757   8.016  0.00  0.00    -0.018 A 
ATOM     17  C   UNL     1      -2.311  -4.148   8.081  0.00  0.00    +0.008 A 
ATOM     18  C   UNL     1      -3.271  -4.833   8.797  0.00  0.00    +0.001 A 
ATOM     19  C   UNL     1      -4.275  -4.141   9.451  0.00  0.00    +0.000 A 
ATOM     20  C   UNL     1      -4.322  -2.760   9.390  0.00  0.00    +0.001 A 
ATOM     21  C   UNL     1      -3.364  -2.064   8.681  0.00  0.00    +0.008 A 
ENDBRANCH  13  16
ENDBRANCH   9  10
ENDBRANCH   6   9
ENDBRANCH   2   6
ENDBRANCH   1   3
BRANCH   1  22
ATOM     22  S   UNL     1       6.784  -0.980   1.472  0.00  0.00    -0.078 S 
BRANCH  22  23
ATOM     23  C   UNL     1       7.928   0.042   0.606  0.00  0.00    +0.178 A 
ATOM     24  N   UNL     1       7.784   1.352   0.638  0.00  0.00    -0.215 NA
ATOM     25  C   UNL     1       8.632   2.145  -0.006  0.00  0.00    +0.117 A 
ATOM     26  C   UNL     1       9.714   1.640  -0.746  0.00  0.00    +0.076 A 
ATOM     27  C   UNL     1      10.562   2.638  -1.401  0.00  0.00    -0.023 A 
ATOM     28  C   UNL     1      10.226   3.933  -1.232  0.00  0.00    -0.004 A 
ATOM     29  S   UNL     1       8.781   3.903  -0.205  0.00  0.00    -0.073 S 
ATOM     30  C   UNL     1      10.925   5.133  -1.793  0.00  0.00    +0.043 C 
ATOM     31  C   UNL     1      12.310   4.697  -2.293  0.00  0.00    +0.005 C 
ATOM     32  C   UNL     1      12.150   3.430  -3.139  0.00  0.00    +0.005 C 
ATOM     33  C   UNL     1      11.775   2.251  -2.242  0.00  0.00    +0.037 C 
ATOM     34  C   UNL     1       9.847   0.216  -0.764  0.00  0.00    +0.268 A 
ATOM     35  O   UNL     1      10.757  -0.313  -1.380  0.00  0.00    -0.267 OA
ATOM     36  N   UNL     1       8.957  -0.533  -0.086  0.00  0.00    -0.255 N 
BRANCH  36  37
ATOM     37  C   UNL     1       9.084  -1.928  -0.095  0.00  0.00    +0.052 A 
ATOM     38  C   UNL     1       9.838  -2.564   0.882  0.00  0.00    +0.026 A 
ATOM     39  C   UNL     1       9.961  -3.940   0.870  0.00  0.00    +0.002 A 
ATOM     40  C   UNL     1       9.334  -4.684  -0.113  0.00  0.00    +0.000 A 
ATOM     41  C   UNL     1       8.583  -4.053  -1.087  0.00  0.00    +0.002 A 
ATOM     42  C   UNL     1       8.451  -2.678  -1.078  0.00  0.00    +0.026 A 
ENDBRANCH  36  37
ENDBRANCH  22  23
ENDBRANCH   1  22
TORSDOF 8
