REMARK  Name = ZINC05499740
REMARK  5 active torsions:
REMARK  status: ('A' for Active; 'I' for Inactive)
REMARK    1  A    between atoms: C_1  and  C_2
REMARK    2  A    between atoms: C_2  and  O_3
REMARK    3  A    between atoms: O_3  and  C_4
REMARK    4  A    between atoms: C_4  and  C_6
REMARK    5  A    between atoms: C_21  and  C_26
REMARK                            x       y       z     vdW  Elec       q    Type
REMARK                         _______ _______ _______ _____ _____    ______ ____
ROOT
ATOM      1  C   UNL     1      -0.013   1.086   0.008  0.00  0.00    +0.184 C 
ATOM      2  C   UNL     1      -0.692   1.581   1.267  0.00  0.00    +0.036 C 
ATOM      3  C   UNL     1      -1.964   0.847   1.703  0.00  0.00    +0.042 C 
ATOM      4  C   UNL     1      -1.945   0.999   3.209  0.00  0.00    -0.043 A 
ATOM      5  C   UNL     1      -2.998   0.935   4.101  0.00  0.00    +0.004 A 
ATOM      6  C   UNL     1      -2.715   1.177   5.439  0.00  0.00    +0.000 A 
ATOM      7  C   UNL     1      -1.434   1.469   5.862  0.00  0.00    +0.000 A 
ATOM      8  C   UNL     1      -0.369   1.524   4.974  0.00  0.00    +0.004 A 
ATOM      9  C   UNL     1      -0.637   1.274   3.639  0.00  0.00    -0.036 A 
ATOM     10  C   UNL     1       0.255   1.228   2.458  0.00  0.00    +0.057 C 
ATOM     11  C   UNL     1       1.383   2.196   2.346  0.00  0.00    -0.019 A 
ATOM     12  C   UNL     1       1.898   2.910   3.395  0.00  0.00    +0.009 A 
ATOM     13  C   UNL     1       2.929   3.810   3.175  0.00  0.00    -0.050 A 
ATOM     14  C   UNL     1       3.432   3.985   1.899  0.00  0.00    +0.005 A 
ATOM     15  C   UNL     1       2.921   3.263   0.839  0.00  0.00    +0.023 A 
ATOM     16  C   UNL     1       1.894   2.356   1.048  0.00  0.00    +0.032 A 
ATOM     17  N   UNL     1       1.368   1.602  -0.002  0.00  0.00    -0.331 N 
ATOM     18  C   UNL     1       3.500   4.598   4.326  0.00  0.00    +0.044 C 
ATOM     19  H   UNL     1       1.932   1.411  -0.768  0.00  0.00    +0.147 HD
ENDROOT
BRANCH   1  20
ATOM     20  C   UNL     1      -0.754   1.591  -1.203  0.00  0.00    +0.328 C 
ATOM     21  O   UNL     1      -0.346   2.558  -1.801  0.00  0.00    -0.249 OA
BRANCH  20  22
ATOM     22  O   UNL     1      -1.867   0.966  -1.617  0.00  0.00    -0.464 OA
BRANCH  22  24
ATOM     23  C   UNL     1      -3.769   0.670  -3.109  0.00  0.00    +0.048 C 
ATOM     24  C   UNL     1      -2.529   1.508  -2.791  0.00  0.00    +0.229 C 
ENDBRANCH  22  24
ENDBRANCH  20  22
ENDBRANCH   1  20
TORSDOF 3
