REMARK  Name = ZINC49925955
REMARK  2 active torsions:
REMARK  status: ('A' for Active; 'I' for Inactive)
REMARK    1  A    between atoms: C_4  and  C_8
REMARK    2  A    between atoms: C_8  and  N_9
REMARK                            x       y       z     vdW  Elec       q    Type
REMARK                         _______ _______ _______ _____ _____    ______ ____
ROOT
ATOM      1  N   UNL     1       4.152  -0.955   1.338  0.00  0.00    -0.200 N 
ATOM      2  C   UNL     1       4.921  -0.112   2.060  0.00  0.00    +0.268 C 
ATOM      3  O   UNL     1       5.367   0.959   1.710  0.00  0.00    -0.271 OA
ATOM      4  C   UNL     1       5.106  -0.789   3.398  0.00  0.00    +0.187 C 
ATOM      5  C   UNL     1       6.586  -1.064   3.655  0.00  0.00    +0.039 C 
ATOM      6  C   UNL     1       6.749  -1.702   5.037  0.00  0.00    -0.078 C 
ATOM      7  N   UNL     1       6.216  -0.797   6.062  0.00  0.00    +0.379 N 
ATOM      8  C   UNL     1       4.774  -0.609   5.863  0.00  0.00    -0.078 C 
ATOM      9  C   UNL     1       4.527   0.075   4.516  0.00  0.00    +0.039 C 
ATOM     10  O   UNL     1       4.380  -2.016   3.285  0.00  0.00    -0.434 OA
ATOM     11  C   UNL     1       3.842  -2.045   2.053  0.00  0.00    +0.411 C 
ATOM     12  O   UNL     1       3.156  -2.956   1.636  0.00  0.00    -0.226 OA
ATOM     13  H   UNL     1       6.379  -1.193   6.976  0.00  0.00    -0.086 HD
ATOM     14  H   UNL     1       6.682   0.095   5.997  0.00  0.00    -0.086 HD
ENDROOT
BRANCH   1  15
ATOM     15  C   UNL     1       3.713  -0.710  -0.038  0.00  0.00    +0.159 C 
BRANCH  15  19
ATOM     16  C   UNL     1      -0.017   1.378   0.010  0.00  0.00    +0.004 A 
ATOM     17  C   UNL     1       1.170   2.086   0.002  0.00  0.00    +0.039 A 
ATOM     18  C   UNL     1       2.379   1.411  -0.013  0.00  0.00    +0.129 A 
ATOM     19  C   UNL     1       2.398   0.026  -0.021  0.00  0.00    +0.024 A 
ATOM     20  C   UNL     1       1.209  -0.680  -0.013  0.00  0.00    +0.048 A 
ATOM     21  C   UNL     1       0.002  -0.004   0.002  0.00  0.00    +0.020 A 
ATOM     22 CL   UNL     1       1.232  -2.416  -0.022  0.00  0.00    -0.083 Cl
ATOM     23  F   UNL     1       3.539   2.103  -0.021  0.00  0.00    -0.205 F 
ENDBRANCH  15  19
ENDBRANCH   1  15
TORSDOF 2
