REMARK  Name = ZINC11791009
REMARK  13 active torsions:
REMARK  status: ('A' for Active; 'I' for Inactive)
REMARK    1  A    between atoms: C_1  and  C_2
REMARK    2  A    between atoms: C_2  and  C_3
REMARK    3  A    between atoms: C_3  and  C_18
REMARK    4  A    between atoms: N_6  and  C_10
REMARK    5  A    between atoms: C_10  and  C_11
REMARK    6  A    between atoms: C_11  and  C_12
REMARK    7  A    between atoms: C_13  and  C_17
REMARK    8  A    between atoms: C_23  and  C_24
REMARK    9  A    between atoms: C_23  and  N_72
REMARK   10  A    between atoms: C_25  and  C_26
REMARK   11  A    between atoms: C_29  and  N_32
REMARK   12  A    between atoms: N_32  and  C_33
REMARK   13  A    between atoms: N_32  and  C_34
REMARK                            x       y       z     vdW  Elec       q    Type
REMARK                         _______ _______ _______ _____ _____    ______ ____
ROOT
ATOM      1  C   UNL     1      -2.618   7.663   2.514  0.00  0.00    +0.018 C 
ATOM      2  C   UNL     1      -3.909   6.855   2.359  0.00  0.00    -0.013 C 
ATOM      3  C   UNL     1      -3.825   6.006   1.089  0.00  0.00    -0.078 C 
ATOM      4  C   UNL     1      -1.413   5.858   1.279  0.00  0.00    -0.078 C 
ATOM      5  C   UNL     1      -1.426   6.702   2.555  0.00  0.00    -0.013 C 
ATOM      6  N   UNL     1      -2.672   5.087   1.202  0.00  0.00    +0.382 N 
ATOM      7  H   UNL     1      -2.774   4.529   2.057  0.00  0.00    -0.081 HD
ENDROOT
BRANCH   1   8
ATOM      8  C   UNL     1      -2.671   8.467   3.815  0.00  0.00    +0.115 C 
ATOM      9  C   UNL     1      -3.858   9.410   3.811  0.00  0.00    +0.247 C 
ATOM     10  O   UNL     1      -4.070  10.318   3.036  0.00  0.00    -0.273 OA
ATOM     11  N   UNL     1      -4.629   9.029   4.848  0.00  0.00    -0.224 N 
ATOM     12  C   UNL     1      -4.100   7.987   5.500  0.00  0.00    +0.309 C 
ATOM     13  O   UNL     1      -4.613   7.466   6.471  0.00  0.00    -0.252 OA
ATOM     14  N   UNL     1      -2.936   7.582   4.962  0.00  0.00    -0.285 N 
ATOM     15  H   UNL     1      -2.380   6.848   5.268  0.00  0.00    +0.151 HD
BRANCH   8  17
ATOM     16  C   UNL     1      -1.397   9.938   5.382  0.00  0.00    +0.006 C 
ATOM     17  C   UNL     1      -1.368   9.243   4.019  0.00  0.00    +0.032 C 
ENDBRANCH   8  17
BRANCH  11  18
ATOM     18  C   UNL     1      -5.891   9.675   5.217  0.00  0.00    +0.123 C 
BRANCH  18  19
ATOM     19  C   UNL     1      -7.047   8.995   4.480  0.00  0.00    +0.064 C 
BRANCH  19  20
ATOM     20  C   UNL     1      -8.345   9.661   4.859  0.00  0.00    +0.014 A 
ATOM     21  C   UNL     1      -8.978  10.717   4.287  0.00  0.00    +0.049 A 
ATOM     22  N   UNL     1     -10.120  11.117   4.806  0.00  0.00    -0.252 NA
ATOM     23  C   UNL     1     -10.640  10.526   5.856  0.00  0.00    +0.156 A 
ATOM     24  S   UNL     1      -9.475   9.283   6.191  0.00  0.00    -0.080 S 
ATOM     25  C   UNL     1      -8.389  11.411   3.086  0.00  0.00    +0.066 C 
ENDBRANCH  19  20
ENDBRANCH  18  19
ENDBRANCH  11  18
ENDBRANCH   1   8
BRANCH   6  26
ATOM     26  C   UNL     1      -2.636   4.178   0.037  0.00  0.00    -0.051 C 
BRANCH  26  27
ATOM     27  C   UNL     1      -1.322   3.441   0.027  0.00  0.00    -0.045 C 
ATOM     28  C   UNL     1      -1.306   2.115   0.020  0.00  0.00    +0.002 C 
BRANCH  28  29
ATOM     29  C   UNL     1      -0.017   1.392   0.010  0.00  0.00    -0.025 A 
ATOM     30  C   UNL     1       1.184   2.103   0.002  0.00  0.00    +0.010 A 
ATOM     31  C   UNL     1       2.384   1.427  -0.013  0.00  0.00    +0.023 A 
ATOM     32  C   UNL     1       2.400   0.036  -0.021  0.00  0.00    +0.029 A 
ATOM     33  C   UNL     1       1.205  -0.675  -0.013  0.00  0.00    +0.023 A 
ATOM     34  C   UNL     1       0.002  -0.004   0.002  0.00  0.00    +0.010 A 
BRANCH  32  35
ATOM     35  N   UNL     1       3.617  -0.646  -0.036  0.00  0.00    -0.336 N 
ATOM     36  C   UNL     1       3.635  -2.111  -0.044  0.00  0.00    +0.129 C 
ATOM     37  C   UNL     1       4.876   0.102  -0.044  0.00  0.00    +0.129 C 
ENDBRANCH  32  35
ENDBRANCH  28  29
ENDBRANCH  26  27
ENDBRANCH   6  26
TORSDOF 9
