REMARK  Name = ZINC14461154
REMARK  5 active torsions:
REMARK  status: ('A' for Active; 'I' for Inactive)
REMARK    1  A    between atoms: C_1  and  C_2
REMARK    2  A    between atoms: C_2  and  C_3
REMARK    3  A    between atoms: C_2  and  C_4
REMARK    4  A    between atoms: C_11  and  C_20
REMARK    5  A    between atoms: C_25  and  O_26
REMARK                            x       y       z     vdW  Elec       q    Type
REMARK                         _______ _______ _______ _____ _____    ______ ____
ROOT
ATOM      1  C   UNL     1       0.001   1.052   2.458  0.00  0.00    -0.024 A 
ATOM      2  C   UNL     1       1.317   1.409   2.651  0.00  0.00    +0.006 A 
ATOM      3  C   UNL     1       2.000   0.975   3.773  0.00  0.00    +0.001 A 
ATOM      4  C   UNL     1       1.355   0.173   4.697  0.00  0.00    +0.006 A 
ATOM      5  C   UNL     1       0.039  -0.191   4.510  0.00  0.00    -0.019 A 
ATOM      6  C   UNL     1      -0.668   0.256   3.390  0.00  0.00    +0.035 A 
ATOM      7  N   UNL     1      -2.008  -0.037   3.144  0.00  0.00    -0.336 N 
ATOM      8  C   UNL     1      -2.669  -0.954   4.087  0.00  0.00    +0.108 C 
ATOM      9  C   UNL     1      -2.163  -0.610   5.472  0.00  0.00    +0.029 C 
ATOM     10  C   UNL     1      -0.670  -1.064   5.471  0.00  0.00    +0.049 C 
ATOM     11  C   UNL     1      -0.346  -1.090   6.919  0.00  0.00    -0.023 C 
ATOM     12  C   UNL     1      -1.458  -1.353   7.597  0.00  0.00    -0.030 C 
ATOM     13  C   UNL     1      -2.637  -1.488   6.630  0.00  0.00    +0.033 C 
ATOM     14  H   UNL     1      -2.146  -0.337   2.191  0.00  0.00    +0.147 HD
ENDROOT
BRANCH   8  15
ATOM     15  C   UNL     1      -4.163  -0.766   4.024  0.00  0.00    +0.015 A 
ATOM     16  C   UNL     1      -4.998  -1.867   4.008  0.00  0.00    +0.024 A 
ATOM     17  C   UNL     1      -6.369  -1.695   3.950  0.00  0.00    +0.018 A 
ATOM     18  C   UNL     1      -6.907  -0.421   3.907  0.00  0.00    +0.019 A 
ATOM     19  C   UNL     1      -6.076   0.682   3.922  0.00  0.00    +0.047 A 
ATOM     20  C   UNL     1      -4.701   0.512   3.987  0.00  0.00    +0.122 A 
ATOM     21 BR   UNL     1      -7.509  -3.204   3.928  0.00  0.00    -0.050 Br
BRANCH  20  22
ATOM     22  O   UNL     1      -3.881   1.596   4.008  0.00  0.00    -0.506 OA
ATOM     23  H   UNL     1      -3.671   1.947   3.131  0.00  0.00    +0.292 HD
ENDBRANCH  20  22
ENDBRANCH   8  15
BRANCH   1  25
ATOM     24  C   UNL     1      -0.013   1.017  -0.021  0.00  0.00    +0.012 C 
ATOM     25  C   UNL     1      -0.728   1.531   1.230  0.00  0.00    +0.015 C 
ATOM     26  C   UNL     1      -0.748   3.061   1.213  0.00  0.00    +0.012 C 
ENDBRANCH   1  25
TORSDOF 3
