REMARK  Name = ZINC27558384
REMARK  17 active torsions:
REMARK  status: ('A' for Active; 'I' for Inactive)
REMARK    1  A    between atoms: C_1  and  C_2
REMARK    2  A    between atoms: C_2  and  N_3
REMARK    3  A    between atoms: N_3  and  C_4
REMARK    4  A    between atoms: N_3  and  S_6
REMARK    5  A    between atoms: C_4  and  C_5
REMARK    6  A    between atoms: S_6  and  C_9
REMARK    7  A    between atoms: C_12  and  O_31
REMARK    8  A    between atoms: C_13  and  N_15
REMARK    9  A    between atoms: C_16  and  C_18
REMARK   10  A    between atoms: C_18  and  N_19
REMARK   11  A    between atoms: N_19  and  C_20
REMARK   12  A    between atoms: N_19  and  C_21
REMARK   13  A    between atoms: C_21  and  C_23
REMARK   14  A    between atoms: C_21  and  C_24
REMARK   15  A    between atoms: O_31  and  C_32
REMARK   16  A    between atoms: C_32  and  C_33
REMARK   17  A    between atoms: C_32  and  C_34
REMARK                            x       y       z     vdW  Elec       q    Type
REMARK                         _______ _______ _______ _____ _____    ______ ____
ROOT
ATOM      1  C   UNL     1       0.202  -2.728   0.090  0.00  0.00    +0.107 A 
ATOM      2  C   UNL     1       1.353  -1.965   0.022  0.00  0.00    +0.032 A 
ATOM      3  C   UNL     1       1.274  -0.585   0.031  0.00  0.00    +0.049 A 
ATOM      4  C   UNL     1       0.038   0.038   0.109  0.00  0.00    +0.142 A 
ATOM      5  C   UNL     1      -1.121  -0.730   0.183  0.00  0.00    +0.077 A 
ATOM      6  C   UNL     1      -1.034  -2.115   0.168  0.00  0.00    +0.055 A 
ENDROOT
BRANCH   5   7
ATOM      7  N   UNL     1      -2.373  -0.106   0.268  0.00  0.00    -0.284 N 
ATOM      8  C   UNL     1      -3.478  -0.751  -0.156  0.00  0.00    +0.201 C 
ATOM      9  O   UNL     1      -3.378  -1.829  -0.704  0.00  0.00    -0.278 OA
ATOM     10  H   UNL     1      -2.454   0.910   0.681  0.00  0.00    +0.155 HD
BRANCH   8  11
ATOM     11  C   UNL     1      -4.837  -0.134   0.051  0.00  0.00    +0.019 C 
BRANCH  11  12
ATOM     12  N   UNL     1      -5.868  -1.026  -0.494  0.00  0.00    +0.388 N 
ATOM     13  C   UNL     1      -5.935  -2.281   0.267  0.00  0.00    -0.095 C 
ATOM     14  H   UNL     1      -5.589  -1.273  -1.529  0.00  0.00    -0.081 HD
BRANCH  12  15
ATOM     15  C   UNL     1      -7.177  -0.360  -0.527  0.00  0.00    -0.041 C 
ATOM     16  C   UNL     1      -7.093   0.888  -1.408  0.00  0.00    -0.008 C 
BRANCH  15  17
ATOM     17  C   UNL     1      -8.207  -1.304  -1.091  0.00  0.00    -0.061 A 
ATOM     18  C   UNL     1      -7.886  -2.118  -2.162  0.00  0.00    +0.005 A 
ATOM     19  C   UNL     1      -8.829  -2.988  -2.676  0.00  0.00    +0.038 A 
ATOM     20  C   UNL     1     -10.098  -3.037  -2.126  0.00  0.00    +0.123 A 
ATOM     21  C   UNL     1     -10.421  -2.218  -1.057  0.00  0.00    +0.038 A 
ATOM     22  C   UNL     1      -9.475  -1.353  -0.541  0.00  0.00    +0.005 A 
ATOM     23  F   UNL     1     -11.022  -3.883  -2.632  0.00  0.00    -0.205 F 
ENDBRANCH  15  17
ENDBRANCH  12  15
ENDBRANCH  11  12
ENDBRANCH   8  11
ENDBRANCH   5   7
BRANCH   1  24
ATOM     24  S   UNL     1       0.311  -4.487   0.076  0.00  0.00    +0.061 S 
ATOM     25  O   UNL     1      -0.938  -4.968  -0.401  0.00  0.00    -0.153 OA
ATOM     26  O   UNL     1       1.543  -4.812  -0.553  0.00  0.00    -0.153 OA
BRANCH  24  27
ATOM     27  N   UNL     1       0.439  -4.981   1.651  0.00  0.00    -0.177 NA
BRANCH  27  29
ATOM     28  C   UNL     1      -1.059  -6.780   2.361  0.00  0.00    +0.022 C 
ATOM     29  C   UNL     1      -0.769  -5.279   2.426  0.00  0.00    +0.106 C 
ENDBRANCH  27  29
BRANCH  27  30
ATOM     30  C   UNL     1       1.759  -5.121   2.271  0.00  0.00    +0.106 C 
ATOM     31  C   UNL     1       2.106  -3.838   3.028  0.00  0.00    +0.022 C 
ENDBRANCH  27  30
ENDBRANCH  24  27
ENDBRANCH   1  24
BRANCH   4  32
ATOM     32  O   UNL     1      -0.041   1.395   0.119  0.00  0.00    -0.488 OA
BRANCH  32  33
ATOM     33  C   UNL     1       1.192   2.117   0.154  0.00  0.00    +0.167 C 
ATOM     34  C   UNL     1       0.983   3.511  -0.441  0.00  0.00    +0.051 C 
ATOM     35  C   UNL     1       1.667   2.247   1.602  0.00  0.00    +0.051 C 
ENDBRANCH  32  33
ENDBRANCH   4  32
TORSDOF 11
