REMARK  Name = ZINC24450833
REMARK  6 active torsions:
REMARK  status: ('A' for Active; 'I' for Inactive)
REMARK    1  A    between atoms: C_9  and  C_18
REMARK    2  A    between atoms: C_18  and  N_19
REMARK    3  A    between atoms: C_20  and  C_22
REMARK    4  A    between atoms: C_22  and  C_23
REMARK    5  A    between atoms: C_23  and  C_25
REMARK    6  A    between atoms: C_23  and  N_32
REMARK                            x       y       z     vdW  Elec       q    Type
REMARK                         _______ _______ _______ _____ _____    ______ ____
ROOT
ATOM      1  N   UNL     1      -1.259   1.212  -0.417  0.00  0.00    -0.315 N 
ATOM      2  C   UNL     1       0.004   0.773  -0.247  0.00  0.00    +0.215 C 
ATOM      3  O   UNL     1       0.224  -0.414  -0.136  0.00  0.00    -0.276 OA
ATOM      4  H   UNL     1      -1.459   2.289  -0.517  0.00  0.00    +0.149 HD
ENDROOT
BRANCH   1   5
ATOM      5  C   UNL     1      -2.366   0.254  -0.467  0.00  0.00    +0.108 C 
BRANCH   5  14
ATOM      6  C   UNL     1      -8.236   2.351  -1.689  0.00  0.00    +0.000 A 
ATOM      7  C   UNL     1      -8.257   1.718  -0.461  0.00  0.00    +0.000 A 
ATOM      8  C   UNL     1      -7.181   0.943  -0.049  0.00  0.00    +0.004 A 
ATOM      9  C   UNL     1      -6.104   0.818  -0.880  0.00  0.00    -0.036 A 
ATOM     10  C   UNL     1      -6.082   1.456  -2.119  0.00  0.00    -0.036 A 
ATOM     11  C   UNL     1      -7.137   2.220  -2.530  0.00  0.00    +0.004 A 
ATOM     12  C   UNL     1      -4.815   1.220  -2.925  0.00  0.00    +0.050 C 
ATOM     13  C   UNL     1      -3.660   1.704  -2.023  0.00  0.00    +0.018 C 
ATOM     14  C   UNL     1      -3.683   1.006  -0.666  0.00  0.00    +0.019 C 
ATOM     15  C   UNL     1      -4.856   0.006  -0.569  0.00  0.00    +0.054 C 
ATOM     16  C   UNL     1      -4.687  -0.929  -1.756  0.00  0.00    -0.036 A 
ATOM     17  C   UNL     1      -4.665  -0.291  -2.994  0.00  0.00    -0.036 A 
ATOM     18  C   UNL     1      -4.517  -1.008  -4.147  0.00  0.00    +0.004 A 
ATOM     19  C   UNL     1      -4.390  -2.389  -4.064  0.00  0.00    +0.000 A 
ATOM     20  C   UNL     1      -4.411  -3.022  -2.836  0.00  0.00    +0.000 A 
ATOM     21  C   UNL     1      -4.562  -2.286  -1.667  0.00  0.00    +0.004 A 
ENDBRANCH   5  14
ENDBRANCH   1   5
BRANCH   2  22
ATOM     22  C   UNL     1       1.144   1.759  -0.201  0.00  0.00    +0.123 C 
BRANCH  22  23
ATOM     23  C   UNL     1       2.461   1.006  -0.008  0.00  0.00    +0.115 C 
BRANCH  23  24
ATOM     24  C   UNL     1       3.611   1.977  -0.085  0.00  0.00    -0.008 A 
ATOM     25  C   UNL     1       3.375   3.336   0.005  0.00  0.00    +0.007 A 
ATOM     26  C   UNL     1       4.430   4.227  -0.061  0.00  0.00    +0.000 A 
ATOM     27  C   UNL     1       5.720   3.760  -0.228  0.00  0.00    +0.001 A 
ATOM     28  C   UNL     1       5.957   2.402  -0.324  0.00  0.00    +0.020 A 
ATOM     29  C   UNL     1       4.902   1.509  -0.252  0.00  0.00    +0.046 A 
ATOM     30 CL   UNL     1       5.199  -0.197  -0.373  0.00  0.00    -0.083 Cl
ENDBRANCH  23  24
BRANCH  23  31
ATOM     31  N   UNL     1       2.462   0.351   1.302  0.00  0.00    -0.292 N 
ATOM     32  C   UNL     1       2.440   1.094   2.427  0.00  0.00    +0.298 C 
ATOM     33  O   UNL     1       2.324   2.302   2.355  0.00  0.00    -0.253 OA
ATOM     34  N   UNL     1       2.545   0.497   3.631  0.00  0.00    -0.313 N 
ATOM     35  H   UNL     1       2.482  -0.747   1.369  0.00  0.00    +0.151 HD
ATOM     36  H   UNL     1       2.527   1.103   4.548  0.00  0.00    +0.146 HD
ATOM     37  H   UNL     1       2.650  -0.596   3.695  0.00  0.00    +0.146 HD
ENDBRANCH  23  31
ENDBRANCH  22  23
ENDBRANCH   2  22
TORSDOF 6
