REMARK  Name = ZINC38903750
REMARK  3 active torsions:
REMARK  status: ('A' for Active; 'I' for Inactive)
REMARK    1  A    between atoms: N_8  and  N_9
REMARK    2  A    between atoms: C_10  and  C_12
REMARK    3  A    between atoms: C_15  and  C_17
REMARK                            x       y       z     vdW  Elec       q    Type
REMARK                         _______ _______ _______ _____ _____    ______ ____
ROOT
ATOM      1  N   UNL     1       1.292  -4.444  -0.034  0.00  0.00    -0.201 N 
ATOM      2  C   UNL     1       0.458  -5.503  -0.032  0.00  0.00    +0.280 C 
ATOM      3  O   UNL     1      -0.746  -5.329  -0.019  0.00  0.00    -0.267 OA
ATOM      4  H   UNL     1       2.252  -4.583  -0.044  0.00  0.00    +0.178 HD
ENDROOT
BRANCH   1  12
ATOM      5  C   UNL     1      -0.017   1.376   0.010  0.00  0.00    +0.001 A 
ATOM      6  C   UNL     1       1.172   2.086   0.002  0.00  0.00    +0.002 A 
ATOM      7  C   UNL     1       2.385   1.427  -0.013  0.00  0.00    +0.024 A 
ATOM      8  C   UNL     1       2.424   0.037  -0.021  0.00  0.00    +0.043 A 
ATOM      9  C   UNL     1       1.219  -0.677  -0.013  0.00  0.00    +0.028 A 
ATOM     10  C   UNL     1       0.002  -0.004   0.002  0.00  0.00    +0.012 A 
ATOM     11  C   UNL     1       1.584  -2.113  -0.024  0.00  0.00    +0.153 C 
ATOM     12  N   UNL     1       0.772  -3.143  -0.022  0.00  0.00    -0.174 NA
ATOM     13  C   UNL     1       3.060  -2.131  -0.038  0.00  0.00    +0.269 C 
ATOM     14  O   UNL     1       3.764  -3.123  -0.050  0.00  0.00    -0.268 OA
ATOM     15  N   UNL     1       3.488  -0.857  -0.036  0.00  0.00    -0.280 N 
ATOM     16  H   UNL     1       4.422  -0.595  -0.044  0.00  0.00    +0.155 HD
ENDBRANCH   1  12
BRANCH   2  17
ATOM     17  C   UNL     1       1.003  -6.868  -0.044  0.00  0.00    +0.132 C 
ATOM     18  N   UNL     1       2.258  -7.224  -0.052  0.00  0.00    -0.149 NA
ATOM     19  N   UNL     1       2.447  -8.485  -0.062  0.00  0.00    -0.157 NA
ATOM     20  C   UNL     1       1.359  -9.194  -0.061  0.00  0.00    +0.053 C 
ATOM     21  C   UNL     1       0.230  -8.176  -0.044  0.00  0.00    +0.116 C 
BRANCH  20  22
ATOM     22  C   UNL     1       1.241 -10.696  -0.072  0.00  0.00    +0.012 C 
ATOM     23  C   UNL     1       0.488 -11.157   1.178  0.00  0.00    +0.016 C 
ATOM     24  C   UNL     1       0.368 -12.682   1.167  0.00  0.00    -0.010 C 
ATOM     25  C   UNL     1       1.767 -13.303   1.157  0.00  0.00    +0.007 C 
ATOM     26  C   UNL     1       2.520 -12.842  -0.092  0.00  0.00    -0.010 C 
ATOM     27  C   UNL     1       2.640 -11.317  -0.082  0.00  0.00    +0.016 C 
ATOM     28  C   UNL     1       1.756 -13.286  -1.341  0.00  0.00    +0.007 C 
ATOM     29  C   UNL     1       0.358 -12.665  -1.331  0.00  0.00    -0.010 C 
ATOM     30  C   UNL     1      -0.396 -13.126  -0.082  0.00  0.00    +0.007 C 
ATOM     31  C   UNL     1       0.477 -11.139  -1.321  0.00  0.00    +0.016 C 
ENDBRANCH  20  22
ENDBRANCH   2  17
TORSDOF 3
