REMARK  Name = ZINC49937300
REMARK  3 active torsions:
REMARK  status: ('A' for Active; 'I' for Inactive)
REMARK    1  A    between atoms: C_7  and  C_27
REMARK    2  A    between atoms: C_17  and  C_20
REMARK    3  A    between atoms: C_20  and  C_21
REMARK                            x       y       z     vdW  Elec       q    Type
REMARK                         _______ _______ _______ _____ _____    ______ ____
ROOT
ATOM      1  C   UNL     1      -3.272  -5.365   0.628  0.00  0.00    +0.033 C 
ATOM      2  C   UNL     1      -2.201  -4.592   0.390  0.00  0.00    +0.031 C 
ATOM      3  C   UNL     1      -1.939  -4.045  -0.953  0.00  0.00    +0.090 C 
ATOM      4  C   UNL     1      -0.752  -3.443  -1.189  0.00  0.00    +0.249 C 
ATOM      5  O   UNL     1      -0.474  -2.962  -2.424  0.00  0.00    -0.270 OA
ATOM      6  N   UNL     1       0.178  -3.317  -0.178  0.00  0.00    -0.215 N 
ATOM      7  C   UNL     1       1.385  -2.507  -0.378  0.00  0.00    +0.211 C 
ATOM      8  N   UNL     1       2.483  -3.074   0.409  0.00  0.00    -0.335 N 
ATOM      9  C   UNL     1       2.247  -3.797   1.469  0.00  0.00    +0.196 C 
ATOM     10  N   UNL     1       0.997  -4.120   1.846  0.00  0.00    -0.186 NA
ATOM     11  C   UNL     1      -0.022  -3.909   1.042  0.00  0.00    +0.199 C 
ATOM     12  N   UNL     1      -1.294  -4.270   1.414  0.00  0.00    -0.287 N 
ATOM     13  N   UNL     1       3.311  -4.245   2.226  0.00  0.00    -0.301 N 
ATOM     14  C   UNL     1       3.274  -5.569   2.861  0.00  0.00    +0.108 C 
ATOM     15  C   UNL     1       3.566  -5.406   4.356  0.00  0.00    +0.023 C 
ATOM     16  C   UNL     1       4.891  -4.660   4.535  0.00  0.00    -0.004 C 
ATOM     17  C   UNL     1       4.782  -3.268   3.910  0.00  0.00    +0.023 C 
ATOM     18  C   UNL     1       4.506  -3.408   2.405  0.00  0.00    +0.108 C 
ATOM     19  H   UNL     1      -1.556  -4.305   2.347  0.00  0.00    +0.155 HD
ATOM     20  H   UNL     1       3.400  -2.910   0.137  0.00  0.00    +0.164 HD
ENDROOT
BRANCH   7  21
ATOM     21  C   UNL     1       1.122  -1.092   0.070  0.00  0.00    -0.007 A 
ATOM     22  C   UNL     1      -0.154  -0.567  -0.012  0.00  0.00    +0.007 A 
ATOM     23  C   UNL     1      -0.395   0.730   0.399  0.00  0.00    +0.000 A 
ATOM     24  C   UNL     1       0.640   1.503   0.892  0.00  0.00    +0.000 A 
ATOM     25  C   UNL     1       1.916   0.978   0.974  0.00  0.00    +0.000 A 
ATOM     26  C   UNL     1       2.156  -0.321   0.568  0.00  0.00    +0.007 A 
ENDBRANCH   7  21
BRANCH  16  27
ATOM     27  C   UNL     1       5.203  -4.527   6.027  0.00  0.00    +0.038 C 
BRANCH  27  28
ATOM     28  C   UNL     1       6.564  -3.903   6.201  0.00  0.00    -0.047 A 
ATOM     29  C   UNL     1       7.688  -4.704   6.268  0.00  0.00    +0.003 A 
ATOM     30  C   UNL     1       8.936  -4.131   6.428  0.00  0.00    +0.000 A 
ATOM     31  C   UNL     1       9.060  -2.758   6.520  0.00  0.00    +0.000 A 
ATOM     32  C   UNL     1       7.935  -1.956   6.452  0.00  0.00    +0.000 A 
ATOM     33  C   UNL     1       6.688  -2.529   6.288  0.00  0.00    +0.003 A 
ENDBRANCH  27  28
ENDBRANCH  16  27
TORSDOF 3
