REMARK  Name = ZINC21462701
REMARK  18 active torsions:
REMARK  status: ('A' for Active; 'I' for Inactive)
REMARK    1  A    between atoms: C_1  and  C_2
REMARK    2  A    between atoms: C_2  and  C_3
REMARK    3  A    between atoms: C_2  and  C_4
REMARK    4  A    between atoms: C_8  and  C_33
REMARK    5  A    between atoms: C_9  and  N_10
REMARK    6  A    between atoms: C_11  and  C_13
REMARK    7  A    between atoms: C_13  and  S_14
REMARK    8  A    between atoms: S_14  and  C_15
REMARK    9  A    between atoms: C_18  and  C_21
REMARK   10  A    between atoms: N_19  and  N_20
REMARK   11  A    between atoms: C_21  and  O_22
REMARK   12  A    between atoms: O_22  and  C_23
REMARK   13  A    between atoms: C_26  and  C_29
REMARK   14  A    between atoms: C_29  and  C_30
REMARK   15  A    between atoms: C_29  and  C_31
REMARK   16  A    between atoms: C_29  and  C_32
REMARK   17  A    between atoms: C_33  and  C_34
REMARK   18  A    between atoms: C_33  and  C_35
REMARK                            x       y       z     vdW  Elec       q    Type
REMARK                         _______ _______ _______ _____ _____    ______ ____
ROOT
ATOM      1  C   UNL     1       0.592  -1.646  -1.595  0.00  0.00    +0.209 A 
ATOM      2  N   UNL     1       0.332  -2.848  -1.137  0.00  0.00    -0.121 NA
ATOM      3  N   UNL     1       0.626  -3.728  -2.026  0.00  0.00    -0.128 NA
ATOM      4  C   UNL     1       1.087  -3.145  -3.096  0.00  0.00    +0.189 A 
ATOM      5  N   UNL     1       1.077  -1.798  -2.863  0.00  0.00    -0.225 N 
ENDROOT
BRANCH   5   6
ATOM      6  N   UNL     1       1.473  -0.809  -3.718  0.00  0.00    -0.295 N 
ATOM      7  H   UNL     1       1.847  -1.066  -4.720  0.00  0.00    +0.163 HD
ATOM      8  H   UNL     1       1.417   0.244  -3.405  0.00  0.00    +0.163 HD
ENDBRANCH   5   6
BRANCH   1   9
ATOM      9  S   UNL     1       0.354  -0.124  -0.740  0.00  0.00    -0.075 S 
BRANCH   9  10
ATOM     10  C   UNL     1      -0.306  -0.745   0.827  0.00  0.00    +0.173 C 
BRANCH  10  12
ATOM     11  N   UNL     1      -1.093   0.192   2.977  0.00  0.00    -0.284 N 
ATOM     12  C   UNL     1      -0.593   0.415   1.746  0.00  0.00    +0.228 C 
ATOM     13  O   UNL     1      -0.373   1.550   1.377  0.00  0.00    -0.275 OA
ATOM     14  H   UNL     1      -1.373  -0.828   3.280  0.00  0.00    +0.155 HD
BRANCH  11  20
ATOM     15  C   UNL     1      -2.121   2.299   3.558  0.00  0.00    -0.023 A 
ATOM     16  C   UNL     1      -2.284   3.347   4.443  0.00  0.00    +0.006 A 
ATOM     17  C   UNL     1      -1.581   3.364   5.634  0.00  0.00    +0.001 A 
ATOM     18  C   UNL     1      -0.717   2.330   5.944  0.00  0.00    +0.006 A 
ATOM     19  C   UNL     1      -0.553   1.278   5.066  0.00  0.00    -0.023 A 
ATOM     20  C   UNL     1      -1.257   1.257   3.869  0.00  0.00    +0.040 A 
BRANCH  15  22
ATOM     21  C   UNL     1      -4.224   1.577   2.461  0.00  0.00    +0.012 C 
ATOM     22  C   UNL     1      -2.883   2.285   2.258  0.00  0.00    +0.015 C 
ATOM     23  C   UNL     1      -3.129   3.722   1.795  0.00  0.00    +0.012 C 
ENDBRANCH  15  22
BRANCH  19  24
ATOM     24  C   UNL     1       0.391   0.152   5.405  0.00  0.00    +0.015 C 
ATOM     25  C   UNL     1       1.805   0.708   5.583  0.00  0.00    +0.012 C 
ATOM     26  C   UNL     1      -0.062  -0.519   6.704  0.00  0.00    +0.012 C 
ENDBRANCH  19  24
ENDBRANCH  11  20
ENDBRANCH  10  12
ENDBRANCH   9  10
ENDBRANCH   1   9
BRANCH   4  27
ATOM     27  C   UNL     1       1.542  -3.829  -4.360  0.00  0.00    +0.306 C 
BRANCH  27  28
ATOM     28  O   UNL     1       0.435  -3.963  -5.254  0.00  0.00    -0.484 OA
BRANCH  28  29
ATOM     29  C   UNL     1       0.677  -4.564  -6.449  0.00  0.00    +0.121 A 
ATOM     30  C   UNL     1       1.954  -5.009  -6.757  0.00  0.00    +0.046 A 
ATOM     31  C   UNL     1       2.195  -5.625  -7.970  0.00  0.00    +0.008 A 
ATOM     32  C   UNL     1       1.168  -5.786  -8.882  0.00  0.00    -0.042 A 
ATOM     33  C   UNL     1      -0.105  -5.338  -8.579  0.00  0.00    +0.008 A 
ATOM     34  C   UNL     1      -0.353  -4.727  -7.365  0.00  0.00    +0.046 A 
BRANCH  32  35
ATOM     35  C   UNL     1       1.435  -6.452 -10.207  0.00  0.00    -0.013 C 
ATOM     36  C   UNL     1       1.105  -5.480 -11.341  0.00  0.00    +0.015 C 
ATOM     37  C   UNL     1       2.910  -6.850 -10.289  0.00  0.00    +0.015 C 
ATOM     38  C   UNL     1       0.562  -7.702 -10.335  0.00  0.00    +0.015 C 
ENDBRANCH  32  35
ENDBRANCH  28  29
ENDBRANCH  27  28
ENDBRANCH   4  27
TORSDOF 11
