REMARK  Name = ZINC19332962
REMARK  7 active torsions:
REMARK  status: ('A' for Active; 'I' for Inactive)
REMARK    1  A    between atoms: C_6  and  C_7
REMARK    2  A    between atoms: C_7  and  O_32
REMARK    3  A    between atoms: N_10  and  C_13
REMARK    4  A    between atoms: C_13  and  C_14
REMARK    5  A    between atoms: C_14  and  C_16
REMARK    6  A    between atoms: C_14  and  O_31
REMARK    7  A    between atoms: C_26  and  C_28
REMARK                            x       y       z     vdW  Elec       q    Type
REMARK                         _______ _______ _______ _____ _____    ______ ____
ROOT
ATOM      1  C   UNL     1      -0.756   1.887  -3.659  0.00  0.00    +0.128 C 
ENDROOT
BRANCH   1   2
ATOM      2  C   UNL     1      -0.058   1.434  -4.915  0.00  0.00    -0.021 A 
ATOM      3  C   UNL     1      -0.404   0.231  -5.502  0.00  0.00    +0.008 A 
ATOM      4  C   UNL     1       0.236  -0.184  -6.652  0.00  0.00    +0.024 A 
ATOM      5  C   UNL     1       1.228   0.608  -7.221  0.00  0.00    +0.039 A 
ATOM      6  C   UNL     1       1.572   1.816  -6.634  0.00  0.00    -0.026 A 
ATOM      7  C   UNL     1       0.922   2.226  -5.482  0.00  0.00    +0.011 A 
ATOM      8  C   UNL     1       2.633   2.704  -7.228  0.00  0.00    +0.038 C 
ATOM      9  C   UNL     1       3.553   1.900  -8.147  0.00  0.00    +0.024 C 
ATOM     10  C   UNL     1       2.692   1.117  -9.147  0.00  0.00    +0.114 C 
ATOM     11  N   UNL     1       1.871   0.166  -8.385  0.00  0.00    -0.271 N 
ATOM     12  C   UNL     1       1.740  -1.110  -8.798  0.00  0.00    +0.223 C 
ATOM     13  O   UNL     1       1.002  -1.867  -8.203  0.00  0.00    -0.275 OA
BRANCH  12  14
ATOM     14  C   UNL     1       2.510  -1.597  -9.998  0.00  0.00    +0.076 C 
ATOM     15  C   UNL     1       1.706  -2.036 -11.223  0.00  0.00    +0.013 C 
ATOM     16  C   UNL     1       2.404  -3.082 -10.351  0.00  0.00    +0.013 C 
ENDBRANCH  12  14
ENDBRANCH   1   2
BRANCH   1  17
ATOM     17  O   UNL     1      -2.123   1.473  -3.698  0.00  0.00    -0.389 OA
ATOM     18  H   UNL     1      -2.781   1.823  -4.508  0.00  0.00    +0.210 HD
ENDBRANCH   1  17
BRANCH   1  19
ATOM     19  C   UNL     1      -0.070   1.263  -2.442  0.00  0.00    -0.042 C 
BRANCH  19  23
ATOM     20  C   UNL     1      -0.992   2.621   1.506  0.00  0.00    +0.088 C 
ATOM     21  C   UNL     1      -1.265   3.538   0.311  0.00  0.00    +0.021 C 
ATOM     22  C   UNL     1      -0.421   3.080  -0.880  0.00  0.00    -0.076 C 
ATOM     23  N   UNL     1      -0.760   1.691  -1.218  0.00  0.00    +0.382 N 
ATOM     24  C   UNL     1      -0.462   0.786  -0.101  0.00  0.00    -0.076 C 
ATOM     25  C   UNL     1      -1.307   1.175   1.114  0.00  0.00    +0.021 C 
ATOM     26  H   UNL     1      -1.843   1.647  -1.405  0.00  0.00    -0.082 HD
BRANCH  20  32
ATOM     27  C   UNL     1      -3.123   2.477   2.812  0.00  0.00    +0.009 A 
ATOM     28  C   UNL     1      -3.921   2.848   3.877  0.00  0.00    +0.039 A 
ATOM     29  C   UNL     1      -3.465   3.781   4.792  0.00  0.00    +0.123 A 
ATOM     30  C   UNL     1      -2.206   4.338   4.642  0.00  0.00    +0.039 A 
ATOM     31  C   UNL     1      -1.407   3.962   3.579  0.00  0.00    +0.009 A 
ATOM     32  C   UNL     1      -1.864   3.030   2.666  0.00  0.00    -0.016 A 
ATOM     33  F   UNL     1      -4.246   4.147   5.831  0.00  0.00    -0.205 F 
ENDBRANCH  20  32
BRANCH  20  34
ATOM     34  O   UNL     1       0.383   2.725   1.883  0.00  0.00    -0.384 OA
ATOM     35  H   UNL     1       1.172   2.466   1.162  0.00  0.00    +0.211 HD
ENDBRANCH  20  34
ENDBRANCH  19  23
ENDBRANCH   1  19
TORSDOF 7
