REMARK  Name = ZINC64031442
REMARK  12 active torsions:
REMARK  status: ('A' for Active; 'I' for Inactive)
REMARK    1  A    between atoms: C_1  and  O_2
REMARK    2  A    between atoms: O_2  and  C_3
REMARK    3  A    between atoms: C_3  and  C_4
REMARK    4  A    between atoms: C_4  and  N_5
REMARK    5  A    between atoms: C_6  and  C_8
REMARK    6  A    between atoms: C_11  and  S_26
REMARK    7  A    between atoms: N_14  and  C_15
REMARK    8  A    between atoms: C_15  and  C_16
REMARK    9  A    between atoms: C_21  and  O_22
REMARK   10  A    between atoms: O_22  and  C_23
REMARK   11  A    between atoms: C_23  and  C_24
REMARK   12  A    between atoms: S_26  and  C_27
REMARK                            x       y       z     vdW  Elec       q    Type
REMARK                         _______ _______ _______ _____ _____    ______ ____
ROOT
ATOM      1  C   UNL     1      -2.484  -4.345  -1.134  0.00  0.00    +0.021 C 
ATOM      2  C   UNL     1      -3.291  -3.779   0.049  0.00  0.00    +0.006 C 
ATOM      3  C   UNL     1      -3.821  -5.018   0.806  0.00  0.00    +0.033 C 
ATOM      4  C   UNL     1      -3.776  -6.129  -0.273  0.00  0.00    -0.063 C 
ATOM      5  N   UNL     1      -2.533  -5.820  -1.032  0.00  0.00    +0.391 N 
ATOM      6  H   UNL     1      -1.727  -6.161  -0.531  0.00  0.00    -0.080 HD
ENDROOT
BRANCH   1   8
ATOM      7  N   UNL     1      -0.776  -2.556  -1.119  0.00  0.00    -0.314 N 
ATOM      8  C   UNL     1      -1.055  -3.873  -1.054  0.00  0.00    +0.200 C 
ATOM      9  O   UNL     1      -0.156  -4.678  -0.932  0.00  0.00    -0.278 OA
ATOM     10  H   UNL     1      -1.495  -1.912  -1.217  0.00  0.00    +0.149 HD
BRANCH   7  11
ATOM     11  C   UNL     1       0.613  -2.097  -1.041  0.00  0.00    +0.132 C 
BRANCH  11  12
ATOM     12  C   UNL     1       0.652  -0.570  -1.138  0.00  0.00    +0.178 C 
BRANCH  12  14
ATOM     13  C   UNL     1      -0.017   1.425   0.010  0.00  0.00    +0.194 C 
ATOM     14  O   UNL     1       0.002  -0.004   0.002  0.00  0.00    -0.381 OA
ENDBRANCH  12  14
ENDBRANCH  11  12
ENDBRANCH   7  11
ENDBRANCH   1   8
BRANCH   5  15
ATOM     15  C   UNL     1      -2.591  -6.419  -2.372  0.00  0.00    -0.038 C 
BRANCH  15  16
ATOM     16  C   UNL     1      -2.517  -7.920  -2.255  0.00  0.00    -0.022 A 
ATOM     17  C   UNL     1      -1.320  -8.572  -2.476  0.00  0.00    +0.005 A 
ATOM     18  C   UNL     1      -1.252  -9.949  -2.369  0.00  0.00    +0.000 A 
ATOM     19  C   UNL     1      -2.381 -10.676  -2.041  0.00  0.00    +0.004 A 
ATOM     20  C   UNL     1      -3.580 -10.028  -1.818  0.00  0.00    +0.046 A 
ATOM     21  C   UNL     1      -3.650  -8.646  -1.919  0.00  0.00    +0.122 A 
BRANCH  21  22
ATOM     22  O   UNL     1      -4.828  -8.006  -1.696  0.00  0.00    -0.488 OA
BRANCH  22  23
ATOM     23  C   UNL     1      -5.953  -8.818  -1.354  0.00  0.00    +0.256 C 
BRANCH  23  24
ATOM     24  C   UNL     1      -7.160  -7.941  -1.144  0.00  0.00    +0.006 C 
ATOM     25  C   UNL     1      -8.313  -8.278  -1.667  0.00  0.00    +0.007 C 
ENDBRANCH  23  24
ENDBRANCH  22  23
ENDBRANCH  21  22
ENDBRANCH  15  16
ENDBRANCH   5  15
BRANCH   3  26
ATOM     26  S   UNL     1      -5.521  -4.741   1.378  0.00  0.00    -0.114 S 
BRANCH  26  27
ATOM     27  C   UNL     1      -5.358  -3.426   2.617  0.00  0.00    +0.236 C 
ATOM     28  N   UNL     1      -4.718  -2.247   2.020  0.00  0.00    -0.355 N 
ATOM     29  C   UNL     1      -3.614  -2.029   2.674  0.00  0.00    +0.061 A 
ATOM     30  C   UNL     1      -2.562  -1.012   2.546  0.00  0.00    +0.027 A 
ATOM     31  C   UNL     1      -1.508  -1.036   3.386  0.00  0.00    +0.002 A 
ATOM     32  C   UNL     1      -1.365  -2.005   4.395  0.00  0.00    +0.002 A 
ATOM     33  C   UNL     1      -2.271  -2.981   4.599  0.00  0.00    +0.027 A 
ATOM     34  C   UNL     1      -3.462  -3.055   3.742  0.00  0.00    +0.061 A 
ATOM     35  N   UNL     1      -4.479  -3.867   3.707  0.00  0.00    -0.355 N 
ATOM     36  H   UNL     1      -5.056  -1.727   1.275  0.00  0.00    +0.162 HD
ATOM     37  H   UNL     1      -4.628  -4.625   4.294  0.00  0.00    +0.162 HD
ENDBRANCH  26  27
ENDBRANCH   3  26
TORSDOF 11
