REMARK  Name = ZINC40322044
REMARK  11 active torsions:
REMARK  status: ('A' for Active; 'I' for Inactive)
REMARK    1  A    between atoms: C_1  and  N_2
REMARK    2  A    between atoms: N_2  and  C_3
REMARK    3  A    between atoms: N_2  and  C_4
REMARK    4  A    between atoms: C_4  and  C_6
REMARK    5  A    between atoms: C_4  and  C_25
REMARK    6  A    between atoms: C_6  and  N_7
REMARK    7  A    between atoms: C_8  and  C_10
REMARK    8  A    between atoms: C_13  and  S_15
REMARK    9  A    between atoms: S_15  and  C_18
REMARK   10  A    between atoms: C_28  and  O_31
REMARK   11  A    between atoms: O_31  and  C_32
REMARK                            x       y       z     vdW  Elec       q    Type
REMARK                         _______ _______ _______ _____ _____    ______ ____
ROOT
ATOM      1  N   UNL     1      -1.766   1.531  -1.169  0.00  0.00    -0.310 N 
ATOM      2  C   UNL     1      -2.260   2.263  -2.188  0.00  0.00    +0.279 C 
ATOM      3  O   UNL     1      -2.937   1.730  -3.047  0.00  0.00    -0.267 OA
ATOM      4  H   UNL     1      -1.227   1.956  -0.484  0.00  0.00    +0.149 HD
ENDROOT
BRANCH   2   5
ATOM      5  C   UNL     1      -1.982   3.701  -2.260  0.00  0.00    +0.192 A 
ATOM      6  C   UNL     1      -2.422   4.556  -3.229  0.00  0.00    +0.056 A 
ATOM      7  C   UNL     1      -1.923   5.827  -2.903  0.00  0.00    +0.070 A 
ATOM      8  C   UNL     1      -1.208   5.694  -1.764  0.00  0.00    +0.246 A 
ATOM      9  O   UNL     1      -1.250   4.412  -1.377  0.00  0.00    -0.433 OA
BRANCH   8  10
ATOM     10  S   UNL     1      -0.365   6.992  -0.924  0.00  0.00    +0.058 S 
ATOM     11  O   UNL     1       0.666   6.380  -0.161  0.00  0.00    -0.161 OA
ATOM     12  O   UNL     1      -0.100   7.998  -1.893  0.00  0.00    -0.161 OA
BRANCH  10  13
ATOM     13  C   UNL     1      -1.499   7.690   0.230  0.00  0.00    +0.097 A 
ATOM     14  C   UNL     1      -2.317   8.737  -0.152  0.00  0.00    +0.029 A 
ATOM     15  C   UNL     1      -3.207   9.285   0.752  0.00  0.00    +0.022 A 
ATOM     16  C   UNL     1      -3.280   8.784   2.040  0.00  0.00    +0.041 A 
ATOM     17  C   UNL     1      -2.461   7.736   2.421  0.00  0.00    +0.022 A 
ATOM     18  C   UNL     1      -1.576   7.186   1.514  0.00  0.00    +0.029 A 
ATOM     19 CL   UNL     1      -4.397   9.472   3.177  0.00  0.00    -0.084 Cl
ENDBRANCH  10  13
ENDBRANCH   8  10
ENDBRANCH   2   5
BRANCH   1  20
ATOM     20  C   UNL     1      -2.044   0.095  -1.098  0.00  0.00    +0.094 C 
BRANCH  20  21
ATOM     21  C   UNL     1      -1.281  -0.514   0.081  0.00  0.00    -0.021 C 
BRANCH  21  22
ATOM     22  C   UNL     1      -1.799   0.070   1.370  0.00  0.00    -0.059 A 
ATOM     23  C   UNL     1      -2.968  -0.415   1.927  0.00  0.00    +0.005 A 
ATOM     24  C   UNL     1      -3.444   0.119   3.108  0.00  0.00    +0.046 A 
ATOM     25  C   UNL     1      -2.749   1.143   3.736  0.00  0.00    +0.120 A 
ATOM     26  C   UNL     1      -1.576   1.627   3.175  0.00  0.00    +0.046 A 
ATOM     27  C   UNL     1      -1.101   1.086   1.996  0.00  0.00    +0.005 A 
BRANCH  25  28
ATOM     28  O   UNL     1      -3.216   1.670   4.898  0.00  0.00    -0.495 OA
ATOM     29  C   UNL     1      -2.449   2.721   5.489  0.00  0.00    +0.277 C 
ENDBRANCH  25  28
ENDBRANCH  21  22
BRANCH  21  31
ATOM     30  C   UNL     1      -0.970  -2.540  -1.166  0.00  0.00    -0.096 C 
ATOM     31  N   UNL     1      -1.476  -1.970   0.090  0.00  0.00    +0.382 N 
ATOM     32  C   UNL     1      -0.745  -2.555   1.222  0.00  0.00    -0.096 C 
ATOM     33  H   UNL     1      -2.459  -2.178   0.181  0.00  0.00    -0.082 HD
ENDBRANCH  21  31
ENDBRANCH  20  21
ENDBRANCH   1  20
TORSDOF 8
