REMARK  Name = ZINC30944130
REMARK  8 active torsions:
REMARK  status: ('A' for Active; 'I' for Inactive)
REMARK    1  A    between atoms: C_1  and  C_2
REMARK    2  A    between atoms: C_2  and  C_3
REMARK    3  A    between atoms: C_2  and  C_4
REMARK    4  A    between atoms: C_2  and  C_5
REMARK    5  A    between atoms: N_11  and  S_27
REMARK    6  A    between atoms: C_13  and  C_16
REMARK    7  A    between atoms: N_18  and  C_19
REMARK    8  A    between atoms: S_27  and  C_30
REMARK                            x       y       z     vdW  Elec       q    Type
REMARK                         _______ _______ _______ _____ _____    ______ ____
ROOT
ATOM      1  C   UNL     1      -6.471  -5.845   1.100  0.00  0.00    -0.040 A 
ATOM      2  C   UNL     1      -5.903  -6.089  -0.136  0.00  0.00    +0.008 A 
ATOM      3  C   UNL     1      -4.848  -5.316  -0.583  0.00  0.00    +0.048 A 
ATOM      4  C   UNL     1      -4.354  -4.290   0.208  0.00  0.00    +0.144 A 
ATOM      5  C   UNL     1      -4.930  -4.045   1.452  0.00  0.00    +0.093 A 
ATOM      6  C   UNL     1      -5.987  -4.823   1.896  0.00  0.00    +0.032 A 
ATOM      7  N   UNL     1      -4.436  -3.004   2.255  0.00  0.00    -0.200 N 
ATOM      8  C   UNL     1      -3.137  -2.414   1.889  0.00  0.00    +0.185 C 
ATOM      9  C   UNL     1      -3.112  -2.256   0.362  0.00  0.00    +0.277 C 
ATOM     10  O   UNL     1      -3.313  -3.538  -0.239  0.00  0.00    -0.476 OA
ENDROOT
BRANCH   1  12
ATOM     11  C   UNL     1      -7.959  -7.742   0.520  0.00  0.00    +0.015 C 
ATOM     12  C   UNL     1      -7.620  -6.693   1.581  0.00  0.00    -0.013 C 
ATOM     13  C   UNL     1      -7.227  -7.393   2.884  0.00  0.00    +0.015 C 
ATOM     14  C   UNL     1      -8.842  -5.805   1.828  0.00  0.00    +0.015 C 
ENDBRANCH   1  12
BRANCH   9  15
ATOM     15  C   UNL     1      -1.779  -1.700  -0.067  0.00  0.00    +0.256 C 
ATOM     16  O   UNL     1      -1.031  -2.373  -0.745  0.00  0.00    -0.272 OA
ATOM     17  N   UNL     1      -1.417  -0.456   0.303  0.00  0.00    -0.309 N 
ATOM     18  H   UNL     1      -2.095   0.154   0.918  0.00  0.00    +0.149 HD
BRANCH  17  19
ATOM     19  C   UNL     1      -0.121   0.084  -0.114  0.00  0.00    +0.073 C 
ATOM     20  C   UNL     1      -0.189   1.613  -0.136  0.00  0.00    +0.022 C 
ATOM     21  C   UNL     1       1.230   2.185  -0.175  0.00  0.00    +0.002 C 
ATOM     22  C   UNL     1       1.803   2.030  -1.586  0.00  0.00    +0.000 C 
ATOM     23  C   UNL     1       2.212   0.574  -1.813  0.00  0.00    +0.000 C 
ATOM     24  C   UNL     1       2.951   0.052  -0.579  0.00  0.00    +0.000 C 
ATOM     25  C   UNL     1       2.107  -1.026   0.104  0.00  0.00    +0.002 C 
ATOM     26  C   UNL     1       0.960  -0.365   0.871  0.00  0.00    +0.022 C 
ENDBRANCH  17  19
ENDBRANCH   9  15
BRANCH   7  27
ATOM     27  S   UNL     1      -5.285  -2.459   3.568  0.00  0.00    +0.043 S 
ATOM     28  O   UNL     1      -4.740  -1.176   3.844  0.00  0.00    -0.155 OA
ATOM     29  O   UNL     1      -6.651  -2.602   3.202  0.00  0.00    -0.155 OA
ATOM     30  C   UNL     1      -4.871  -3.614   4.904  0.00  0.00    +0.218 C 
ENDBRANCH   7  27
TORSDOF 4
