REMARK  Name = ZINC02626480
REMARK  3 active torsions:
REMARK  status: ('A' for Active; 'I' for Inactive)
REMARK    1  A    between atoms: C_1  and  C_2
REMARK    2  A    between atoms: C_5  and  C_8
REMARK    3  A    between atoms: C_14  and  C_18
REMARK                            x       y       z     vdW  Elec       q    Type
REMARK                         _______ _______ _______ _____ _____    ______ ____
ROOT
ATOM      1  C   UNL     1       1.613  -0.170   0.877  0.00  0.00    +0.110 C 
ATOM      2  C   UNL     1       2.378  -1.399   0.362  0.00  0.00    +0.051 C 
ATOM      3  C   UNL     1       3.826  -0.848   0.362  0.00  0.00    +0.099 C 
ATOM      4  C   UNL     1       3.658   0.644   0.190  0.00  0.00    +0.218 C 
ATOM      5  O   UNL     1       4.562   1.419  -0.036  0.00  0.00    -0.276 OA
ATOM      6  N   UNL     1       2.350   0.996   0.326  0.00  0.00    -0.268 N 
ATOM      7  C   UNL     1       1.495   2.143  -0.001  0.00  0.00    +0.200 C 
ATOM      8  C   UNL     1      -0.023   1.846   0.012  0.00  0.00    +0.105 C 
ATOM      9  S   UNL     1       0.002  -0.004   0.002  0.00  0.00    -0.128 S 
ENDROOT
BRANCH   1  14
ATOM     10  C   UNL     1       1.089  -0.031   6.630  0.00  0.00    +0.044 C 
ATOM     11  C   UNL     1       1.226  -0.067   5.130  0.00  0.00    -0.050 A 
ATOM     12  C   UNL     1       0.252  -0.678   4.362  0.00  0.00    +0.004 A 
ATOM     13  C   UNL     1       0.378  -0.711   2.986  0.00  0.00    +0.007 A 
ATOM     14  C   UNL     1       1.476  -0.134   2.377  0.00  0.00    -0.014 A 
ATOM     15  C   UNL     1       2.452   0.473   3.146  0.00  0.00    +0.007 A 
ATOM     16  C   UNL     1       2.324   0.511   4.522  0.00  0.00    +0.004 A 
ENDBRANCH   1  14
BRANCH   7  17
ATOM     17  C   UNL     1       1.774   3.242   0.992  0.00  0.00    +0.377 C 
ATOM     18  O   UNL     1       2.500   3.035   1.935  0.00  0.00    -0.244 OA
ATOM     19  O   UNL     1       1.215   4.452   0.828  0.00  0.00    -0.244 OA
ENDBRANCH   7  17
TORSDOF 2
