REMARK  Name = ZINC02226132
REMARK  8 active torsions:
REMARK  status: ('A' for Active; 'I' for Inactive)
REMARK    1  A    between atoms: C_1  and  C_2
REMARK    2  A    between atoms: C_2  and  C_32
REMARK    3  A    between atoms: C_6  and  C_24
REMARK    4  A    between atoms: C_8  and  C_22
REMARK    5  A    between atoms: C_9  and  N_21
REMARK    6  A    between atoms: N_10  and  C_11
REMARK    7  A    between atoms: C_14  and  S_17
REMARK    8  A    between atoms: S_17  and  N_20
REMARK                            x       y       z     vdW  Elec       q    Type
REMARK                         _______ _______ _______ _____ _____    ______ ____
ROOT
ATOM      1  C   UNL     1       1.025   4.486  -1.798  0.00  0.00    +0.011 C 
ATOM      2  C   UNL     1       1.986   3.862  -2.812  0.00  0.00    -0.023 C 
ATOM      3  C   UNL     1       3.410   3.888  -2.255  0.00  0.00    +0.058 C 
ATOM      4  C   UNL     1       3.474   3.073  -0.986  0.00  0.00    +0.025 C 
ATOM      5  C   UNL     1       2.665   2.009  -0.802  0.00  0.00    +0.026 C 
ATOM      6  C   UNL     1       2.732   1.193   0.464  0.00  0.00    +0.104 C 
ATOM      7  C   UNL     1       4.016   1.440   1.200  0.00  0.00    +0.077 C 
ATOM      8  C   UNL     1       4.776   2.535   0.938  0.00  0.00    +0.107 C 
ATOM      9  N   UNL     1       4.379   3.437  -0.023  0.00  0.00    -0.260 N 
ATOM     10  C   UNL     1       1.733   1.629  -1.784  0.00  0.00    +0.162 C 
ATOM     11  O   UNL     1       1.029   0.656  -1.594  0.00  0.00    -0.292 OA
ATOM     12  C   UNL     1       1.591   2.403  -3.066  0.00  0.00    +0.086 C 
ATOM     13  C   UNL     1       1.932   4.649  -4.123  0.00  0.00    +0.011 C 
ENDROOT
BRANCH   9  14
ATOM     14  C   UNL     1       4.902   4.735  -0.017  0.00  0.00    +0.040 A 
ATOM     15  C   UNL     1       6.068   5.018  -0.717  0.00  0.00    +0.026 A 
ATOM     16  C   UNL     1       6.580   6.301  -0.712  0.00  0.00    +0.030 A 
ATOM     17  C   UNL     1       5.939   7.300  -0.003  0.00  0.00    +0.105 A 
ATOM     18  C   UNL     1       4.780   7.020   0.699  0.00  0.00    +0.030 A 
ATOM     19  C   UNL     1       4.261   5.740   0.694  0.00  0.00    +0.026 A 
BRANCH  17  20
ATOM     20  S   UNL     1       6.598   8.934   0.006  0.00  0.00    +0.056 S 
ATOM     21  O   UNL     1       7.386   9.060  -1.170  0.00  0.00    -0.153 OA
ATOM     22  O   UNL     1       5.516   9.807   0.295  0.00  0.00    -0.153 OA
BRANCH  20  23
ATOM     23  N   UNL     1       7.642   9.034   1.288  0.00  0.00    -0.204 NA
ATOM     24  H   UNL     1       7.783   8.263   1.860  0.00  0.00    +0.144 HD
ATOM     25  H   UNL     1       8.114   9.863   1.466  0.00  0.00    +0.144 HD
ENDBRANCH  20  23
ENDBRANCH  17  20
ENDBRANCH   9  14
BRANCH   6  26
ATOM     26  C   UNL     1       1.573   1.564   1.353  0.00  0.00    +0.002 A 
ATOM     27  C   UNL     1       0.566   0.782   1.813  0.00  0.00    +0.012 A 
ATOM     28  C   UNL     1      -0.404   1.345   2.621  0.00  0.00    +0.008 A 
ATOM     29  C   UNL     1      -0.313   2.660   2.938  0.00  0.00    +0.045 A 
ATOM     30  S   UNL     1       1.171   3.147   2.073  0.00  0.00    -0.101 S 
ENDBRANCH   6  26
BRANCH   8  31
ATOM     31  N   UNL     1       5.943   2.742   1.633  0.00  0.00    -0.345 N 
ATOM     32  H   UNL     1       6.180   2.156   2.369  0.00  0.00    +0.144 HD
ATOM     33  H   UNL     1       6.531   3.474   1.387  0.00  0.00    +0.144 HD
ENDBRANCH   8  31
BRANCH   7  34
ATOM     34  C   UNL     1       4.447   0.506   2.196  0.00  0.00    +0.099 C 
ATOM     35  N   UNL     1       4.789  -0.235   2.986  0.00  0.00    -0.191 NA
ENDBRANCH   7  34
TORSDOF 6
