REMARK  Name = ZINC39899056
REMARK  5 active torsions:
REMARK  status: ('A' for Active; 'I' for Inactive)
REMARK    1  A    between atoms: C_3  and  C_8
REMARK    2  A    between atoms: C_11  and  C_27
REMARK    3  A    between atoms: N_18  and  C_19
REMARK    4  A    between atoms: C_19  and  C_20
REMARK    5  A    between atoms: C_32  and  O_33
REMARK                            x       y       z     vdW  Elec       q    Type
REMARK                         _______ _______ _______ _____ _____    ______ ____
ROOT
ATOM      1  C   UNL     1       3.464   1.734   0.157  0.00  0.00    +0.142 C 
ATOM      2  C   UNL     1       4.115   2.123   1.456  0.00  0.00    +0.035 A 
ATOM      3  C   UNL     1       4.001   2.793   2.679  0.00  0.00    +0.102 A 
ATOM      4  N   UNL     1       5.144   2.644   3.319  0.00  0.00    -0.173 NA
ATOM      5  N   UNL     1       5.968   1.946   2.622  0.00  0.00    -0.272 N 
ATOM      6  H   UNL     1       6.869   1.711   2.895  0.00  0.00    +0.189 HD
ATOM      7  C   UNL     1       5.388   1.585   1.439  0.00  0.00    +0.126 A 
ATOM      8  C   UNL     1       5.573   0.865   0.174  0.00  0.00    +0.266 C 
ATOM      9  O   UNL     1       6.589   0.279  -0.148  0.00  0.00    -0.268 OA
ATOM     10  N   UNL     1       4.461   0.946  -0.580  0.00  0.00    -0.281 N 
ENDROOT
BRANCH   1  13
ATOM     11  C   UNL     1       1.241  -1.144   1.173  0.00  0.00    +0.002 A 
ATOM     12  C   UNL     1       2.366  -0.379   0.929  0.00  0.00    +0.006 A 
ATOM     13  C   UNL     1       2.237   0.901   0.422  0.00  0.00    -0.021 A 
ATOM     14  C   UNL     1       0.981   1.416   0.157  0.00  0.00    +0.025 A 
ATOM     15  C   UNL     1      -0.145   0.650   0.400  0.00  0.00    +0.041 A 
ATOM     16  C   UNL     1      -0.015  -0.630   0.908  0.00  0.00    +0.020 A 
ATOM     17 CL   UNL     1      -1.722   1.297   0.069  0.00  0.00    -0.084 Cl
ENDBRANCH   1  13
BRANCH   3  18
ATOM     18  C   UNL     1       2.812   3.536   3.165  0.00  0.00    +0.045 A 
ATOM     19  C   UNL     1       1.714   3.723   2.329  0.00  0.00    +0.033 A 
ATOM     20  C   UNL     1       0.610   4.415   2.787  0.00  0.00    +0.042 A 
ATOM     21  C   UNL     1       0.590   4.923   4.075  0.00  0.00    +0.023 A 
ATOM     22  C   UNL     1       1.675   4.742   4.912  0.00  0.00    +0.047 A 
ATOM     23  C   UNL     1       2.786   4.045   4.467  0.00  0.00    +0.126 A 
ATOM     24 CL   UNL     1      -0.758   4.649   1.744  0.00  0.00    -0.084 Cl
BRANCH  23  25
ATOM     25  O   UNL     1       3.851   3.861   5.291  0.00  0.00    -0.506 OA
ATOM     26  H   UNL     1       4.513   4.564   5.241  0.00  0.00    +0.292 HD
ENDBRANCH  23  25
ENDBRANCH   3  18
BRANCH  10  27
ATOM     27  C   UNL     1       4.275   0.351  -1.905  0.00  0.00    +0.144 C 
BRANCH  27  28
ATOM     28  C   UNL     1       4.704   1.334  -2.963  0.00  0.00    -0.030 A 
ATOM     29  C   UNL     1       3.790   2.230  -3.485  0.00  0.00    +0.008 A 
ATOM     30  C   UNL     1       4.183   3.133  -4.455  0.00  0.00    +0.038 A 
ATOM     31  C   UNL     1       5.493   3.140  -4.903  0.00  0.00    +0.123 A 
ATOM     32  C   UNL     1       6.408   2.243  -4.379  0.00  0.00    +0.038 A 
ATOM     33  C   UNL     1       6.014   1.345  -3.406  0.00  0.00    +0.008 A 
ATOM     34  F   UNL     1       5.878   4.022  -5.851  0.00  0.00    -0.205 F 
ENDBRANCH  27  28
ENDBRANCH  10  27
TORSDOF 5
