REMARK  Name = ZINC16098438
REMARK  5 active torsions:
REMARK  status: ('A' for Active; 'I' for Inactive)
REMARK    1  A    between atoms: C_3  and  S_19
REMARK    2  A    between atoms: C_6  and  N_7
REMARK    3  A    between atoms: N_7  and  S_8
REMARK    4  A    between atoms: S_8  and  C_11
REMARK    5  A    between atoms: S_19  and  N_22
REMARK                            x       y       z     vdW  Elec       q    Type
REMARK                         _______ _______ _______ _____ _____    ______ ____
ROOT
ATOM      1  C   UNL     1      -5.823   4.408   4.425  0.00  0.00    +0.026 A 
ATOM      2  C   UNL     1      -4.669   4.497   3.672  0.00  0.00    +0.031 A 
ATOM      3  C   UNL     1      -4.732   4.403   2.294  0.00  0.00    +0.113 A 
ATOM      4  C   UNL     1      -5.951   4.226   1.665  0.00  0.00    +0.031 A 
ATOM      5  C   UNL     1      -7.108   4.130   2.412  0.00  0.00    +0.026 A 
ATOM      6  C   UNL     1      -7.048   4.224   3.797  0.00  0.00    +0.048 A 
ENDROOT
BRANCH   3   7
ATOM      7  S   UNL     1      -3.257   4.518   1.336  0.00  0.00    +0.100 S 
ATOM      8  O   UNL     1      -2.316   5.234   2.124  0.00  0.00    -0.146 OA
ATOM      9  O   UNL     1      -3.647   4.946   0.039  0.00  0.00    -0.146 OA
BRANCH   7  10
ATOM     10  N   UNL     1      -2.662   2.981   1.168  0.00  0.00    -0.118 NA
ATOM     11  C   UNL     1      -1.573   2.779   0.501  0.00  0.00    +0.117 C 
ATOM     12  C   UNL     1      -0.871   3.943  -0.108  0.00  0.00    +0.073 C 
ATOM     13  C   UNL     1      -1.317   4.123  -1.575  0.00  0.00    +0.008 C 
ATOM     14  C   UNL     1      -0.793   3.022  -2.414  0.00  0.00    +0.002 C 
ATOM     15  C   UNL     1      -1.325   1.644  -2.048  0.00  0.00    +0.019 C 
ATOM     16  C   UNL     1      -0.516   1.049  -0.921  0.00  0.00    +0.102 C 
ATOM     17  N   UNL     1      -1.091   1.485   0.373  0.00  0.00    -0.331 N 
ATOM     18  H   UNL     1      -1.130   0.871   1.123  0.00  0.00    +0.147 HD
ENDBRANCH   7  10
ENDBRANCH   3   7
BRANCH   6  19
ATOM     19  N   UNL     1      -8.217   4.134   4.556  0.00  0.00    -0.216 N 
ATOM     20  H   UNL     1      -8.241   3.568   5.344  0.00  0.00    +0.174 HD
BRANCH  19  21
ATOM     21  S   UNL     1      -9.561   4.992   4.111  0.00  0.00    +0.074 S 
ATOM     22  O   UNL     1      -9.808   4.681   2.746  0.00  0.00    -0.150 OA
ATOM     23  O   UNL     1     -10.532   4.783   5.127  0.00  0.00    -0.150 OA
BRANCH  21  24
ATOM     24  C   UNL     1      -9.132   6.700   4.168  0.00  0.00    +0.128 A 
ATOM     25  C   UNL     1      -9.133   7.452   3.009  0.00  0.00    +0.050 A 
ATOM     26  C   UNL     1      -8.800   8.794   3.054  0.00  0.00    +0.043 A 
ATOM     27  C   UNL     1      -8.457   9.381   4.260  0.00  0.00    +0.021 A 
ATOM     28  C   UNL     1      -8.451   8.628   5.418  0.00  0.00    +0.023 A 
ATOM     29  C   UNL     1      -8.789   7.287   5.373  0.00  0.00    +0.068 A 
ATOM     30 CL   UNL     1      -8.781   6.340   6.828  0.00  0.00    -0.082 Cl
ATOM     31 CL   UNL     1      -8.808   9.740   1.599  0.00  0.00    -0.083 Cl
ENDBRANCH  21  24
ENDBRANCH  19  21
ENDBRANCH   6  19
TORSDOF 5
