REMARK  Name = ZINC15860309
REMARK  11 active torsions:
REMARK  status: ('A' for Active; 'I' for Inactive)
REMARK    1  A    between atoms: C_1  and  C_2
REMARK    2  A    between atoms: C_5  and  C_7
REMARK    3  A    between atoms: C_7  and  C_9
REMARK    4  A    between atoms: C_7  and  N_60
REMARK    5  A    between atoms: C_9  and  N_10
REMARK    6  A    between atoms: C_11  and  C_13
REMARK    7  A    between atoms: C_13  and  O_14
REMARK    8  A    between atoms: O_14  and  C_15
REMARK    9  A    between atoms: C_17  and  C_23
REMARK   10  A    between atoms: C_19  and  C_21
REMARK   11  A    between atoms: C_26  and  C_29
REMARK                            x       y       z     vdW  Elec       q    Type
REMARK                         _______ _______ _______ _____ _____    ______ ____
ROOT
ATOM      1  C   UNL     1      -4.411   1.310   3.423  0.00  0.00    +0.096 C 
ENDROOT
BRANCH   1   2
ATOM      2  N   UNL     1      -5.827   1.602   3.661  0.00  0.00    -0.314 N 
ATOM      3  C   UNL     1      -6.663   0.617   4.043  0.00  0.00    +0.251 C 
ATOM      4  O   UNL     1      -6.243  -0.512   4.189  0.00  0.00    -0.272 OA
ATOM      5  H   UNL     1      -6.162   2.505   3.544  0.00  0.00    +0.149 HD
BRANCH   3   6
ATOM      6  C   UNL     1      -8.119   0.917   4.289  0.00  0.00    +0.324 C 
BRANCH   6   7
ATOM      7  O   UNL     1      -8.793  -0.281   4.681  0.00  0.00    -0.483 OA
BRANCH   7   8
ATOM      8  C   UNL     1     -10.123  -0.183   4.941  0.00  0.00    +0.122 A 
ATOM      9  C   UNL     1     -10.765   1.041   4.828  0.00  0.00    +0.050 A 
ATOM     10  C   UNL     1     -12.118   1.137   5.089  0.00  0.00    -0.028 A 
ATOM     11  C   UNL     1     -12.831   0.015   5.473  0.00  0.00    +0.047 A 
ATOM     12  C   UNL     1     -12.191  -1.206   5.592  0.00  0.00    -0.028 A 
ATOM     13  C   UNL     1     -10.839  -1.307   5.327  0.00  0.00    +0.050 A 
ATOM     14  C   UNL     1     -12.970  -2.426   6.011  0.00  0.00    +0.045 C 
ATOM     15 CL   UNL     1     -14.530   0.140   5.807  0.00  0.00    -0.083 Cl
ATOM     16  C   UNL     1     -12.817   2.466   4.961  0.00  0.00    +0.045 C 
ENDBRANCH   7   8
ENDBRANCH   6   7
ENDBRANCH   3   6
ENDBRANCH   1   2
BRANCH   1  17
ATOM     17  C   UNL     1      -3.666   2.612   3.122  0.00  0.00    +0.016 C 
BRANCH  17  24
ATOM     18  C   UNL     1      -3.583   4.518   1.631  0.00  0.00    -0.078 C 
ATOM     19  C   UNL     1      -4.370   5.289   0.569  0.00  0.00    -0.015 C 
ATOM     20  C   UNL     1      -4.578   4.395  -0.656  0.00  0.00    -0.018 C 
ATOM     21  C   UNL     1      -5.308   3.119  -0.229  0.00  0.00    -0.015 C 
ATOM     22  C   UNL     1      -4.494   2.410   0.856  0.00  0.00    -0.078 C 
ATOM     23  C   UNL     1      -5.417   5.140  -1.697  0.00  0.00    +0.007 C 
ATOM     24  N   UNL     1      -4.350   3.314   2.017  0.00  0.00    +0.387 N 
ATOM     25  H   UNL     1      -5.284   3.602   2.332  0.00  0.00    -0.081 HD
ENDBRANCH  17  24
BRANCH  17  30
ATOM     26  C   UNL     1       0.367   1.236   0.422  0.00  0.00    +0.086 C 
ATOM     27  C   UNL     1      -0.486   1.702   1.574  0.00  0.00    +0.102 A 
ATOM     28  C   UNL     1      -0.043   2.010   2.806  0.00  0.00    +0.044 A 
ATOM     29  C   UNL     1      -1.174   2.396   3.563  0.00  0.00    +0.043 A 
ATOM     30  C   UNL     1      -2.240   2.300   2.748  0.00  0.00    +0.093 A 
ATOM     31  O   UNL     1      -1.816   1.884   1.543  0.00  0.00    -0.466 OA
ENDBRANCH  17  30
ENDBRANCH   1  17
TORSDOF 7
