REMARK  Name = ZINC36586911
REMARK  14 active torsions:
REMARK  status: ('A' for Active; 'I' for Inactive)
REMARK    1  A    between atoms: C_1  and  C_2
REMARK    2  A    between atoms: C_2  and  C_3
REMARK    3  A    between atoms: C_3  and  C_4
REMARK    4  A    between atoms: C_4  and  N_5
REMARK    5  A    between atoms: C_6  and  C_8
REMARK    6  A    between atoms: C_8  and  C_10
REMARK    7  A    between atoms: C_8  and  N_24
REMARK    8  A    between atoms: N_24  and  C_35
REMARK    9  A    between atoms: C_25  and  C_27
REMARK   10  A    between atoms: C_31  and  O_34
REMARK   11  A    between atoms: C_32  and  O_33
REMARK   12  A    between atoms: C_35  and  C_36
REMARK   13  A    between atoms: C_35  and  C_37
REMARK   14  A    between atoms: C_35  and  C_38
REMARK                            x       y       z     vdW  Elec       q    Type
REMARK                         _______ _______ _______ _____ _____    ______ ____
ROOT
ATOM      1  C   UNL     1      -3.312  -4.491   0.728  0.00  0.00    +0.194 C 
ENDROOT
BRANCH   1   2
ATOM      2  C   UNL     1      -4.257  -3.550   0.025  0.00  0.00    -0.010 A 
ATOM      3  C   UNL     1      -5.295  -4.056  -0.672  0.00  0.00    +0.015 A 
ATOM      4  C   UNL     1      -6.209  -3.215  -1.348  0.00  0.00    -0.017 A 
ATOM      5  C   UNL     1      -7.285  -3.751  -2.070  0.00  0.00    +0.008 A 
ATOM      6  C   UNL     1      -8.152  -2.916  -2.712  0.00  0.00    +0.001 A 
ATOM      7  C   UNL     1      -7.984  -1.537  -2.663  0.00  0.00    +0.001 A 
ATOM      8  C   UNL     1      -6.946  -0.984  -1.969  0.00  0.00    +0.009 A 
ATOM      9  C   UNL     1      -6.042  -1.812  -1.300  0.00  0.00    -0.010 A 
ATOM     10  C   UNL     1      -4.914  -1.262  -0.543  0.00  0.00    -0.010 A 
ATOM     11  C   UNL     1      -4.040  -2.155   0.116  0.00  0.00    -0.012 A 
ATOM     12  C   UNL     1      -2.961  -1.639   0.848  0.00  0.00    +0.009 A 
ATOM     13  C   UNL     1      -2.774  -0.290   0.918  0.00  0.00    +0.001 A 
ATOM     14  C   UNL     1      -3.641   0.585   0.274  0.00  0.00    +0.001 A 
ATOM     15  C   UNL     1      -4.694   0.114  -0.457  0.00  0.00    +0.009 A 
ENDBRANCH   1   2
BRANCH   1  17
ATOM     16  N   UNL     1      -1.881  -4.218  -1.272  0.00  0.00    -0.313 N 
ATOM     17  C   UNL     1      -2.291  -5.003  -0.255  0.00  0.00    +0.238 C 
ATOM     18  O   UNL     1      -1.837  -6.120  -0.130  0.00  0.00    -0.273 OA
ATOM     19  H   UNL     1      -2.238  -3.321  -1.366  0.00  0.00    +0.149 HD
BRANCH  16  20
ATOM     20  C   UNL     1      -0.898  -4.721  -2.234  0.00  0.00    +0.104 C 
BRANCH  20  21
ATOM     21  C   UNL     1      -0.609  -3.641  -3.279  0.00  0.00    +0.018 C 
BRANCH  21  23
ATOM     22  C   UNL     1       0.707  -3.086  -5.329  0.00  0.00    +0.004 C 
ATOM     23  C   UNL     1       0.418  -4.166  -4.284  0.00  0.00    -0.002 C 
ENDBRANCH  21  23
ENDBRANCH  20  21
ENDBRANCH  16  20
ENDBRANCH   1  17
BRANCH   1  24
ATOM     24  N   UNL     1      -4.067  -5.618   1.280  0.00  0.00    -0.277 N 
ATOM     25  C   UNL     1      -4.571  -6.559   0.457  0.00  0.00    +0.252 C 
ATOM     26  O   UNL     1      -5.469  -7.284   0.839  0.00  0.00    -0.270 OA
BRANCH  25  27
ATOM     27  C   UNL     1      -4.032  -6.711  -0.908  0.00  0.00    +0.082 A 
ATOM     28  C   UNL     1      -3.629  -5.585  -1.633  0.00  0.00    +0.017 A 
ATOM     29  C   UNL     1      -3.126  -5.731  -2.907  0.00  0.00    +0.005 A 
ATOM     30  C   UNL     1      -3.016  -6.989  -3.477  0.00  0.00    +0.049 A 
ATOM     31  C   UNL     1      -3.411  -8.113  -2.772  0.00  0.00    +0.159 A 
ATOM     32  C   UNL     1      -3.916  -7.982  -1.482  0.00  0.00    +0.171 A 
BRANCH  32  33
ATOM     33  O   UNL     1      -4.299  -9.083  -0.785  0.00  0.00    -0.503 OA
ATOM     34  H   UNL     1      -5.226  -9.327  -0.914  0.00  0.00    +0.292 HD
ENDBRANCH  32  33
BRANCH  31  35
ATOM     35  O   UNL     1      -3.301  -9.344  -3.338  0.00  0.00    -0.503 OA
ATOM     36  H   UNL     1      -2.454  -9.780  -3.171  0.00  0.00    +0.292 HD
ENDBRANCH  31  35
ENDBRANCH  25  27
BRANCH  24  37
ATOM     37  C   UNL     1      -4.274  -5.723   2.726  0.00  0.00    +0.030 C 
ATOM     38  C   UNL     1      -3.596  -4.543   3.425  0.00  0.00    +0.031 C 
ATOM     39  C   UNL     1      -5.774  -5.703   3.029  0.00  0.00    +0.031 C 
ATOM     40  C   UNL     1      -3.668  -7.033   3.234  0.00  0.00    +0.031 C 
ENDBRANCH  24  37
ENDBRANCH   1  24
TORSDOF 10
