REMARK  Name = ZINC27528158
REMARK  10 active torsions:
REMARK  status: ('A' for Active; 'I' for Inactive)
REMARK    1  A    between atoms: C_1  and  C_2
REMARK    2  A    between atoms: C_6  and  N_8
REMARK    3  A    between atoms: N_8  and  C_9
REMARK    4  A    between atoms: C_9  and  C_11
REMARK    5  A    between atoms: C_9  and  C_12
REMARK    6  A    between atoms: N_14  and  N_15
REMARK    7  A    between atoms: C_16  and  C_17
REMARK    8  A    between atoms: C_22  and  O_23
REMARK    9  A    between atoms: O_23  and  C_24
REMARK   10  A    between atoms: C_24  and  C_25
REMARK                            x       y       z     vdW  Elec       q    Type
REMARK                         _______ _______ _______ _____ _____    ______ ____
ROOT
ATOM      1  N   UNL     1      -3.685  -0.756   1.282  0.00  0.00    -0.188 NA
ATOM      2  C   UNL     1      -3.905  -2.035   1.278  0.00  0.00    +0.142 C 
ENDROOT
BRANCH   2   3
ATOM      3  C   UNL     1      -5.288  -2.545   1.288  0.00  0.00    +0.036 A 
ATOM      4  C   UNL     1      -5.529  -3.921   1.277  0.00  0.00    +0.013 A 
ATOM      5  C   UNL     1      -6.825  -4.391   1.292  0.00  0.00    +0.001 A 
ATOM      6  C   UNL     1      -7.889  -3.506   1.307  0.00  0.00    +0.004 A 
ATOM      7  C   UNL     1      -7.664  -2.142   1.313  0.00  0.00    +0.046 A 
ATOM      8  C   UNL     1      -6.368  -1.652   1.303  0.00  0.00    +0.130 A 
BRANCH   8   9
ATOM      9  O   UNL     1      -6.146  -0.313   1.309  0.00  0.00    -0.487 OA
BRANCH   9  10
ATOM     10  C   UNL     1      -7.295   0.536   1.325  0.00  0.00    +0.264 C 
BRANCH  10  11
ATOM     11  C   UNL     1      -6.856   1.977   1.329  0.00  0.00    -0.010 A 
ATOM     12  C   UNL     1      -6.649   2.633   2.529  0.00  0.00    +0.008 A 
ATOM     13  C   UNL     1      -6.242   3.954   2.534  0.00  0.00    +0.015 A 
ATOM     14  C   UNL     1      -6.051   4.622   1.338  0.00  0.00    +0.018 A 
ATOM     15  C   UNL     1      -6.263   3.968   0.138  0.00  0.00    +0.015 A 
ATOM     16  C   UNL     1      -6.665   2.646   0.134  0.00  0.00    +0.008 A 
ATOM     17 BR   UNL     1      -5.499   6.431   1.344  0.00  0.00    -0.050 Br
ENDBRANCH  10  11
ENDBRANCH   9  10
ENDBRANCH   8   9
ENDBRANCH   2   3
BRANCH   1  20
ATOM     18  C   UNL     1      -2.143   1.058   1.278  0.00  0.00    +0.252 C 
ATOM     19  O   UNL     1      -3.075   1.833   1.291  0.00  0.00    -0.272 OA
ATOM     20  N   UNL     1      -2.371  -0.271   1.273  0.00  0.00    -0.205 N 
ATOM     21  H   UNL     1      -1.525  -0.974   1.261  0.00  0.00    +0.177 HD
BRANCH  18  22
ATOM     22  C   UNL     1      -0.729   1.579   1.267  0.00  0.00    +0.155 C 
ATOM     23  C   UNL     1      -0.013   1.086   0.008  0.00  0.00    +0.038 C 
BRANCH  22  24
ATOM     24  N   UNL     1      -0.749   3.044   1.275  0.00  0.00    -0.333 N 
ATOM     25  H   UNL     1      -1.623   3.584   0.884  0.00  0.00    +0.147 HD
BRANCH  24  31
ATOM     26  C   UNL     1       1.390   7.350   2.294  0.00  0.00    +0.044 C 
ATOM     27  C   UNL     1       1.407   5.843   2.286  0.00  0.00    -0.049 A 
ATOM     28  C   UNL     1       2.506   5.162   2.778  0.00  0.00    +0.003 A 
ATOM     29  C   UNL     1       2.526   3.780   2.772  0.00  0.00    +0.002 A 
ATOM     30  C   UNL     1       1.448   3.074   2.274  0.00  0.00    +0.023 A 
ATOM     31  C   UNL     1       0.343   3.755   1.780  0.00  0.00    +0.028 A 
ATOM     32  C   UNL     1       0.328   5.144   1.783  0.00  0.00    +0.026 A 
ENDBRANCH  24  31
ENDBRANCH  22  24
ENDBRANCH  18  22
ENDBRANCH   1  20
TORSDOF 8
