REMARK  Name = ZINC66977080
REMARK  12 active torsions:
REMARK  status: ('A' for Active; 'I' for Inactive)
REMARK    1  A    between atoms: C_1  and  C_2
REMARK    2  A    between atoms: C_2  and  C_3
REMARK    3  A    between atoms: C_2  and  C_4
REMARK    4  A    between atoms: C_4  and  C_5
REMARK    5  A    between atoms: C_5  and  C_7
REMARK    6  A    between atoms: C_5  and  N_11
REMARK    7  A    between atoms: C_7  and  N_8
REMARK    8  A    between atoms: N_8  and  C_9
REMARK    9  A    between atoms: N_8  and  C_10
REMARK   10  A    between atoms: C_17  and  N_20
REMARK   11  A    between atoms: C_21  and  C_23
REMARK   12  A    between atoms: C_23  and  C_24
REMARK                            x       y       z     vdW  Elec       q    Type
REMARK                         _______ _______ _______ _____ _____    ______ ____
ROOT
ATOM      1  N   UNL     1      -1.323  -0.756   2.812  0.00  0.00    -0.298 N 
ATOM      2  C   UNL     1      -2.280  -0.229   3.601  0.00  0.00    +0.302 C 
ATOM      3  O   UNL     1      -2.164   0.906   4.022  0.00  0.00    -0.253 OA
ATOM      4  N   UNL     1      -3.366  -0.960   3.923  0.00  0.00    -0.286 N 
ATOM      5  C   UNL     1      -3.470  -2.367   3.514  0.00  0.00    +0.111 C 
ATOM      6  C   UNL     1      -3.759  -3.221   4.752  0.00  0.00    +0.041 C 
ATOM      7  C   UNL     1      -5.002  -2.679   5.462  0.00  0.00    +0.076 C 
ATOM      8  C   UNL     1      -4.746  -1.240   5.916  0.00  0.00    +0.041 C 
ATOM      9  C   UNL     1      -4.466  -0.366   4.696  0.00  0.00    +0.111 C 
ATOM     10  H   UNL     1      -1.448  -1.633   2.418  0.00  0.00    +0.150 HD
ENDROOT
BRANCH   7  11
ATOM     11  N   UNL     1      -5.301  -3.513   6.628  0.00  0.00    -0.312 N 
ATOM     12  C   UNL     1      -6.559  -3.576   7.107  0.00  0.00    +0.214 C 
ATOM     13  O   UNL     1      -7.444  -2.942   6.573  0.00  0.00    -0.276 OA
ATOM     14  H   UNL     1      -4.593  -4.021   7.056  0.00  0.00    +0.149 HD
BRANCH  12  15
ATOM     15  C   UNL     1      -6.866  -4.435   8.307  0.00  0.00    +0.099 C 
BRANCH  15  16
ATOM     16  C   UNL     1      -8.355  -4.329   8.642  0.00  0.00    -0.002 C 
ATOM     17  C   UNL     1      -8.680  -2.897   9.075  0.00  0.00    +0.004 C 
ATOM     18  C   UNL     1     -10.169  -2.791   9.409  0.00  0.00    +0.000 C 
ATOM     19  C   UNL     1     -10.506  -3.756  10.548  0.00  0.00    +0.000 C 
ATOM     20  C   UNL     1     -10.181  -5.188  10.116  0.00  0.00    +0.000 C 
ATOM     21  C   UNL     1      -8.692  -5.294   9.781  0.00  0.00    +0.004 C 
ENDBRANCH  15  16
ENDBRANCH  12  15
ENDBRANCH   7  11
BRANCH   1  22
ATOM     22  C   UNL     1      -0.094  -0.004   2.549  0.00  0.00    +0.058 C 
BRANCH  22  23
ATOM     23  C   UNL     1       0.456  -0.389   1.174  0.00  0.00    +0.023 C 
BRANCH  23  25
ATOM     24  C   UNL     1      -0.621   1.580   0.075  0.00  0.00    +0.007 C 
ATOM     25  C   UNL     1      -0.529   0.053   0.089  0.00  0.00    -0.016 C 
ATOM     26  C   UNL     1      -0.041  -0.441  -1.274  0.00  0.00    +0.007 C 
ENDBRANCH  23  25
ENDBRANCH  22  23
BRANCH  22  27
ATOM     27  C   UNL     1       0.945  -0.332   3.624  0.00  0.00    -0.057 C 
BRANCH  27  28
ATOM     28  N   UNL     1       2.148   0.483   3.407  0.00  0.00    +0.377 N 
ATOM     29  C   UNL     1       1.822   1.901   3.606  0.00  0.00    -0.097 C 
ATOM     30  C   UNL     1       3.190   0.081   4.361  0.00  0.00    -0.097 C 
ATOM     31  H   UNL     1       2.483   0.344   2.465  0.00  0.00    -0.083 HD
ENDBRANCH  27  28
ENDBRANCH  22  27
ENDBRANCH   1  22
TORSDOF 8
