REMARK  Name = ZINC02466170
REMARK  4 active torsions:
REMARK  status: ('A' for Active; 'I' for Inactive)
REMARK    1  A    between atoms: C_1  and  C_2
REMARK    2  A    between atoms: C_3  and  C_22
REMARK    3  A    between atoms: C_4  and  C_10
REMARK    4  A    between atoms: N_24  and  C_25
REMARK                            x       y       z     vdW  Elec       q    Type
REMARK                         _______ _______ _______ _____ _____    ______ ____
ROOT
ATOM      1  C   UNL     1      -2.380   2.952  -1.259  0.00  0.00    +0.061 C 
ATOM      2  C   UNL     1      -1.394   2.313  -0.315  0.00  0.00    +0.017 C 
ATOM      3  C   UNL     1      -0.305   1.691  -0.813  0.00  0.00    +0.056 C 
ATOM      4  C   UNL     1       0.660   1.062   0.172  0.00  0.00    +0.140 C 
ATOM      5  N   UNL     1       0.327   1.182   1.601  0.00  0.00    -0.315 N 
ATOM      6  C   UNL     1      -0.799   1.836   1.945  0.00  0.00    +0.135 C 
ATOM      7  S   UNL     1      -1.198   1.984   3.603  0.00  0.00    -0.019 S 
ATOM      8  N   UNL     1      -1.617   2.374   1.031  0.00  0.00    -0.300 N 
ATOM      9  H   UNL     1       0.993   0.744   2.359  0.00  0.00    +0.149 HD
ATOM     10  H   UNL     1      -2.511   2.886   1.418  0.00  0.00    +0.154 HD
ENDROOT
BRANCH   4  11
ATOM     11  C   UNL     1       2.015   1.684  -0.044  0.00  0.00    -0.015 A 
ATOM     12  C   UNL     1       2.270   2.958   0.378  0.00  0.00    +0.006 A 
ATOM     13  C   UNL     1       3.512   3.570   0.197  0.00  0.00    +0.004 A 
ATOM     14  C   UNL     1       4.526   2.901  -0.419  0.00  0.00    -0.039 A 
ATOM     15  C   UNL     1       4.281   1.602  -0.854  0.00  0.00    -0.011 A 
ATOM     16  C   UNL     1       3.041   0.963  -0.677  0.00  0.00    -0.012 A 
ATOM     17  C   UNL     1       2.908  -0.353  -1.151  0.00  0.00    +0.009 A 
ATOM     18  C   UNL     1       3.980  -0.947  -1.750  0.00  0.00    +0.001 A 
ATOM     19  C   UNL     1       5.205  -0.294  -1.909  0.00  0.00    +0.004 A 
ATOM     20  C   UNL     1       5.364   0.985  -1.471  0.00  0.00    -0.039 A 
ATOM     21  C   UNL     1       6.507   1.970  -1.469  0.00  0.00    +0.040 C 
ATOM     22  C   UNL     1       5.954   3.234  -0.775  0.00  0.00    +0.040 C 
ENDBRANCH   4  11
BRANCH   3  23
ATOM     23  C   UNL     1      -0.072   1.628  -2.208  0.00  0.00    +0.248 C 
ATOM     24  O   UNL     1      -0.312   0.603  -2.820  0.00  0.00    -0.270 OA
ATOM     25  N   UNL     1       0.415   2.702  -2.860  0.00  0.00    -0.282 N 
ATOM     26  H   UNL     1       0.519   3.663  -2.334  0.00  0.00    +0.155 HD
BRANCH  25  27
ATOM     27  C   UNL     1       0.790   2.596  -4.203  0.00  0.00    +0.034 A 
ATOM     28  C   UNL     1       0.159   1.677  -5.031  0.00  0.00    +0.024 A 
ATOM     29  C   UNL     1       0.528   1.576  -6.357  0.00  0.00    +0.017 A 
ATOM     30  C   UNL     1       1.533   2.384  -6.860  0.00  0.00    +0.018 A 
ATOM     31  C   UNL     1       2.167   3.297  -6.037  0.00  0.00    +0.017 A 
ATOM     32  C   UNL     1       1.799   3.405  -4.710  0.00  0.00    +0.024 A 
ATOM     33 BR   UNL     1       2.040   2.238  -8.676  0.00  0.00    -0.050 Br
ENDBRANCH  25  27
ENDBRANCH   3  23
TORSDOF 3
