REMARK  Name = ZINC39694853
REMARK  9 active torsions:
REMARK  status: ('A' for Active; 'I' for Inactive)
REMARK    1  A    between atoms: C_1  and  C_2
REMARK    2  A    between atoms: C_4  and  C_37
REMARK    3  A    between atoms: C_6  and  C_8
REMARK    4  A    between atoms: C_8  and  N_9
REMARK    5  A    between atoms: C_10  and  C_12
REMARK    6  A    between atoms: C_23  and  C_25
REMARK    7  A    between atoms: C_26  and  C_36
REMARK    8  A    between atoms: C_29  and  C_30
REMARK    9  A    between atoms: C_32  and  C_35
REMARK                            x       y       z     vdW  Elec       q    Type
REMARK                         _______ _______ _______ _____ _____    ______ ____
ROOT
ATOM      1  C   UNL     1       3.127  -3.974   4.472  0.00  0.00    +0.100 C 
ATOM      2  C   UNL     1       3.874  -2.629   4.617  0.00  0.00    +0.121 C 
ATOM      3  N   UNL     1       3.762  -2.292   6.056  0.00  0.00    -0.296 N 
ATOM      4  C   UNL     1       3.931  -3.590   6.753  0.00  0.00    +0.115 C 
ATOM      5  C   UNL     1       3.170  -4.603   5.875  0.00  0.00    -0.004 C 
ATOM      6  C   UNL     1       1.754  -4.802   6.408  0.00  0.00    -0.010 C 
ATOM      7  C   UNL     1       1.821  -5.481   7.779  0.00  0.00    -0.082 C 
ATOM      8  N   UNL     1       2.505  -6.773   7.654  0.00  0.00    +0.379 N 
ATOM      9  C   UNL     1       3.895  -6.566   7.230  0.00  0.00    -0.082 C 
ATOM     10  C   UNL     1       3.916  -5.933   5.836  0.00  0.00    -0.010 C 
ATOM     11  C   UNL     1       3.554  -1.080   6.607  0.00  0.00    +0.252 C 
ATOM     12  O   UNL     1       3.486  -0.965   7.816  0.00  0.00    -0.270 OA
ATOM     13  H   UNL     1       2.494  -7.245   8.546  0.00  0.00    -0.086 HD
ATOM     14  H   UNL     1       2.027  -7.341   6.971  0.00  0.00    -0.086 HD
ENDROOT
BRANCH  11  15
ATOM     15  C   UNL     1       3.408   0.105   5.745  0.00  0.00    +0.108 A 
ATOM     16  C   UNL     1       2.198   0.613   5.212  0.00  0.00    +0.093 A 
ATOM     17  N   UNL     1       2.477   1.667   4.504  0.00  0.00    -0.082 NA
ATOM     18  O   UNL     1       3.873   1.889   4.546  0.00  0.00    -0.352 OA
ATOM     19  C   UNL     1       4.431   0.936   5.309  0.00  0.00    +0.201 A 
ATOM     20  C   UNL     1       0.824   0.032   5.427  0.00  0.00    +0.070 C 
BRANCH  19  21
ATOM     21  C   UNL     1       5.868   0.796   5.625  0.00  0.00    +0.152 A 
ATOM     22  C   UNL     1       6.908   1.651   5.183  0.00  0.00    +0.079 A 
ATOM     23  C   UNL     1       8.068   1.189   5.683  0.00  0.00    +0.135 A 
ATOM     24  O   UNL     1       7.806   0.094   6.412  0.00  0.00    -0.359 OA
ATOM     25  N   UNL     1       6.409  -0.139   6.371  0.00  0.00    -0.075 NA
ATOM     26  C   UNL     1       9.429   1.797   5.461  0.00  0.00    +0.089 C 
ENDBRANCH  19  21
ENDBRANCH  11  15
BRANCH   1  28
ATOM     27  N   UNL     1       1.020  -4.710   3.406  0.00  0.00    -0.311 N 
ATOM     28  C   UNL     1       1.701  -3.739   4.046  0.00  0.00    +0.218 C 
ATOM     29  O   UNL     1       1.166  -2.675   4.279  0.00  0.00    -0.275 OA
ATOM     30  H   UNL     1       1.448  -5.560   3.219  0.00  0.00    +0.149 HD
BRANCH  27  31
ATOM     31  C   UNL     1      -0.366  -4.481   2.991  0.00  0.00    +0.139 C 
BRANCH  31  37
ATOM     32  C   UNL     1      -1.084  -7.136  -1.190  0.00  0.00    +0.044 C 
ATOM     33  C   UNL     1      -1.238  -6.983   0.301  0.00  0.00    -0.050 A 
ATOM     34  C   UNL     1      -1.864  -7.972   1.037  0.00  0.00    +0.006 A 
ATOM     35  C   UNL     1      -2.005  -7.831   2.405  0.00  0.00    -0.050 A 
ATOM     36  C   UNL     1      -1.521  -6.702   3.037  0.00  0.00    +0.008 A 
ATOM     37  C   UNL     1      -0.894  -5.713   2.302  0.00  0.00    -0.030 A 
ATOM     38  C   UNL     1      -0.749  -5.855   0.934  0.00  0.00    +0.008 A 
ATOM     39  C   UNL     1      -2.688  -8.909   3.206  0.00  0.00    +0.044 C 
ENDBRANCH  31  37
ENDBRANCH  27  31
ENDBRANCH   1  28
TORSDOF 5
