REMARK  Name = ZINC13452146
REMARK  10 active torsions:
REMARK  status: ('A' for Active; 'I' for Inactive)
REMARK    1  A    between atoms: C_1  and  C_2
REMARK    2  A    between atoms: C_2  and  C_4
REMARK    3  A    between atoms: C_2  and  N_11
REMARK    4  A    between atoms: N_11  and  C_12
REMARK    5  A    between atoms: C_15  and  S_21
REMARK    6  A    between atoms: C_17  and  N_18
REMARK    7  A    between atoms: S_21  and  N_24
REMARK    8  A    between atoms: N_24  and  C_25
REMARK    9  A    between atoms: C_25  and  C_26
REMARK   10  A    between atoms: C_26  and  C_27
REMARK                            x       y       z     vdW  Elec       q    Type
REMARK                         _______ _______ _______ _____ _____    ______ ____
ROOT
ATOM      1  C   UNL     1      -3.356  -1.051   1.163  0.00  0.00    +0.058 A 
ATOM      2  C   UNL     1      -4.596  -0.440   1.302  0.00  0.00    +0.027 A 
ATOM      3  C   UNL     1      -5.637  -1.122   1.901  0.00  0.00    +0.030 A 
ATOM      4  C   UNL     1      -5.443  -2.408   2.372  0.00  0.00    +0.108 A 
ATOM      5  C   UNL     1      -4.208  -3.017   2.240  0.00  0.00    +0.063 A 
ATOM      6  C   UNL     1      -3.165  -2.342   1.637  0.00  0.00    +0.149 A 
ENDROOT
BRANCH   6   7
ATOM      7  N   UNL     1      -1.844  -2.995   1.497  0.00  0.00    +0.058 N 
ATOM      8  O   UNL     1      -1.706  -4.164   1.810  0.00  0.00    -0.126 OA
ATOM      9  O   UNL     1      -0.895  -2.363   1.067  0.00  0.00    -0.126 OA
ENDBRANCH   6   7
BRANCH   4  10
ATOM     10  S   UNL     1      -6.772  -3.272   3.142  0.00  0.00    +0.058 S 
ATOM     11  O   UNL     1      -7.972  -2.689   2.653  0.00  0.00    -0.153 OA
ATOM     12  O   UNL     1      -6.487  -4.658   3.006  0.00  0.00    -0.153 OA
BRANCH  10  13
ATOM     13  N   UNL     1      -6.704  -2.931   4.761  0.00  0.00    -0.189 NA
ATOM     14  H   UNL     1      -6.516  -3.638   5.398  0.00  0.00    +0.148 HD
BRANCH  13  15
ATOM     15  C   UNL     1      -6.930  -1.562   5.231  0.00  0.00    +0.117 C 
BRANCH  15  16
ATOM     16  C   UNL     1      -7.185  -1.577   6.739  0.00  0.00    +0.142 C 
BRANCH  16  17
ATOM     17  C   UNL     1      -7.417  -0.168   7.223  0.00  0.00    +0.357 C 
ATOM     18  O   UNL     1      -7.382   0.752   6.442  0.00  0.00    -0.246 OA
ATOM     19  O   UNL     1      -7.662   0.063   8.523  0.00  0.00    -0.246 OA
ENDBRANCH  16  17
ENDBRANCH  15  16
ENDBRANCH  13  15
ENDBRANCH  10  13
ENDBRANCH   4  10
BRANCH   1  20
ATOM     20  N   UNL     1      -2.303  -0.366   0.553  0.00  0.00    -0.335 N 
ATOM     21  H   UNL     1      -1.417  -0.761   0.528  0.00  0.00    +0.147 HD
BRANCH  20  23
ATOM     22  C   UNL     1      -3.054   0.774  -1.476  0.00  0.00    +0.033 C 
ATOM     23  C   UNL     1      -2.535   0.950  -0.047  0.00  0.00    +0.099 C 
BRANCH  23  24
ATOM     24  C   UNL     1      -1.243   1.725  -0.074  0.00  0.00    -0.014 A 
ATOM     25  C   UNL     1      -0.034   1.054  -0.079  0.00  0.00    +0.006 A 
ATOM     26  C   UNL     1       1.151   1.765  -0.108  0.00  0.00    +0.000 A 
ATOM     27  C   UNL     1       1.128   3.147  -0.129  0.00  0.00    +0.001 A 
ATOM     28  C   UNL     1      -0.080   3.819  -0.120  0.00  0.00    +0.015 A 
ATOM     29  C   UNL     1      -1.266   3.108  -0.090  0.00  0.00    +0.023 A 
ATOM     30 BR   UNL     1      -2.919   4.026  -0.077  0.00  0.00    -0.050 Br
ENDBRANCH  23  24
ENDBRANCH  20  23
ENDBRANCH   1  20
TORSDOF 9
