REMARK  Name = ZINC09743103
REMARK  6 active torsions:
REMARK  status: ('A' for Active; 'I' for Inactive)
REMARK    1  A    between atoms: C_1  and  C_2
REMARK    2  A    between atoms: N_8  and  C_9
REMARK    3  A    between atoms: N_17  and  C_20
REMARK    4  A    between atoms: C_20  and  C_21
REMARK    5  A    between atoms: C_28  and  C_32
REMARK    6  A    between atoms: C_29  and  N_31
REMARK                            x       y       z     vdW  Elec       q    Type
REMARK                         _______ _______ _______ _____ _____    ______ ____
ROOT
ATOM      1  C   UNL     1      -0.418   6.080  -4.737  0.00  0.00    +0.064 C 
ATOM      2  C   UNL     1       0.088   5.407  -3.488  0.00  0.00    +0.022 A 
ATOM      3  C   UNL     1      -0.512   5.661  -2.305  0.00  0.00    +0.068 A 
ATOM      4  C   UNL     1      -0.042   5.035  -1.132  0.00  0.00    +0.142 A 
ATOM      5  C   UNL     1       1.029   4.169  -1.220  0.00  0.00    +0.084 A 
ATOM      6  C   UNL     1       1.620   3.937  -2.469  0.00  0.00    +0.260 A 
ATOM      7  O   UNL     1       2.568   3.174  -2.562  0.00  0.00    -0.267 OA
ATOM      8  N   UNL     1       1.143   4.554  -3.566  0.00  0.00    -0.315 N 
ATOM      9  C   UNL     1       1.770   4.301  -4.865  0.00  0.00    +0.152 C 
ATOM     10  C   UNL     1       1.558   3.483   0.006  0.00  0.00    +0.147 C 
ATOM     11  C   UNL     1       1.203   2.028   0.002  0.00  0.00    -0.001 A 
ATOM     12  C   UNL     1      -0.017   1.387   0.010  0.00  0.00    +0.007 A 
ATOM     13  C   UNL     1       0.002  -0.004   0.002  0.00  0.00    +0.000 A 
ATOM     14  C   UNL     1       1.190  -0.706  -0.013  0.00  0.00    +0.002 A 
ATOM     15  C   UNL     1       2.420  -0.068  -0.022  0.00  0.00    +0.024 A 
ATOM     16  C   UNL     1       2.415   1.328  -0.015  0.00  0.00    +0.041 A 
ATOM     17  N   UNL     1       3.480   2.210  -0.020  0.00  0.00    -0.265 N 
ATOM     18  C   UNL     1       3.073   3.496  -0.008  0.00  0.00    +0.241 C 
ATOM     19  O   UNL     1       3.785   4.478  -0.008  0.00  0.00    -0.274 OA
ATOM     20  C   UNL     1       1.051   4.155   1.249  0.00  0.00    +0.110 C 
ATOM     21  C   UNL     1      -0.002   5.006   1.202  0.00  0.00    +0.199 C 
ATOM     22  O   UNL     1      -0.639   5.287   0.052  0.00  0.00    -0.441 OA
ENDROOT
BRANCH  21  23
ATOM     23  N   UNL     1      -0.431   5.600   2.363  0.00  0.00    -0.328 N 
ATOM     24  H   UNL     1       0.018   5.408   3.201  0.00  0.00    +0.145 HD
ATOM     25  H   UNL     1      -1.184   6.212   2.346  0.00  0.00    +0.145 HD
ENDBRANCH  21  23
BRANCH  20  26
ATOM     26  C   UNL     1       1.690   3.892   2.503  0.00  0.00    +0.102 C 
ATOM     27  N   UNL     1       2.197   3.684   3.498  0.00  0.00    -0.191 NA
ENDBRANCH  20  26
BRANCH  17  28
ATOM     28  C   UNL     1       4.886   1.797  -0.038  0.00  0.00    +0.148 C 
BRANCH  28  29
ATOM     29  C   UNL     1       5.353   1.665  -1.465  0.00  0.00    -0.030 A 
ATOM     30  C   UNL     1       5.234   0.454  -2.121  0.00  0.00    +0.006 A 
ATOM     31  C   UNL     1       5.657   0.333  -3.431  0.00  0.00    +0.020 A 
ATOM     32  C   UNL     1       6.209   1.422  -4.082  0.00  0.00    +0.041 A 
ATOM     33  C   UNL     1       6.333   2.632  -3.424  0.00  0.00    +0.020 A 
ATOM     34  C   UNL     1       5.904   2.753  -2.115  0.00  0.00    +0.006 A 
ATOM     35 CL   UNL     1       6.746   1.269  -5.726  0.00  0.00    -0.084 Cl
ENDBRANCH  28  29
ENDBRANCH  17  28
TORSDOF 4
