REMARK  Name = ZINC62424481
REMARK  8 active torsions:
REMARK  status: ('A' for Active; 'I' for Inactive)
REMARK    1  A    between atoms: C_1  and  C_2
REMARK    2  A    between atoms: C_2  and  C_3
REMARK    3  A    between atoms: C_2  and  C_4
REMARK    4  A    between atoms: C_6  and  C_16
REMARK    5  A    between atoms: C_7  and  C_13
REMARK    6  A    between atoms: C_8  and  N_10
REMARK    7  A    between atoms: N_10  and  C_11
REMARK    8  A    between atoms: N_10  and  C_12
REMARK                            x       y       z     vdW  Elec       q    Type
REMARK                         _______ _______ _______ _____ _____    ______ ____
ROOT
ATOM      1  C   UNL     1      -1.410  -0.536  -0.017  0.00  0.00    +0.021 A 
ATOM      2  C   UNL     1      -2.361   0.169   0.694  0.00  0.00    +0.030 A 
ATOM      3  C   UNL     1      -3.673  -0.304   0.738  0.00  0.00    +0.001 A 
ATOM      4  C   UNL     1      -3.974  -1.498   0.044  0.00  0.00    +0.109 A 
ATOM      5  C   UNL     1      -2.942  -2.149  -0.654  0.00  0.00    +0.113 A 
ATOM      6  N   UNL     1      -1.717  -1.646  -0.661  0.00  0.00    -0.346 N 
ATOM      7  H   UNL     1      -1.022  -2.111  -1.153  0.00  0.00    +0.167 HD
ENDROOT
BRANCH   3   8
ATOM      8  C   UNL     1      -4.720   0.424   1.491  0.00  0.00    -0.017 A 
ATOM      9  C   UNL     1      -5.890   0.830   0.848  0.00  0.00    +0.010 A 
ATOM     10  C   UNL     1      -6.862   1.508   1.554  0.00  0.00    +0.020 A 
ATOM     11  C   UNL     1      -6.678   1.786   2.898  0.00  0.00    +0.041 A 
ATOM     12  C   UNL     1      -5.519   1.386   3.541  0.00  0.00    +0.020 A 
ATOM     13  C   UNL     1      -4.543   0.702   2.846  0.00  0.00    +0.010 A 
ATOM     14 CL   UNL     1      -7.905   2.640   3.780  0.00  0.00    -0.084 Cl
ENDBRANCH   3   8
BRANCH   1  16
ATOM     15  C   UNL     1      -0.006   1.507  -0.073  0.00  0.00    +0.013 C 
ATOM     16  C   UNL     1       0.006  -0.023  -0.064  0.00  0.00    +0.029 C 
ATOM     17  C   UNL     1       0.769  -0.520   1.166  0.00  0.00    +0.013 C 
ENDBRANCH   1  16
BRANCH   5  18
ATOM     18  N   UNL     1      -3.208  -3.317  -1.340  0.00  0.00    -0.322 N 
ATOM     19  C   UNL     1      -3.522  -3.271  -2.771  0.00  0.00    +0.130 C 
ATOM     20  C   UNL     1      -3.177  -4.603  -0.638  0.00  0.00    +0.130 C 
ENDBRANCH   5  18
BRANCH   4  21
ATOM     21  C   UNL     1      -5.335  -2.046   0.053  0.00  0.00    +0.390 C 
ATOM     22  O   UNL     1      -6.105  -1.787  -0.863  0.00  0.00    -0.240 OA
ATOM     23  O   UNL     1      -5.700  -2.763   0.976  0.00  0.00    -0.240 OA
ENDBRANCH   4  21
TORSDOF 4
