REMARK  Name = ZINC03277857
REMARK  3 active torsions:
REMARK  status: ('A' for Active; 'I' for Inactive)
REMARK    1  A    between atoms: C_1  and  C_2
REMARK    2  A    between atoms: N_18  and  C_21
REMARK    3  A    between atoms: C_26  and  O_27
REMARK                            x       y       z     vdW  Elec       q    Type
REMARK                         _______ _______ _______ _____ _____    ______ ____
ROOT
ATOM      1  C   UNL     1       7.580  -2.990   0.002  0.00  0.00    +0.088 C 
ATOM      2  C   UNL     1       7.619  -1.484  -0.018  0.00  0.00    +0.129 A 
ATOM      3  N   UNL     1       6.484  -0.807  -0.003  0.00  0.00    -0.217 NA
ATOM      4  C   UNL     1       6.452   0.515  -0.019  0.00  0.00    +0.133 A 
ATOM      5  C   UNL     1       7.677   1.237  -0.058  0.00  0.00    +0.051 A 
ATOM      6  C   UNL     1       7.887   2.686  -0.074  0.00  0.00    -0.025 A 
ATOM      7  C   UNL     1       9.163   3.119  -0.105  0.00  0.00    -0.004 A 
ATOM      8  S   UNL     1      10.151   1.647  -0.107  0.00  0.00    -0.073 S 
ATOM      9  C   UNL     1       8.845   0.448  -0.066  0.00  0.00    +0.114 A 
ATOM     10  N   UNL     1       8.786  -0.869  -0.049  0.00  0.00    -0.225 NA
ATOM     11  C   UNL     1       9.639   4.540  -0.131  0.00  0.00    +0.043 C 
ATOM     12  C   UNL     1       8.451   5.443  -0.492  0.00  0.00    +0.005 C 
ATOM     13  C   UNL     1       7.252   5.046   0.374  0.00  0.00    +0.005 C 
ATOM     14  C   UNL     1       6.727   3.678  -0.062  0.00  0.00    +0.037 C 
ATOM     15  N   UNL     1       5.243   1.187  -0.003  0.00  0.00    -0.312 N 
ATOM     16  C   UNL     1       4.459   0.890  -1.210  0.00  0.00    +0.125 C 
ATOM     17  C   UNL     1       3.168   1.711  -1.193  0.00  0.00    +0.124 C 
ATOM     18  N   UNL     1       2.403   1.390   0.020  0.00  0.00    -0.324 N 
ATOM     19  C   UNL     1       3.186   1.688   1.228  0.00  0.00    +0.124 C 
ATOM     20  C   UNL     1       4.478   0.866   1.210  0.00  0.00    +0.125 C 
ENDROOT
BRANCH  18  21
ATOM     21  C   UNL     1       1.179   2.070   0.036  0.00  0.00    +0.072 A 
ATOM     22  C   UNL     1       1.154   3.457   0.010  0.00  0.00    +0.027 A 
ATOM     23  C   UNL     1      -0.056   4.125   0.025  0.00  0.00    +0.002 A 
ATOM     24  C   UNL     1      -1.241   3.416   0.066  0.00  0.00    +0.004 A 
ATOM     25  C   UNL     1      -1.224   2.033   0.087  0.00  0.00    +0.047 A 
ATOM     26  C   UNL     1      -0.016   1.355   0.078  0.00  0.00    +0.138 A 
BRANCH  26  27
ATOM     27  O   UNL     1       0.003  -0.004   0.104  0.00  0.00    -0.505 OA
ATOM     28  H   UNL     1       0.029  -0.380   0.995  0.00  0.00    +0.292 HD
ENDBRANCH  26  27
ENDBRANCH  18  21
TORSDOF 2
