REMARK  Name = ZINC59446920
REMARK  5 active torsions:
REMARK  status: ('A' for Active; 'I' for Inactive)
REMARK    1  A    between atoms: C_4  and  O_31
REMARK    2  A    between atoms: C_5  and  C_7
REMARK    3  A    between atoms: N_18  and  O_19
REMARK    4  A    between atoms: O_19  and  C_20
REMARK    5  A    between atoms: N_22  and  C_23
REMARK                            x       y       z     vdW  Elec       q    Type
REMARK                         _______ _______ _______ _____ _____    ______ ____
ROOT
ATOM      1  C   UNL     1       1.221  -2.178  -0.021  0.00  0.00    +0.236 C 
ATOM      2  N   UNL     1       2.379  -2.652   0.746  0.00  0.00    -0.319 N 
ATOM      3  C   UNL     1       2.319  -2.608   2.135  0.00  0.00    +0.041 A 
ATOM      4  C   UNL     1       3.452  -2.439   2.912  0.00  0.00    +0.024 A 
ATOM      5  C   UNL     1       3.336  -2.398   4.289  0.00  0.00    +0.002 A 
ATOM      6  C   UNL     1       2.097  -2.524   4.896  0.00  0.00    +0.001 A 
ATOM      7  C   UNL     1       0.958  -2.693   4.135  0.00  0.00    +0.015 A 
ATOM      8  C   UNL     1       1.060  -2.738   2.747  0.00  0.00    +0.061 A 
ATOM      9  C   UNL     1      -0.123  -2.926   1.887  0.00  0.00    +0.282 C 
ATOM     10  O   UNL     1      -1.181  -3.288   2.366  0.00  0.00    -0.267 OA
ATOM     11  N   UNL     1      -0.017  -2.691   0.566  0.00  0.00    -0.100 N 
ATOM     12  H   UNL     1       3.169  -2.989   0.295  0.00  0.00    +0.148 HD
ENDROOT
BRANCH   1  17
ATOM     13  C   UNL     1      -0.039   1.380   0.032  0.00  0.00    +0.001 A 
ATOM     14  C   UNL     1       1.144   2.096   0.024  0.00  0.00    +0.004 A 
ATOM     15  C   UNL     1       2.354   1.431   0.001  0.00  0.00    +0.046 A 
ATOM     16  C   UNL     1       2.382   0.044  -0.013  0.00  0.00    +0.123 A 
ATOM     17  C   UNL     1       1.194  -0.672  -0.005  0.00  0.00    +0.035 A 
ATOM     18  C   UNL     1      -0.014  -0.002   0.018  0.00  0.00    +0.011 A 
BRANCH  16  19
ATOM     19  O   UNL     1       3.572  -0.613  -0.036  0.00  0.00    -0.506 OA
ATOM     20  H   UNL     1       3.928  -0.812   0.841  0.00  0.00    +0.292 HD
ENDBRANCH  16  19
ENDBRANCH   1  17
BRANCH  11  21
ATOM     21  O   UNL     1      -1.130  -2.946  -0.271  0.00  0.00    -0.326 OA
BRANCH  21  22
ATOM     22  C   UNL     1      -1.166  -4.194  -0.768  0.00  0.00    +0.427 C 
ATOM     23  O   UNL     1      -0.289  -4.986  -0.485  0.00  0.00    -0.224 OA
ATOM     24  N   UNL     1      -2.175  -4.566  -1.581  0.00  0.00    -0.250 N 
ATOM     25  H   UNL     1      -2.909  -3.957  -1.753  0.00  0.00    +0.158 HD
BRANCH  24  26
ATOM     26  C   UNL     1      -2.162  -5.834  -2.175  0.00  0.00    +0.038 A 
ATOM     27  C   UNL     1      -2.664  -6.004  -3.459  0.00  0.00    +0.025 A 
ATOM     28  C   UNL     1      -2.651  -7.255  -4.044  0.00  0.00    +0.023 A 
ATOM     29  C   UNL     1      -2.138  -8.338  -3.353  0.00  0.00    +0.059 A 
ATOM     30  C   UNL     1      -1.637  -8.172  -2.073  0.00  0.00    +0.061 A 
ATOM     31  C   UNL     1      -1.643  -6.920  -1.486  0.00  0.00    +0.044 A 
ATOM     32 CL   UNL     1      -0.995  -9.533  -1.208  0.00  0.00    -0.082 Cl
ATOM     33 CL   UNL     1      -2.123  -9.909  -4.092  0.00  0.00    -0.082 Cl
ENDBRANCH  24  26
ENDBRANCH  21  22
ENDBRANCH  11  21
TORSDOF 5
