REMARK  Name = ZINC02498652
REMARK  5 active torsions:
REMARK  status: ('A' for Active; 'I' for Inactive)
REMARK    1  A    between atoms: C_1  and  C_2
REMARK    2  A    between atoms: C_4  and  C_27
REMARK    3  A    between atoms: C_6  and  N_8
REMARK    4  A    between atoms: C_15  and  C_26
REMARK    5  A    between atoms: C_20  and  N_23
REMARK                            x       y       z     vdW  Elec       q    Type
REMARK                         _______ _______ _______ _____ _____    ______ ____
ROOT
ATOM      1  N   UNL     1       3.591   2.185  -1.789  0.00  0.00    -0.216 N 
ATOM      2  C   UNL     1       2.885   3.259  -2.177  0.00  0.00    +0.310 C 
ATOM      3  O   UNL     1       2.666   3.419  -3.362  0.00  0.00    -0.252 OA
ATOM      4  N   UNL     1       2.410   4.162  -1.303  0.00  0.00    -0.292 N 
ATOM      5  C   UNL     1       2.597   3.949   0.142  0.00  0.00    +0.114 C 
ATOM      6  C   UNL     1       3.983   3.315   0.342  0.00  0.00    +0.096 C 
ATOM      7  C   UNL     1       3.967   1.968  -0.395  0.00  0.00    +0.185 C 
ATOM      8  O   UNL     1       3.039   1.103   0.253  0.00  0.00    -0.468 OA
ATOM      9  C   UNL     1       1.825   1.596   0.607  0.00  0.00    +0.128 A 
ATOM     10  C   UNL     1       1.552   2.953   0.590  0.00  0.00    +0.017 A 
ATOM     11  C   UNL     1       0.307   3.416   0.978  0.00  0.00    +0.041 A 
ATOM     12  C   UNL     1      -0.671   2.525   1.377  0.00  0.00    +0.127 A 
ATOM     13  C   UNL     1      -0.408   1.168   1.385  0.00  0.00    +0.036 A 
ATOM     14  C   UNL     1       0.835   0.703   1.006  0.00  0.00    +0.048 A 
ATOM     15  C   UNL     1       5.362   1.341  -0.338  0.00  0.00    +0.079 C 
ATOM     16  H   UNL     1       1.947   4.952  -1.623  0.00  0.00    +0.151 HD
ENDROOT
BRANCH   1  22
ATOM     17  C   UNL     1       2.746  -2.040  -4.157  0.00  0.00    +0.044 C 
ATOM     18  C   UNL     1       3.587  -0.812  -3.919  0.00  0.00    -0.048 A 
ATOM     19  C   UNL     1       4.744  -0.615  -4.651  0.00  0.00    +0.006 A 
ATOM     20  C   UNL     1       5.518   0.510  -4.435  0.00  0.00    -0.048 A 
ATOM     21  C   UNL     1       5.139   1.440  -3.487  0.00  0.00    +0.027 A 
ATOM     22  C   UNL     1       3.978   1.245  -2.751  0.00  0.00    +0.042 A 
ATOM     23  C   UNL     1       3.205   0.112  -2.966  0.00  0.00    +0.027 A 
ATOM     24  C   UNL     1       6.778   0.722  -5.235  0.00  0.00    +0.044 C 
ENDBRANCH   1  22
BRANCH  12  25
ATOM     25  N   UNL     1      -2.002   3.024   1.791  0.00  0.00    +0.056 N 
ATOM     26  O   UNL     1      -2.235   4.219   1.780  0.00  0.00    -0.126 OA
ATOM     27  O   UNL     1      -2.864   2.239   2.143  0.00  0.00    -0.126 OA
ENDBRANCH  12  25
TORSDOF 2
