REMARK  Name = ZINC09762435
REMARK  6 active torsions:
REMARK  status: ('A' for Active; 'I' for Inactive)
REMARK    1  A    between atoms: C_3  and  S_8
REMARK    2  A    between atoms: S_8  and  N_11
REMARK    3  A    between atoms: C_14  and  C_17
REMARK    4  A    between atoms: N_19  and  C_20
REMARK    5  A    between atoms: C_20  and  C_21
REMARK    6  A    between atoms: C_21  and  N_66
REMARK                            x       y       z     vdW  Elec       q    Type
REMARK                         _______ _______ _______ _____ _____    ______ ____
ROOT
ATOM      1  C   UNL     1       1.678   7.787   4.870  0.00  0.00    +0.216 C 
ATOM      2  O   UNL     1       2.574   8.599   4.965  0.00  0.00    -0.276 OA
ATOM      3  N   UNL     1       0.456   8.072   5.361  0.00  0.00    -0.316 N 
ATOM      4  H   UNL     1      -0.261   7.422   5.285  0.00  0.00    +0.149 HD
ENDROOT
BRANCH   1   8
ATOM      5  N   UNL     1       2.669   4.814   2.024  0.00  0.00    -0.177 NA
ATOM      6  C   UNL     1       1.241   4.951   2.340  0.00  0.00    +0.110 C 
ATOM      7  C   UNL     1       1.004   6.310   2.996  0.00  0.00    +0.030 C 
ATOM      8  C   UNL     1       1.932   6.460   4.203  0.00  0.00    +0.077 C 
ATOM      9  C   UNL     1       3.389   6.393   3.740  0.00  0.00    +0.030 C 
ATOM     10  C   UNL     1       3.653   5.029   3.094  0.00  0.00    +0.110 C 
BRANCH   5  11
ATOM     11  S   UNL     1       3.160   4.433   0.489  0.00  0.00    +0.061 S 
ATOM     12  O   UNL     1       4.490   4.917   0.357  0.00  0.00    -0.153 OA
ATOM     13  O   UNL     1       2.114   4.834  -0.384  0.00  0.00    -0.153 OA
BRANCH  11  16
ATOM     14  C   UNL     1       2.216   0.569  -0.077  0.00  0.00    +0.040 A 
ATOM     15  C   UNL     1       2.145   1.947  -0.001  0.00  0.00    +0.031 A 
ATOM     16  C   UNL     1       3.252   2.676   0.393  0.00  0.00    +0.106 A 
ATOM     17  C   UNL     1       4.431   2.027   0.711  0.00  0.00    +0.031 A 
ATOM     18  C   UNL     1       4.504   0.649   0.636  0.00  0.00    +0.040 A 
ATOM     19  C   UNL     1       3.396  -0.082   0.241  0.00  0.00    +0.124 A 
ATOM     20  F   UNL     1       3.466  -1.429   0.167  0.00  0.00    -0.205 F 
ENDBRANCH  11  16
ENDBRANCH   5  11
ENDBRANCH   1   8
BRANCH   3  21
ATOM     21  C   UNL     1       0.209   9.362   6.009  0.00  0.00    +0.092 C 
BRANCH  21  22
ATOM     22  C   UNL     1      -1.192   9.364   6.625  0.00  0.00    -0.049 C 
ATOM     23  C   UNL     1      -2.214   8.942   5.567  0.00  0.00    -0.010 C 
ATOM     24  C   UNL     1      -2.171   9.925   4.395  0.00  0.00    -0.001 C 
ATOM     25  C   UNL     1      -2.506  11.332   4.896  0.00  0.00    -0.000 C 
ATOM     26  C   UNL     1      -1.484  11.753   5.954  0.00  0.00    -0.001 C 
ATOM     27  C   UNL     1      -1.527  10.770   7.126  0.00  0.00    -0.010 C 
BRANCH  22  33
ATOM     28  C   UNL     1      -0.229   8.767   8.766  0.00  0.00    -0.049 C 
ATOM     29  C   UNL     1      -0.347   7.797   9.944  0.00  0.00    +0.141 C 
ATOM     30  O   UNL     1      -0.196   6.457   9.469  0.00  0.00    -0.383 OA
ATOM     31  C   UNL     1      -1.159   6.085   8.478  0.00  0.00    +0.141 C 
ATOM     32  C   UNL     1      -1.049   7.038   7.285  0.00  0.00    -0.049 C 
ATOM     33  N   UNL     1      -1.258   8.421   7.762  0.00  0.00    +0.387 N 
ATOM     34  H   UNL     1      -2.185   8.488   8.198  0.00  0.00    -0.081 HD
ENDBRANCH  22  33
ENDBRANCH  21  22
ENDBRANCH   3  21
TORSDOF 6
