REMARK  Name = ZINC40315381
REMARK  12 active torsions:
REMARK  status: ('A' for Active; 'I' for Inactive)
REMARK    1  A    between atoms: C_1  and  C_2
REMARK    2  A    between atoms: C_6  and  O_9
REMARK    3  A    between atoms: C_7  and  C_8
REMARK    4  A    between atoms: O_9  and  C_10
REMARK    5  A    between atoms: C_10  and  C_11
REMARK    6  A    between atoms: C_11  and  C_13
REMARK    7  A    between atoms: C_11  and  O_36
REMARK    8  A    between atoms: C_13  and  N_14
REMARK    9  A    between atoms: N_14  and  C_15
REMARK   10  A    between atoms: N_14  and  C_28
REMARK   11  A    between atoms: C_15  and  C_16
REMARK   12  A    between atoms: C_19  and  C_21
REMARK                            x       y       z     vdW  Elec       q    Type
REMARK                         _______ _______ _______ _____ _____    ______ ____
ROOT
ATOM      1  N   UNL     1      -0.369  -6.773   4.930  0.00  0.00    +0.389 N 
ATOM      2  H   UNL     1      -0.993  -6.997   5.691  0.00  0.00    -0.081 HD
ENDROOT
BRANCH   1   3
ATOM      3  C   UNL     1       0.721  -5.923   5.425  0.00  0.00    -0.045 C 
ATOM      4  C   UNL     1       1.929  -6.022   4.478  0.00  0.00    +0.009 C 
ATOM      5  C   UNL     1       3.177  -5.397   5.146  0.00  0.00    +0.164 C 
ATOM      6  S   UNL     1       2.842  -5.645   6.937  0.00  0.00    -0.033 S 
ATOM      7  O   UNL     1       2.732  -4.375   7.566  0.00  0.00    -0.174 OA
ATOM      8  O   UNL     1       3.758  -6.602   7.451  0.00  0.00    -0.174 OA
ATOM      9  C   UNL     1       1.169  -6.410   6.833  0.00  0.00    +0.151 C 
ENDBRANCH   1   3
BRANCH   1  10
ATOM     10  C   UNL     1      -1.111  -6.058   3.883  0.00  0.00    -0.043 C 
BRANCH  10  11
ATOM     11  C   UNL     1      -1.917  -4.921   4.515  0.00  0.00    +0.135 C 
BRANCH  11  12
ATOM     12  O   UNL     1      -1.025  -3.899   4.966  0.00  0.00    -0.390 OA
ATOM     13  H   UNL     1      -0.541  -3.457   4.255  0.00  0.00    +0.210 HD
ENDBRANCH  11  12
BRANCH  11  14
ATOM     14  C   UNL     1      -2.876  -4.337   3.476  0.00  0.00    +0.258 C 
BRANCH  14  15
ATOM     15  O   UNL     1      -3.709  -3.355   4.096  0.00  0.00    -0.489 OA
BRANCH  15  21
ATOM     16  C   UNL     1      -7.311  -0.096   3.619  0.00  0.00    +0.044 C 
ATOM     17  C   UNL     1      -6.397  -1.143   3.037  0.00  0.00    -0.044 A 
ATOM     18  C   UNL     1      -6.490  -1.474   1.698  0.00  0.00    +0.004 A 
ATOM     19  C   UNL     1      -5.652  -2.434   1.161  0.00  0.00    +0.004 A 
ATOM     20  C   UNL     1      -4.720  -3.066   1.962  0.00  0.00    +0.046 A 
ATOM     21  C   UNL     1      -4.625  -2.735   3.306  0.00  0.00    +0.124 A 
ATOM     22  C   UNL     1      -5.463  -1.767   3.841  0.00  0.00    -0.006 A 
ATOM     23  C   UNL     1      -5.358  -1.401   5.299  0.00  0.00    +0.048 C 
ENDBRANCH  15  21
ENDBRANCH  14  15
ENDBRANCH  11  14
ENDBRANCH  10  11
ENDBRANCH   1  10
BRANCH   1  24
ATOM     24  C   UNL     1       0.190  -8.013   4.374  0.00  0.00    -0.003 C 
BRANCH  24  25
ATOM     25  C   UNL     1       0.830  -8.814   5.478  0.00  0.00    +0.089 A 
ATOM     26  C   UNL     1       0.186  -9.648   6.318  0.00  0.00    +0.043 A 
ATOM     27  C   UNL     1       1.155 -10.188   7.187  0.00  0.00    +0.050 A 
ATOM     28  C   UNL     1       2.349  -9.648   6.825  0.00  0.00    +0.135 A 
ATOM     29  O   UNL     1       2.137  -8.821   5.784  0.00  0.00    -0.462 OA
BRANCH  28  30
ATOM     30  C   UNL     1       3.654  -9.926   7.461  0.00  0.00    +0.019 A 
ATOM     31  C   UNL     1       3.750 -10.873   8.482  0.00  0.00    +0.011 A 
ATOM     32  C   UNL     1       4.970 -11.128   9.071  0.00  0.00    +0.002 A 
ATOM     33  C   UNL     1       6.100 -10.446   8.654  0.00  0.00    +0.020 A 
ATOM     34  C   UNL     1       6.013  -9.505   7.642  0.00  0.00    +0.042 A 
ATOM     35  C   UNL     1       4.798  -9.246   7.039  0.00  0.00    +0.031 A 
ATOM     36 CL   UNL     1       7.435  -8.655   7.125  0.00  0.00    -0.084 Cl
ENDBRANCH  28  30
ENDBRANCH  24  25
ENDBRANCH   1  24
TORSDOF 10
