REMARK  Name = ZINC65493057
REMARK  5 active torsions:
REMARK  status: ('A' for Active; 'I' for Inactive)
REMARK    1  A    between atoms: C_1  and  C_2
REMARK    2  A    between atoms: C_2  and  C_3
REMARK    3  A    between atoms: C_3  and  C_4
REMARK    4  A    between atoms: N_6  and  C_7
REMARK    5  A    between atoms: C_17  and  C_19
REMARK                            x       y       z     vdW  Elec       q    Type
REMARK                         _______ _______ _______ _____ _____    ______ ____
ROOT
ATOM      1  C   UNL     1       1.235  -4.061  -2.289  0.00  0.00    +0.035 A 
ATOM      2  C   UNL     1       0.552  -4.719  -1.274  0.00  0.00    +0.024 A 
ATOM      3  C   UNL     1       0.466  -6.098  -1.277  0.00  0.00    +0.008 A 
ATOM      4  C   UNL     1       1.058  -6.827  -2.290  0.00  0.00    -0.015 A 
ATOM      5  C   UNL     1       1.743  -6.175  -3.308  0.00  0.00    +0.039 A 
ATOM      6  C   UNL     1       1.826  -4.790  -3.311  0.00  0.00    +0.047 A 
ATOM      7  N   UNL     1       2.342  -6.917  -4.331  0.00  0.00    -0.285 N 
ATOM      8  C   UNL     1       2.592  -8.229  -4.167  0.00  0.00    +0.218 C 
ATOM      9  O   UNL     1       3.099  -8.860  -5.069  0.00  0.00    -0.275 OA
ATOM     10  C   UNL     1       2.249  -8.922  -2.876  0.00  0.00    +0.112 C 
ATOM     11  C   UNL     1       0.964  -8.331  -2.293  0.00  0.00    +0.095 C 
ATOM     12  H   UNL     1       2.579  -6.482  -5.165  0.00  0.00    +0.155 HD
ENDROOT
BRANCH  11  13
ATOM     13  C   UNL     1      -0.211  -8.759  -3.133  0.00  0.00    +0.114 A 
ATOM     14  C   UNL     1      -1.258  -9.465  -2.685  0.00  0.00    +0.054 A 
ATOM     15  C   UNL     1      -2.150  -9.649  -3.836  0.00  0.00    +0.020 A 
ATOM     16  C   UNL     1      -3.377 -10.283  -4.026  0.00  0.00    +0.011 A 
ATOM     17  C   UNL     1      -3.961 -10.272  -5.263  0.00  0.00    +0.001 A 
ATOM     18  C   UNL     1      -3.340  -9.636  -6.327  0.00  0.00    +0.004 A 
ATOM     19  C   UNL     1      -2.126  -9.004  -6.158  0.00  0.00    +0.047 A 
ATOM     20  C   UNL     1      -1.516  -9.003  -4.910  0.00  0.00    +0.135 A 
ATOM     21  O   UNL     1      -0.365  -8.482  -4.440  0.00  0.00    -0.459 OA
ENDBRANCH  11  13
BRANCH   1  24
ATOM     22  C   UNL     1       1.299  -1.985  -3.448  0.00  0.00    +0.217 C 
ATOM     23  O   UNL     1       1.289  -2.585  -4.502  0.00  0.00    -0.275 OA
ATOM     24  N   UNL     1       1.322  -2.665  -2.285  0.00  0.00    -0.285 N 
ATOM     25  H   UNL     1       1.398  -2.186  -1.445  0.00  0.00    +0.155 HD
BRANCH  22  26
ATOM     26  C   UNL     1       1.288  -0.478  -3.440  0.00  0.00    +0.096 C 
BRANCH  26  28
ATOM     27  C   UNL     1       1.251   1.570  -4.871  0.00  0.00    +0.004 C 
ATOM     28  C   UNL     1       1.263   0.040  -4.880  0.00  0.00    +0.006 C 
ENDBRANCH  26  28
ENDBRANCH  22  26
ENDBRANCH   1  24
TORSDOF 4
