REMARK  Name = ZINC63710329
REMARK  7 active torsions:
REMARK  status: ('A' for Active; 'I' for Inactive)
REMARK    1  A    between atoms: C_1  and  C_2
REMARK    2  A    between atoms: C_2  and  S_3
REMARK    3  A    between atoms: S_3  and  C_6
REMARK    4  A    between atoms: C_9  and  C_12
REMARK    5  A    between atoms: C_12  and  C_13
REMARK    6  A    between atoms: N_15  and  C_16
REMARK    7  A    between atoms: C_19  and  C_22
REMARK                            x       y       z     vdW  Elec       q    Type
REMARK                         _______ _______ _______ _____ _____    ______ ____
ROOT
ATOM      1  C   UNL     1       2.044  -8.647  -0.158  0.00  0.00    +0.033 A 
ATOM      2  C   UNL     1       2.416  -9.781  -0.867  0.00  0.00    +0.024 A 
ATOM      3  C   UNL     1       3.751 -10.117  -0.979  0.00  0.00    +0.009 A 
ATOM      4  C   UNL     1       4.717  -9.325  -0.385  0.00  0.00    -0.005 A 
ATOM      5  C   UNL     1       4.349  -8.195   0.323  0.00  0.00    +0.009 A 
ATOM      6  C   UNL     1       3.017  -7.851   0.433  0.00  0.00    +0.024 A 
ENDROOT
BRANCH   4   7
ATOM      7  C   UNL     1       6.173  -9.694  -0.509  0.00  0.00    +0.206 C 
ATOM      8  N   UNL     1       6.321 -11.154  -0.550  0.00  0.00    -0.360 N 
ATOM      9  C   UNL     1       7.048 -11.501   0.473  0.00  0.00    +0.060 A 
ATOM     10  C   UNL     1       7.531 -12.801   0.960  0.00  0.00    +0.027 A 
ATOM     11  C   UNL     1       8.285 -12.854   2.075  0.00  0.00    +0.002 A 
ATOM     12  C   UNL     1       8.638 -11.707   2.808  0.00  0.00    +0.002 A 
ATOM     13  C   UNL     1       8.248 -10.467   2.449  0.00  0.00    +0.027 A 
ATOM     14  C   UNL     1       7.422 -10.287   1.247  0.00  0.00    +0.060 A 
ATOM     15  N   UNL     1       6.911  -9.235   0.674  0.00  0.00    -0.360 N 
ATOM     16  H   UNL     1       5.945 -11.751  -1.216  0.00  0.00    +0.162 HD
ATOM     17  H   UNL     1       7.003  -8.317   0.974  0.00  0.00    +0.162 HD
ENDBRANCH   4   7
BRANCH   1  20
ATOM     18  C   UNL     1       0.324  -7.008  -0.035  0.00  0.00    +0.222 C 
ATOM     19  O   UNL     1       1.169  -6.137  -0.043  0.00  0.00    -0.275 OA
ATOM     20  N   UNL     1       0.692  -8.304  -0.043  0.00  0.00    -0.285 N 
ATOM     21  H   UNL     1       0.020  -9.000   0.032  0.00  0.00    +0.155 HD
BRANCH  18  22
ATOM     22  C   UNL     1      -1.137  -6.639  -0.016  0.00  0.00    +0.131 C 
BRANCH  22  26
ATOM     23  C   UNL     1      -1.536  -2.386  -0.000  0.00  0.00    +0.088 A 
ATOM     24  C   UNL     1      -1.485  -3.071  -1.200  0.00  0.00    +0.027 A 
ATOM     25  C   UNL     1      -1.356  -4.448  -1.205  0.00  0.00    +0.006 A 
ATOM     26  C   UNL     1      -1.277  -5.139  -0.011  0.00  0.00    -0.039 A 
ATOM     27  C   UNL     1      -1.327  -4.454   1.189  0.00  0.00    +0.006 A 
ATOM     28  C   UNL     1      -1.452  -3.077   1.194  0.00  0.00    +0.027 A 
BRANCH  23  29
ATOM     29  S   UNL     1      -1.701  -0.632   0.006  0.00  0.00    -0.003 S 
ATOM     30  O   UNL     1      -2.315  -0.330   1.251  0.00  0.00    -0.169 OA
ATOM     31  O   UNL     1      -2.355  -0.325  -1.218  0.00  0.00    -0.169 OA
BRANCH  29  33
ATOM     32  C   UNL     1      -0.020   1.526  -0.017  0.00  0.00    +0.028 C 
ATOM     33  C   UNL     1       0.001  -0.004  -0.020  0.00  0.00    +0.168 C 
ENDBRANCH  29  33
ENDBRANCH  23  29
ENDBRANCH  22  26
ENDBRANCH  18  22
ENDBRANCH   1  20
TORSDOF 6
