REMARK  Name = ZINC20343984
REMARK  4 active torsions:
REMARK  status: ('A' for Active; 'I' for Inactive)
REMARK    1  A    between atoms: C_1  and  C_2
REMARK    2  A    between atoms: N_9  and  C_10
REMARK    3  A    between atoms: N_17  and  C_18
REMARK    4  A    between atoms: C_21  and  C_24
REMARK                            x       y       z     vdW  Elec       q    Type
REMARK                         _______ _______ _______ _____ _____    ______ ____
ROOT
ATOM      1  C   UNL     1       4.751  -2.708  -0.625  0.00  0.00    +0.053 C 
ATOM      2  C   UNL     1       3.706  -1.655  -0.890  0.00  0.00    +0.007 A 
ATOM      3  C   UNL     1       3.044  -1.402  -2.042  0.00  0.00    +0.058 A 
ATOM      4  C   UNL     1       2.114  -0.365  -2.023  0.00  0.00    +0.140 A 
ATOM      5  N   UNL     1       1.413  -0.046  -3.092  0.00  0.00    -0.283 NA
ATOM      6  N   UNL     1       1.966   0.312  -0.833  0.00  0.00    -0.235 N 
ATOM      7  S   UNL     1       3.067  -0.478   0.207  0.00  0.00    -0.007 S 
ATOM      8  C   UNL     1       1.129   1.367  -0.549  0.00  0.00    +0.213 C 
ATOM      9  N   UNL     1       1.475   2.588  -0.882  0.00  0.00    -0.284 N 
ATOM     10  N   UNL     1      -0.071   1.141   0.085  0.00  0.00    -0.216 NA
ATOM     11  H   UNL     1       1.482  -0.584  -3.896  0.00  0.00    +0.188 HD
ATOM     12  H   UNL     1       0.786   3.425  -0.698  0.00  0.00    +0.155 HD
ENDROOT
BRANCH   9  13
ATOM     13  C   UNL     1       2.695   2.820  -1.459  0.00  0.00    +0.034 A 
ATOM     14  C   UNL     1       3.867   2.452  -0.794  0.00  0.00    +0.025 A 
ATOM     15  C   UNL     1       5.092   2.683  -1.384  0.00  0.00    +0.022 A 
ATOM     16  C   UNL     1       5.163   3.289  -2.627  0.00  0.00    +0.041 A 
ATOM     17  C   UNL     1       4.005   3.662  -3.288  0.00  0.00    +0.022 A 
ATOM     18  C   UNL     1       2.773   3.431  -2.712  0.00  0.00    +0.025 A 
ATOM     19 CL   UNL     1       6.709   3.583  -3.359  0.00  0.00    -0.084 Cl
ENDBRANCH   9  13
BRANCH  10  20
ATOM     20  C   UNL     1      -0.867   2.218   0.474  0.00  0.00    +0.068 A 
ATOM     21  C   UNL     1      -0.273   3.408   0.882  0.00  0.00    +0.029 A 
ATOM     22  C   UNL     1      -1.055   4.475   1.263  0.00  0.00    +0.021 A 
ATOM     23  C   UNL     1      -2.448   4.357   1.250  0.00  0.00    +0.052 A 
ATOM     24  C   UNL     1      -3.041   3.158   0.845  0.00  0.00    +0.021 A 
ATOM     25  C   UNL     1      -2.253   2.097   0.460  0.00  0.00    +0.029 A 
BRANCH  23  26
ATOM     26  C   UNL     1      -3.265   5.463   1.651  0.00  0.00    +0.099 C 
ATOM     27  N   UNL     1      -3.914   6.340   1.968  0.00  0.00    -0.191 NA
ENDBRANCH  23  26
ENDBRANCH  10  20
TORSDOF 3
