REMARK  Name = ZINC00880417
REMARK  6 active torsions:
REMARK  status: ('A' for Active; 'I' for Inactive)
REMARK    1  A    between atoms: C_1  and  C_2
REMARK    2  A    between atoms: C_7  and  C_14
REMARK    3  A    between atoms: C_14  and  N_15
REMARK    4  A    between atoms: N_15  and  C_16
REMARK    5  A    between atoms: C_16  and  C_17
REMARK    6  A    between atoms: N_25  and  C_26
REMARK                            x       y       z     vdW  Elec       q    Type
REMARK                         _______ _______ _______ _____ _____    ______ ____
ROOT
ATOM      1  N   UNL     1       3.596   1.392   0.645  0.00  0.00    -0.277 N 
ATOM      2  C   UNL     1       2.331   0.926   0.654  0.00  0.00    +0.303 C 
ATOM      3  O   UNL     1       2.065  -0.097   1.255  0.00  0.00    -0.253 OA
ATOM      4  N   UNL     1       1.362   1.593  -0.002  0.00  0.00    -0.296 N 
ATOM      5  H   UNL     1       1.574   2.409  -0.482  0.00  0.00    +0.151 HD
ENDROOT
BRANCH   4   6
ATOM      6  C   UNL     1      -0.013   1.086   0.008  0.00  0.00    +0.074 C 
ATOM      7  C   UNL     1      -0.729   1.579   1.267  0.00  0.00    +0.022 C 
ATOM      8  C   UNL     1      -2.164   1.050   1.278  0.00  0.00    +0.002 C 
ATOM      9  C   UNL     1      -2.904   1.556   0.038  0.00  0.00    +0.000 C 
ATOM     10  C   UNL     1      -2.188   1.063  -1.221  0.00  0.00    +0.002 C 
ATOM     11  C   UNL     1      -0.753   1.593  -1.232  0.00  0.00    +0.022 C 
ENDBRANCH   4   6
BRANCH   1  12
ATOM     12  C   UNL     1       4.649   0.667   1.359  0.00  0.00    +0.150 C 
BRANCH  12  19
ATOM     13  C   UNL     1       8.675  -3.980  -3.723  0.00  0.00    +0.044 C 
ATOM     14  C   UNL     1       8.078  -2.941  -2.809  0.00  0.00    -0.048 A 
ATOM     15  C   UNL     1       8.689  -1.701  -2.687  0.00  0.00    +0.004 A 
ATOM     16  C   UNL     1       8.164  -0.745  -1.864  0.00  0.00    +0.010 A 
ATOM     17  C   UNL     1       7.000  -1.019  -1.138  0.00  0.00    -0.001 A 
ATOM     18  C   UNL     1       6.410  -0.018  -0.246  0.00  0.00    +0.020 A 
ATOM     19  C   UNL     1       5.282  -0.340   0.433  0.00  0.00    +0.035 A 
ATOM     20  C   UNL     1       4.700  -1.617   0.280  0.00  0.00    +0.254 A 
ATOM     21  O   UNL     1       3.688  -1.888   0.903  0.00  0.00    -0.268 OA
ATOM     22  N   UNL     1       5.231  -2.541  -0.541  0.00  0.00    -0.322 N 
ATOM     23  H   UNL     1       4.788  -3.433  -0.631  0.00  0.00    +0.169 HD
ATOM     24  C   UNL     1       6.377  -2.276  -1.259  0.00  0.00    +0.049 A 
ATOM     25  C   UNL     1       6.931  -3.233  -2.103  0.00  0.00    +0.029 A 
ENDBRANCH  12  19
ENDBRANCH   1  12
BRANCH   1  26
ATOM     26  C   UNL     1       3.916   2.624  -0.080  0.00  0.00    +0.144 C 
BRANCH  26  27
ATOM     27  C   UNL     1       3.755   3.805   0.843  0.00  0.00    -0.030 A 
ATOM     28  C   UNL     1       2.537   4.454   0.930  0.00  0.00    +0.005 A 
ATOM     29  C   UNL     1       2.388   5.534   1.780  0.00  0.00    +0.000 A 
ATOM     30  C   UNL     1       3.460   5.972   2.534  0.00  0.00    +0.000 A 
ATOM     31  C   UNL     1       4.679   5.327   2.443  0.00  0.00    +0.000 A 
ATOM     32  C   UNL     1       4.827   4.244   1.598  0.00  0.00    +0.005 A 
ENDBRANCH  26  27
ENDBRANCH   1  26
TORSDOF 5
