REMARK  Name = ZINC00113785
REMARK  7 active torsions:
REMARK  status: ('A' for Active; 'I' for Inactive)
REMARK    1  A    between atoms: C_1  and  C_2
REMARK    2  A    between atoms: C_5  and  S_8
REMARK    3  A    between atoms: S_8  and  C_9
REMARK    4  A    between atoms: C_10  and  N_16
REMARK    5  A    between atoms: N_16  and  C_17
REMARK    6  A    between atoms: C_20  and  C_24
REMARK    7  A    between atoms: C_21  and  C_23
REMARK                            x       y       z     vdW  Elec       q    Type
REMARK                         _______ _______ _______ _____ _____    ______ ____
ROOT
ATOM      1  C   UNL     1       0.683   3.442   0.070  0.00  0.00    +0.101 C 
ATOM      2  C   UNL     1       1.302   2.226   0.036  0.00  0.00    +0.113 C 
ATOM      3  C   UNL     1       0.255   1.216   0.280  0.00  0.00    +0.266 C 
ATOM      4  O   UNL     1       0.426   0.014   0.323  0.00  0.00    -0.268 OA
ATOM      5  N   UNL     1      -0.920   1.849   0.440  0.00  0.00    -0.247 N 
ATOM      6  C   UNL     1      -0.746   3.178   0.335  0.00  0.00    +0.259 C 
ATOM      7  O   UNL     1      -1.617   4.019   0.435  0.00  0.00    -0.269 OA
ATOM      8  H   UNL     1      -1.769   1.411   0.609  0.00  0.00    +0.158 HD
ENDROOT
BRANCH   2   9
ATOM      9  N   UNL     1       2.655   1.986  -0.185  0.00  0.00    -0.309 N 
ATOM     10  H   UNL     1       3.072   2.282  -1.010  0.00  0.00    +0.152 HD
BRANCH   9  11
ATOM     11  C   UNL     1       3.412   1.319   0.779  0.00  0.00    +0.032 A 
ATOM     12  C   UNL     1       2.812   0.876   1.952  0.00  0.00    +0.023 A 
ATOM     13  C   UNL     1       3.565   0.217   2.904  0.00  0.00    +0.005 A 
ATOM     14  C   UNL     1       4.914  -0.003   2.691  0.00  0.00    -0.047 A 
ATOM     15  C   UNL     1       5.514   0.436   1.525  0.00  0.00    -0.046 A 
ATOM     16  C   UNL     1       4.767   1.091   0.566  0.00  0.00    +0.027 A 
ATOM     17  C   UNL     1       6.984   0.194   1.298  0.00  0.00    +0.044 C 
ATOM     18  C   UNL     1       5.731  -0.724   3.732  0.00  0.00    +0.044 C 
ENDBRANCH   9  11
ENDBRANCH   2   9
BRANCH   1  19
ATOM     19  S   UNL     1       1.440   5.017  -0.157  0.00  0.00    -0.082 S 
BRANCH  19  24
ATOM     20  C   UNL     1      -0.889   7.021  -5.353  0.00  0.00    +0.044 C 
ATOM     21  C   UNL     1      -0.308   6.520  -4.056  0.00  0.00    -0.050 A 
ATOM     22  C   UNL     1       0.506   7.346  -3.301  0.00  0.00    +0.004 A 
ATOM     23  C   UNL     1       1.040   6.891  -2.112  0.00  0.00    +0.015 A 
ATOM     24  C   UNL     1       0.760   5.602  -1.673  0.00  0.00    +0.013 A 
ATOM     25  C   UNL     1      -0.054   4.773  -2.438  0.00  0.00    +0.015 A 
ATOM     26  C   UNL     1      -0.590   5.237  -3.623  0.00  0.00    +0.004 A 
ENDBRANCH  19  24
ENDBRANCH   1  19
TORSDOF 4
