REMARK  Name = ZINC66650648
REMARK  10 active torsions:
REMARK  status: ('A' for Active; 'I' for Inactive)
REMARK    1  A    between atoms: C_1  and  C_2
REMARK    2  A    between atoms: C_2  and  N_21
REMARK    3  A    between atoms: C_8  and  C_10
REMARK    4  A    between atoms: C_19  and  O_20
REMARK    5  A    between atoms: N_21  and  C_22
REMARK    6  A    between atoms: C_23  and  O_25
REMARK    7  A    between atoms: O_25  and  C_26
REMARK    8  A    between atoms: C_26  and  C_27
REMARK    9  A    between atoms: C_26  and  C_28
REMARK   10  A    between atoms: C_26  and  C_29
REMARK                            x       y       z     vdW  Elec       q    Type
REMARK                         _______ _______ _______ _____ _____    ______ ____
ROOT
ATOM      1  C   UNL     1       0.164   1.657  -0.154  0.00  0.00    +0.032 C 
ATOM      2  C   UNL     1       0.085   0.134  -0.025  0.00  0.00    +0.040 C 
ATOM      3  C   UNL     1      -1.378  -0.290   0.124  0.00  0.00    +0.045 C 
ATOM      4  C   UNL     1      -1.456  -1.817   0.218  0.00  0.00    +0.110 C 
ATOM      5  N   UNL     1      -0.583  -2.268   1.311  0.00  0.00    -0.297 N 
ATOM      6  C   UNL     1       0.823  -1.842   1.313  0.00  0.00    +0.110 C 
ATOM      7  C   UNL     1       0.875  -0.315   1.207  0.00  0.00    +0.045 C 
ATOM      8  C   UNL     1      -1.063  -3.058   2.292  0.00  0.00    +0.250 C 
ATOM      9  O   UNL     1      -2.206  -3.470   2.236  0.00  0.00    -0.270 OA
ENDROOT
BRANCH   8  10
ATOM     10  C   UNL     1      -0.202  -3.423   3.433  0.00  0.00    +0.079 A 
ATOM     11  C   UNL     1       1.028  -4.018   3.205  0.00  0.00    +0.025 A 
ATOM     12  C   UNL     1       1.842  -4.362   4.293  0.00  0.00    -0.017 A 
ATOM     13  C   UNL     1       3.097  -4.968   4.098  0.00  0.00    +0.008 A 
ATOM     14  C   UNL     1       3.865  -5.290   5.174  0.00  0.00    +0.001 A 
ATOM     15  C   UNL     1       3.426  -5.030   6.471  0.00  0.00    +0.001 A 
ATOM     16  C   UNL     1       2.218  -4.446   6.700  0.00  0.00    +0.008 A 
ATOM     17  C   UNL     1       1.396  -4.098   5.614  0.00  0.00    -0.014 A 
ATOM     18  C   UNL     1       0.145  -3.493   5.819  0.00  0.00    +0.054 A 
ATOM     19  C   UNL     1      -0.634  -3.158   4.750  0.00  0.00    +0.130 A 
BRANCH  19  20
ATOM     20  O   UNL     1      -1.839  -2.570   4.956  0.00  0.00    -0.506 OA
ATOM     21  H   UNL     1      -2.571  -3.194   5.050  0.00  0.00    +0.292 HD
ENDBRANCH  19  20
ENDBRANCH   8  10
BRANCH   2  22
ATOM     22  N   UNL     1       0.654  -0.488  -1.223  0.00  0.00    -0.265 N 
ATOM     23  C   UNL     1       1.923  -1.215  -1.139  0.00  0.00    +0.136 C 
ATOM     24  C   UNL     1       0.009  -0.391  -2.403  0.00  0.00    +0.404 C 
ATOM     25  O   UNL     1      -1.043   0.212  -2.473  0.00  0.00    -0.226 OA
BRANCH  24  26
ATOM     26  O   UNL     1       0.532  -0.963  -3.504  0.00  0.00    -0.445 OA
BRANCH  26  27
ATOM     27  C   UNL     1      -0.204  -0.821  -4.721  0.00  0.00    +0.107 C 
ATOM     28  C   UNL     1      -0.350   0.664  -5.058  0.00  0.00    +0.055 C 
ATOM     29  C   UNL     1       0.540  -1.530  -5.853  0.00  0.00    +0.055 C 
ATOM     30  C   UNL     1      -1.591  -1.444  -4.553  0.00  0.00    +0.055 C 
ENDBRANCH  26  27
ENDBRANCH  24  26
ENDBRANCH   2  22
TORSDOF 5
