REMARK  Name = ZINC63699022
REMARK  5 active torsions:
REMARK  status: ('A' for Active; 'I' for Inactive)
REMARK    1  A    between atoms: C_1  and  C_2
REMARK    2  A    between atoms: C_2  and  C_3
REMARK    3  A    between atoms: C_6  and  C_8
REMARK    4  A    between atoms: C_17  and  C_29
REMARK    5  A    between atoms: N_19  and  C_20
REMARK                            x       y       z     vdW  Elec       q    Type
REMARK                         _______ _______ _______ _____ _____    ______ ____
ROOT
ATOM      1  C   UNL     1       1.414  -1.616  -4.808  0.00  0.00    +0.065 C 
ATOM      2  C   UNL     1       0.709  -2.957  -5.061  0.00  0.00    +0.109 C 
ATOM      3  C   UNL     1       0.592  -3.261  -6.519  0.00  0.00    +0.215 C 
ATOM      4  O   UNL     1       0.385  -4.421  -6.809  0.00  0.00    -0.276 OA
ATOM      5  N   UNL     1       0.689  -2.408  -7.541  0.00  0.00    -0.295 N 
ATOM      6  C   UNL     1       1.151  -1.038  -7.369  0.00  0.00    +0.194 C 
ATOM      7  C   UNL     1       0.953  -0.686  -5.902  0.00  0.00    -0.007 C 
ATOM      8  C   UNL     1       0.339   0.461  -5.863  0.00  0.00    +0.019 C 
ATOM      9  N   UNL     1      -0.003   0.893  -7.135  0.00  0.00    -0.277 N 
ATOM     10  N   UNL     1       0.357  -0.043  -8.096  0.00  0.00    -0.164 NA
ATOM     11  C   UNL     1       0.038   1.222  -4.598  0.00  0.00    +0.062 C 
ATOM     12  H   UNL     1       0.442  -2.712  -8.428  0.00  0.00    +0.151 HD
ATOM     13  H   UNL     1      -0.433   1.740  -7.332  0.00  0.00    +0.166 HD
ENDROOT
BRANCH  10  14
ATOM     14  C   UNL     1      -0.825  -0.662  -8.712  0.00  0.00    +0.270 C 
ATOM     15  N   UNL     1      -1.588   0.345  -9.460  0.00  0.00    -0.350 N 
ATOM     16  C   UNL     1      -2.774   0.410  -8.928  0.00  0.00    +0.061 A 
ATOM     17  C   UNL     1      -3.963   1.218  -9.234  0.00  0.00    +0.027 A 
ATOM     18  C   UNL     1      -5.079   1.066  -8.493  0.00  0.00    +0.002 A 
ATOM     19  C   UNL     1      -5.161   0.156  -7.424  0.00  0.00    +0.002 A 
ATOM     20  C   UNL     1      -4.130  -0.631  -7.059  0.00  0.00    +0.027 A 
ATOM     21  C   UNL     1      -2.861  -0.553  -7.797  0.00  0.00    +0.061 A 
ATOM     22  N   UNL     1      -1.725  -1.176  -7.673  0.00  0.00    -0.350 N 
ATOM     23  H   UNL     1      -1.267   0.867 -10.212  0.00  0.00    +0.163 HD
ATOM     24  H   UNL     1      -1.512  -1.855  -7.014  0.00  0.00    +0.163 HD
ENDBRANCH  10  14
BRANCH   1  28
ATOM     25  C   UNL     1      -0.123  -0.209  -1.174  0.00  0.00    -0.010 A 
ATOM     26  C   UNL     1       1.218  -0.081  -1.328  0.00  0.00    +0.011 A 
ATOM     27  C   UNL     1       1.804  -0.521  -2.500  0.00  0.00    +0.012 A 
ATOM     28  C   UNL     1       1.020  -1.069  -3.461  0.00  0.00    -0.002 A 
ATOM     29  S   UNL     1      -0.599  -0.979  -2.713  0.00  0.00    -0.098 S 
BRANCH  25  31
ATOM     30  C   UNL     1      -1.478   1.624  -0.199  0.00  0.00    +0.009 C 
ATOM     31  C   UNL     1      -0.987   0.188  -0.005  0.00  0.00    +0.039 C 
ENDBRANCH  25  31
ENDBRANCH   1  28
TORSDOF 3
