REMARK  Name = ZINC39637427
REMARK  8 active torsions:
REMARK  status: ('A' for Active; 'I' for Inactive)
REMARK    1  A    between atoms: C_1  and  C_2
REMARK    2  A    between atoms: C_4  and  C_7
REMARK    3  A    between atoms: C_8  and  C_13
REMARK    4  A    between atoms: C_9  and  C_12
REMARK    5  A    between atoms: C_17  and  C_26
REMARK    6  A    between atoms: N_28  and  C_29
REMARK    7  A    between atoms: C_34  and  C_39
REMARK    8  A    between atoms: C_36  and  C_38
REMARK                            x       y       z     vdW  Elec       q    Type
REMARK                         _______ _______ _______ _____ _____    ______ ____
ROOT
ATOM      1  C   UNL     1       0.475  -5.197   0.012  0.00  0.00    +0.252 C 
ATOM      2  O   UNL     1       1.090  -5.350   1.050  0.00  0.00    -0.270 OA
ATOM      3  N   UNL     1       1.097  -5.366  -1.172  0.00  0.00    -0.296 N 
ATOM      4  C   UNL     1       0.522  -5.218  -2.529  0.00  0.00    +0.121 C 
ATOM      5  C   UNL     1       1.637  -4.536  -3.353  0.00  0.00    +0.100 C 
ATOM      6  C   UNL     1       2.940  -4.885  -2.615  0.00  0.00    -0.004 C 
ATOM      7  C   UNL     1       2.514  -5.735  -1.409  0.00  0.00    +0.115 C 
ATOM      8  C   UNL     1       3.867  -5.685  -3.525  0.00  0.00    -0.010 C 
ATOM      9  C   UNL     1       5.178  -5.969  -2.788  0.00  0.00    -0.082 C 
ATOM     10  N   UNL     1       5.812  -4.702  -2.405  0.00  0.00    +0.379 N 
ATOM     11  C   UNL     1       4.955  -3.981  -1.456  0.00  0.00    -0.082 C 
ATOM     12  C   UNL     1       3.633  -3.612  -2.137  0.00  0.00    -0.010 C 
ATOM     13  H   UNL     1       6.704  -4.890  -1.974  0.00  0.00    -0.086 HD
ATOM     14  H   UNL     1       5.951  -4.135  -3.228  0.00  0.00    -0.086 HD
ENDROOT
BRANCH   1  16
ATOM     15  C   UNL     1      -1.465  -3.538   0.062  0.00  0.00    +0.201 A 
ATOM     16  C   UNL     1      -0.950  -4.826   0.048  0.00  0.00    +0.108 A 
ATOM     17  C   UNL     1      -2.050  -5.719   0.075  0.00  0.00    +0.093 A 
ATOM     18  N   UNL     1      -3.142  -5.016   0.103  0.00  0.00    -0.082 NA
ATOM     19  O   UNL     1      -2.803  -3.643   0.101  0.00  0.00    -0.352 OA
ATOM     20  C   UNL     1      -1.967  -7.224   0.072  0.00  0.00    +0.070 C 
BRANCH  15  24
ATOM     21  C   UNL     1      -0.296   1.399   0.045  0.00  0.00    +0.089 C 
ATOM     22  C   UNL     1      -0.186  -0.103   0.037  0.00  0.00    +0.135 A 
ATOM     23  C   UNL     1      -1.215  -0.968   0.064  0.00  0.00    +0.079 A 
ATOM     24  C   UNL     1      -0.685  -2.282   0.044  0.00  0.00    +0.152 A 
ATOM     25  N   UNL     1       0.624  -2.184   0.007  0.00  0.00    -0.075 NA
ATOM     26  O   UNL     1       0.955  -0.808  -0.003  0.00  0.00    -0.359 OA
ENDBRANCH  15  24
ENDBRANCH   1  16
BRANCH   5  27
ATOM     27  C   UNL     1       1.664  -5.086  -4.756  0.00  0.00    +0.218 C 
ATOM     28  O   UNL     1       1.342  -6.237  -4.963  0.00  0.00    -0.275 OA
ATOM     29  N   UNL     1       2.045  -4.298  -5.782  0.00  0.00    -0.312 N 
ATOM     30  H   UNL     1       2.302  -3.378  -5.617  0.00  0.00    +0.149 HD
BRANCH  29  31
ATOM     31  C   UNL     1       2.070  -4.833  -7.146  0.00  0.00    +0.076 C 
ATOM     32  C   UNL     1       0.676  -4.716  -7.766  0.00  0.00    +0.022 C 
ATOM     33  C   UNL     1       0.703  -5.274  -9.190  0.00  0.00    +0.002 C 
ATOM     34  C   UNL     1       1.704  -4.478 -10.030  0.00  0.00    +0.003 C 
ATOM     35  C   UNL     1       3.098  -4.595  -9.411  0.00  0.00    -0.009 C 
ATOM     36  C   UNL     1       3.071  -4.037  -7.986  0.00  0.00    +0.009 C 
ATOM     37  C   UNL     1       4.465  -4.154  -7.366  0.00  0.00    +0.009 C 
ATOM     38  C   UNL     1       3.518  -6.066  -9.374  0.00  0.00    +0.008 C 
ENDBRANCH  29  31
ENDBRANCH   5  27
TORSDOF 4
