REMARK  Name = ZINC08832818
REMARK  9 active torsions:
REMARK  status: ('A' for Active; 'I' for Inactive)
REMARK    1  A    between atoms: C_1  and  C_2
REMARK    2  A    between atoms: C_2  and  C_3
REMARK    3  A    between atoms: C_9  and  C_11
REMARK    4  A    between atoms: C_14  and  N_18
REMARK    5  A    between atoms: C_15  and  C_17
REMARK    6  A    between atoms: N_18  and  C_19
REMARK    7  A    between atoms: C_19  and  N_21
REMARK    8  A    between atoms: C_22  and  C_24
REMARK    9  A    between atoms: C_25  and  C_26
REMARK                            x       y       z     vdW  Elec       q    Type
REMARK                         _______ _______ _______ _____ _____    ______ ____
ROOT
ATOM      1  C   UNL     1       2.414   0.056  -0.057  0.00  0.00    +0.009 A 
ATOM      2  C   UNL     1       2.365   1.427  -0.314  0.00  0.00    +0.012 A 
ATOM      3  C   UNL     1       1.157   2.090  -0.286  0.00  0.00    +0.024 A 
ATOM      4  C   UNL     1      -0.013   1.393  -0.003  0.00  0.00    +0.036 A 
ATOM      5  C   UNL     1       0.033   0.028   0.254  0.00  0.00    -0.029 A 
ATOM      6  C   UNL     1       1.238  -0.640   0.227  0.00  0.00    +0.015 A 
ATOM      7  C   UNL     1      -1.237  -0.723   0.560  0.00  0.00    +0.045 C 
ENDROOT
BRANCH   1  14
ATOM      8  C   UNL     1       7.386  -0.935  -0.504  0.00  0.00    +0.155 A 
ATOM      9  N   UNL     1       7.880  -2.130  -0.337  0.00  0.00    -0.132 NA
ATOM     10  N   UNL     1       6.938  -2.962  -0.057  0.00  0.00    -0.120 NA
ATOM     11  C   UNL     1       5.802  -2.333  -0.032  0.00  0.00    +0.218 A 
ATOM     12  N   UNL     1       6.021  -1.007  -0.315  0.00  0.00    -0.190 N 
ATOM     13  N   UNL     1       4.904  -0.183  -0.330  0.00  0.00    -0.156 NA
ATOM     14  C   UNL     1       3.709  -0.657  -0.086  0.00  0.00    +0.132 A 
ATOM     15  S   UNL     1       4.044  -2.386   0.211  0.00  0.00    -0.026 S 
BRANCH   8  17
ATOM     16  C   UNL     1       8.614   0.998   0.449  0.00  0.00    +0.012 C 
ATOM     17  C   UNL     1       8.169   0.308  -0.842  0.00  0.00    +0.075 C 
ENDBRANCH   8  17
ENDBRANCH   1  14
BRANCH   4  18
ATOM     18  N   UNL     1      -1.236   2.067   0.019  0.00  0.00    -0.296 N 
ATOM     19  H   UNL     1      -2.002   1.697  -0.449  0.00  0.00    +0.154 HD
BRANCH  18  20
ATOM     20  C   UNL     1      -1.355   3.229   0.691  0.00  0.00    +0.141 C 
ATOM     21  S   UNL     1       0.021   3.937   1.425  0.00  0.00    -0.018 S 
BRANCH  20  22
ATOM     22  N   UNL     1      -2.555   3.834   0.785  0.00  0.00    -0.264 N 
ATOM     23  C   UNL     1      -2.673   4.997   1.456  0.00  0.00    +0.242 C 
ATOM     24  O   UNL     1      -1.696   5.500   1.978  0.00  0.00    -0.270 OA
ATOM     25  H   UNL     1      -3.334   3.433   0.369  0.00  0.00    +0.157 HD
BRANCH  23  26
ATOM     26  C   UNL     1      -3.976   5.654   1.558  0.00  0.00    +0.068 C 
ATOM     27  C   UNL     1      -4.094   6.817   2.231  0.00  0.00    +0.013 C 
BRANCH  27  28
ATOM     28  C   UNL     1      -5.404   7.478   2.333  0.00  0.00    -0.025 A 
ATOM     29  C   UNL     1      -6.529   6.906   1.730  0.00  0.00    +0.009 A 
ATOM     30  C   UNL     1      -7.755   7.527   1.835  0.00  0.00    +0.020 A 
ATOM     31  C   UNL     1      -7.872   8.722   2.526  0.00  0.00    +0.041 A 
ATOM     32  C   UNL     1      -6.761   9.298   3.122  0.00  0.00    +0.020 A 
ATOM     33  C   UNL     1      -5.531   8.685   3.030  0.00  0.00    +0.009 A 
ATOM     34 CL   UNL     1      -9.418   9.502   2.647  0.00  0.00    -0.084 Cl
ENDBRANCH  27  28
ENDBRANCH  23  26
ENDBRANCH  20  22
ENDBRANCH  18  20
ENDBRANCH   4  18
TORSDOF 7
