REMARK  Name = ZINC09376660
REMARK  11 active torsions:
REMARK  status: ('A' for Active; 'I' for Inactive)
REMARK    1  A    between atoms: C_1  and  C_2
REMARK    2  A    between atoms: C_5  and  C_8
REMARK    3  A    between atoms: N_10  and  C_15
REMARK    4  A    between atoms: N_13  and  C_14
REMARK    5  A    between atoms: C_15  and  N_54
REMARK    6  A    between atoms: C_16  and  C_17
REMARK    7  A    between atoms: C_16  and  N_54
REMARK    8  A    between atoms: C_20  and  S_23
REMARK    9  A    between atoms: S_23  and  N_26
REMARK   10  A    between atoms: C_27  and  C_28
REMARK   11  A    between atoms: C_27  and  N_54
REMARK                            x       y       z     vdW  Elec       q    Type
REMARK                         _______ _______ _______ _____ _____    ______ ____
ROOT
ATOM      1  N   UNL     1       1.468   4.172   2.293  0.00  0.00    +0.401 N 
ATOM      2  H   UNL     1       2.230   3.958   2.947  0.00  0.00    -0.078 HD
ENDROOT
BRANCH   1   3
ATOM      3  C   UNL     1       1.491   5.617   1.985  0.00  0.00    +0.072 C 
BRANCH   3   6
ATOM      4  C   UNL     1       0.814   7.448   5.016  0.00  0.00    +0.163 A 
ATOM      5  N   UNL     1       0.391   6.831   3.949  0.00  0.00    -0.152 NA
ATOM      6  N   UNL     1       1.510   6.368   3.243  0.00  0.00    -0.257 N 
ATOM      7  C   UNL     1       2.608   6.744   3.931  0.00  0.00    +0.176 A 
ATOM      8  S   UNL     1       4.232   6.431   3.491  0.00  0.00    -0.011 S 
ATOM      9  N   UNL     1       2.194   7.411   5.027  0.00  0.00    -0.306 N 
ATOM     10  C   UNL     1       3.061   7.996   6.053  0.00  0.00    +0.153 C 
BRANCH   4  15
ATOM     11  C   UNL     1      -2.513   9.934   9.001  0.00  0.00    +0.044 C 
ATOM     12  C   UNL     1      -1.642   9.284   7.958  0.00  0.00    -0.050 A 
ATOM     13  C   UNL     1      -0.322   9.674   7.821  0.00  0.00    +0.004 A 
ATOM     14  C   UNL     1       0.481   9.082   6.868  0.00  0.00    +0.012 A 
ATOM     15  C   UNL     1      -0.041   8.087   6.041  0.00  0.00    +0.019 A 
ATOM     16  C   UNL     1      -1.375   7.702   6.180  0.00  0.00    +0.012 A 
ATOM     17  C   UNL     1      -2.166   8.298   7.140  0.00  0.00    +0.004 A 
ENDBRANCH   4  15
ENDBRANCH   3   6
ENDBRANCH   1   3
BRANCH   1  18
ATOM     18  C   UNL     1       1.665   3.389   1.055  0.00  0.00    -0.040 C 
BRANCH  18  19
ATOM     19  C   UNL     1       3.126   3.429   0.685  0.00  0.00    -0.064 A 
ATOM     20  C   UNL     1       4.011   2.543   1.270  0.00  0.00    +0.003 A 
ATOM     21  C   UNL     1       5.351   2.580   0.931  0.00  0.00    +0.029 A 
ATOM     22  C   UNL     1       5.804   3.501   0.006  0.00  0.00    +0.105 A 
ATOM     23  C   UNL     1       4.919   4.386  -0.580  0.00  0.00    +0.029 A 
ATOM     24  C   UNL     1       3.579   4.349  -0.241  0.00  0.00    +0.003 A 
BRANCH  22  25
ATOM     25  S   UNL     1       7.512   3.548  -0.426  0.00  0.00    +0.056 S 
ATOM     26  O   UNL     1       7.774   4.860  -0.906  0.00  0.00    -0.153 OA
ATOM     27  O   UNL     1       8.223   2.981   0.666  0.00  0.00    -0.153 OA
BRANCH  25  28
ATOM     28  N   UNL     1       7.721   2.524  -1.710  0.00  0.00    -0.204 NA
ATOM     29  H   UNL     1       8.416   2.700  -2.364  0.00  0.00    +0.144 HD
ATOM     30  H   UNL     1       7.148   1.747  -1.809  0.00  0.00    +0.144 HD
ENDBRANCH  25  28
ENDBRANCH  22  25
ENDBRANCH  18  19
ENDBRANCH   1  18
BRANCH   1  31
ATOM     31  C   UNL     1       0.181   3.809   2.921  0.00  0.00    +0.039 C 
BRANCH  31  32
ATOM     32  C   UNL     1       0.352   2.478   3.655  0.00  0.00    +0.376 C 
ATOM     33  F   UNL     1       1.433   2.568   4.538  0.00  0.00    -0.173 F 
ATOM     34  F   UNL     1      -0.813   2.188   4.374  0.00  0.00    -0.173 F 
ATOM     35  F   UNL     1       0.592   1.460   2.726  0.00  0.00    -0.173 F 
ENDBRANCH  31  32
ENDBRANCH   1  31
TORSDOF 9
