REMARK  Name = ZINC66200142
REMARK  14 active torsions:
REMARK  status: ('A' for Active; 'I' for Inactive)
REMARK    1  A    between atoms: C_1  and  C_2
REMARK    2  A    between atoms: C_2  and  C_3
REMARK    3  A    between atoms: N_5  and  C_6
REMARK    4  A    between atoms: C_10  and  N_13
REMARK    5  A    between atoms: C_11  and  C_12
REMARK    6  A    between atoms: N_13  and  C_14
REMARK    7  A    between atoms: C_14  and  N_16
REMARK    8  A    between atoms: C_17  and  C_19
REMARK    9  A    between atoms: C_19  and  C_21
REMARK   10  A    between atoms: C_19  and  C_22
REMARK   11  A    between atoms: C_25  and  C_28
REMARK   12  A    between atoms: C_28  and  C_29
REMARK   13  A    between atoms: C_29  and  C_30
REMARK   14  A    between atoms: C_29  and  C_31
REMARK                            x       y       z     vdW  Elec       q    Type
REMARK                         _______ _______ _______ _____ _____    ______ ____
ROOT
ATOM      1  C   UNL     1      -5.903  -5.947   0.436  0.00  0.00    +0.141 C 
ATOM      2  S   UNL     1      -7.225  -4.859   0.433  0.00  0.00    -0.018 S 
ENDROOT
BRANCH   1   3
ATOM      3  N   UNL     1      -6.124  -7.277   0.442  0.00  0.00    -0.267 N 
ATOM      4  C   UNL     1      -7.386  -7.750   0.446  0.00  0.00    +0.226 C 
ATOM      5  O   UNL     1      -8.322  -6.980   0.444  0.00  0.00    -0.275 OA
ATOM      6  H   UNL     1      -5.375  -7.893   0.444  0.00  0.00    +0.157 HD
BRANCH   4   7
ATOM      7  C   UNL     1      -7.633  -9.236   0.453  0.00  0.00    +0.102 C 
ATOM      8  C   UNL     1      -7.007  -9.864  -0.794  0.00  0.00    +0.022 C 
BRANCH   7   9
ATOM      9  C   UNL     1      -9.117  -9.499   0.457  0.00  0.00    -0.036 A 
ATOM     10  C   UNL     1      -9.902  -9.040  -0.584  0.00  0.00    +0.004 A 
ATOM     11  C   UNL     1     -11.264  -9.281  -0.581  0.00  0.00    +0.004 A 
ATOM     12  C   UNL     1     -11.839  -9.981   0.463  0.00  0.00    -0.047 A 
ATOM     13  C   UNL     1     -11.053 -10.441   1.503  0.00  0.00    +0.004 A 
ATOM     14  C   UNL     1      -9.691 -10.204   1.498  0.00  0.00    +0.004 A 
BRANCH  12  15
ATOM     15  C   UNL     1     -13.323 -10.243   0.467  0.00  0.00    +0.038 C 
BRANCH  15  16
ATOM     16  C   UNL     1     -13.609 -11.568  -0.243  0.00  0.00    -0.013 C 
ATOM     17  C   UNL     1     -15.100 -11.895  -0.130  0.00  0.00    +0.007 C 
ATOM     18  C   UNL     1     -13.223 -11.450  -1.719  0.00  0.00    +0.007 C 
ENDBRANCH  15  16
ENDBRANCH  12  15
ENDBRANCH   7   9
ENDBRANCH   4   7
ENDBRANCH   1   3
BRANCH   1  19
ATOM     19  N   UNL     1      -4.641  -5.474   0.431  0.00  0.00    -0.296 N 
ATOM     20  H   UNL     1      -3.893  -6.087   0.504  0.00  0.00    +0.154 HD
BRANCH  19  25
ATOM     21  C   UNL     1      -3.235  -2.257  -0.676  0.00  0.00    +0.038 A 
ATOM     22  C   UNL     1      -3.959  -1.372   0.113  0.00  0.00    +0.024 A 
ATOM     23  C   UNL     1      -4.903  -1.849   1.001  0.00  0.00    +0.004 A 
ATOM     24  C   UNL     1      -5.131  -3.208   1.108  0.00  0.00    +0.023 A 
ATOM     25  C   UNL     1      -4.410  -4.098   0.322  0.00  0.00    +0.037 A 
ATOM     26  C   UNL     1      -3.465  -3.622  -0.575  0.00  0.00    -0.008 A 
ATOM     27  C   UNL     1      -2.687  -4.584  -1.435  0.00  0.00    +0.047 C 
BRANCH  21  30
ATOM     28  C   UNL     1      -2.326  -0.489  -1.983  0.00  0.00    +0.217 C 
ATOM     29  O   UNL     1      -3.253   0.218  -1.651  0.00  0.00    -0.275 OA
ATOM     30  N   UNL     1      -2.279  -1.773  -1.575  0.00  0.00    -0.285 N 
ATOM     31  H   UNL     1      -1.581  -2.361  -1.905  0.00  0.00    +0.155 HD
BRANCH  28  33
ATOM     32  C   UNL     1      -1.521   1.534  -3.169  0.00  0.00    +0.013 C 
ATOM     33  C   UNL     1      -1.227   0.067  -2.851  0.00  0.00    +0.093 C 
ENDBRANCH  28  33
ENDBRANCH  21  30
ENDBRANCH  19  25
ENDBRANCH   1  19
TORSDOF 9
