REMARK  Name = ZINC11606520
REMARK  11 active torsions:
REMARK  status: ('A' for Active; 'I' for Inactive)
REMARK    1  A    between atoms: C_1  and  C_2
REMARK    2  A    between atoms: C_7  and  N_8
REMARK    3  A    between atoms: C_9  and  C_11
REMARK    4  A    between atoms: C_11  and  N_12
REMARK    5  A    between atoms: N_12  and  C_13
REMARK    6  A    between atoms: N_12  and  C_21
REMARK    7  A    between atoms: C_13  and  C_14
REMARK    8  A    between atoms: C_14  and  C_15
REMARK    9  A    between atoms: C_22  and  N_37
REMARK   10  A    between atoms: N_23  and  C_30
REMARK   11  A    between atoms: C_30  and  C_31
REMARK                            x       y       z     vdW  Elec       q    Type
REMARK                         _______ _______ _______ _____ _____    ______ ____
ROOT
ATOM      1  N   UNL     1      -0.569   4.996  -4.260  0.00  0.00    -0.314 N 
ENDROOT
BRANCH   1   2
ATOM      2  C   UNL     1       0.520   5.570  -4.956  0.00  0.00    +0.134 A 
ATOM      3  C   UNL     1       0.586   6.923  -5.147  0.00  0.00    +0.127 A 
ATOM      4  N   UNL     1       1.659   7.458  -5.823  0.00  0.00    -0.276 N 
ATOM      5  C   UNL     1       2.630   6.657  -6.301  0.00  0.00    +0.331 A 
ATOM      6  O   UNL     1       3.568   7.146  -6.901  0.00  0.00    -0.246 OA
ATOM      7  N   UNL     1       2.578   5.324  -6.127  0.00  0.00    -0.273 N 
ATOM      8  H   UNL     1       3.310   4.748  -6.490  0.00  0.00    +0.173 HD
ATOM      9  C   UNL     1       1.548   4.758  -5.467  0.00  0.00    +0.277 A 
ATOM     10  O   UNL     1       1.509   3.549  -5.313  0.00  0.00    -0.266 OA
BRANCH   3  11
ATOM     11  N   UNL     1      -0.408   7.743  -4.663  0.00  0.00    -0.343 N 
ATOM     12  H   UNL     1      -1.160   7.362  -4.184  0.00  0.00    +0.144 HD
ATOM     13  H   UNL     1      -0.356   8.702  -4.801  0.00  0.00    +0.144 HD
ENDBRANCH   3  11
BRANCH   4  14
ATOM     14  C   UNL     1       1.743   8.906  -6.029  0.00  0.00    +0.163 C 
BRANCH  14  15
ATOM     15  C   UNL     1       1.060   9.270  -7.322  0.00  0.00    -0.028 A 
ATOM     16  C   UNL     1       1.782   9.299  -8.501  0.00  0.00    +0.005 A 
ATOM     17  C   UNL     1       1.154   9.628  -9.688  0.00  0.00    +0.000 A 
ATOM     18  C   UNL     1      -0.193   9.938  -9.694  0.00  0.00    +0.000 A 
ATOM     19  C   UNL     1      -0.914   9.914  -8.515  0.00  0.00    +0.000 A 
ATOM     20  C   UNL     1      -0.287   9.579  -7.329  0.00  0.00    +0.005 A 
ENDBRANCH  14  15
ENDBRANCH   4  14
ENDBRANCH   1   2
BRANCH   1  21
ATOM     21  C   UNL     1      -1.354   4.121  -5.140  0.00  0.00    +0.201 C 
BRANCH  21  23
ATOM     22  N   UNL     1      -3.657   3.222  -5.237  0.00  0.00    -0.284 N 
ATOM     23  C   UNL     1      -2.726   3.914  -4.551  0.00  0.00    +0.235 C 
ATOM     24  O   UNL     1      -2.992   4.371  -3.459  0.00  0.00    -0.274 OA
ATOM     25  H   UNL     1      -3.428   2.809  -6.084  0.00  0.00    +0.155 HD
BRANCH  22  32
ATOM     26  C   UNL     1      -5.785   2.771  -7.071  0.00  0.00    +0.045 C 
ATOM     27  C   UNL     1      -6.022   2.879  -5.586  0.00  0.00    -0.029 A 
ATOM     28  C   UNL     1      -7.301   2.758  -5.080  0.00  0.00    +0.005 A 
ATOM     29  C   UNL     1      -7.519   2.856  -3.718  0.00  0.00    +0.000 A 
ATOM     30  C   UNL     1      -6.457   3.075  -2.859  0.00  0.00    +0.002 A 
ATOM     31  C   UNL     1      -5.175   3.192  -3.358  0.00  0.00    +0.023 A 
ATOM     32  C   UNL     1      -4.954   3.099  -4.727  0.00  0.00    +0.036 A 
ENDBRANCH  22  32
ENDBRANCH  21  23
ENDBRANCH   1  21
BRANCH   1  33
ATOM     33  C   UNL     1      -0.109   4.269  -3.069  0.00  0.00    +0.110 C 
BRANCH  33  34
ATOM     34  C   UNL     1       0.273   5.270  -1.976  0.00  0.00    +0.049 C 
BRANCH  34  35
ATOM     35  C   UNL     1       0.627   4.525  -0.715  0.00  0.00    -0.072 C 
ATOM     36  C   UNL     1       1.876   4.263  -0.496  0.00  0.00    -0.028 C 
ATOM     37  C   UNL     1       2.380   3.522   0.708  0.00  0.00    +0.027 C 
ATOM     38  C   UNL     1       1.313   3.499   1.803  0.00  0.00    +0.004 C 
ATOM     39  C   UNL     1      -0.015   3.051   1.180  0.00  0.00    +0.005 C 
ATOM     40  C   UNL     1      -0.489   4.134   0.209  0.00  0.00    +0.030 C 
ENDBRANCH  34  35
ENDBRANCH  33  34
ENDBRANCH   1  33
TORSDOF 10
