REMARK  Name = ZINC20532237
REMARK  10 active torsions:
REMARK  status: ('A' for Active; 'I' for Inactive)
REMARK    1  A    between atoms: C_1  and  C_2
REMARK    2  A    between atoms: C_2  and  N_3
REMARK    3  A    between atoms: C_9  and  N_27
REMARK    4  A    between atoms: C_10  and  C_11
REMARK    5  A    between atoms: C_11  and  C_13
REMARK    6  A    between atoms: C_11  and  N_14
REMARK    7  A    between atoms: N_17  and  C_18
REMARK    8  A    between atoms: C_23  and  O_24
REMARK    9  A    between atoms: O_24  and  C_25
REMARK   10  A    between atoms: C_25  and  C_26
REMARK                            x       y       z     vdW  Elec       q    Type
REMARK                         _______ _______ _______ _____ _____    ______ ____
ROOT
ATOM      1  N   UNL     1      -8.940  -1.392  -4.517  0.00  0.00    +0.383 N 
ATOM      2  C   UNL     1      -8.456  -2.409  -3.573  0.00  0.00    -0.074 C 
ATOM      3  C   UNL     1      -7.227  -1.890  -2.821  0.00  0.00    +0.018 C 
ATOM      4  C   UNL     1      -7.570  -0.526  -2.227  0.00  0.00    -0.034 A 
ATOM      5  C   UNL     1      -8.647   0.159  -2.703  0.00  0.00    -0.021 A 
ATOM      6  S   UNL     1      -8.669   1.641  -1.734  0.00  0.00    -0.077 S 
ATOM      7  C   UNL     1      -7.238   1.289  -0.722  0.00  0.00    +0.090 A 
ATOM      8  C   UNL     1      -6.853   0.074  -1.196  0.00  0.00    +0.007 A 
ATOM      9  C   UNL     1      -9.570  -0.270  -3.796  0.00  0.00    -0.035 C 
ATOM     10  H   UNL     1      -8.074  -1.005  -5.074  0.00  0.00    -0.081 HD
ENDROOT
BRANCH   7  11
ATOM     11  N   UNL     1      -6.665   2.062   0.293  0.00  0.00    -0.317 N 
ATOM     12  C   UNL     1      -5.659   1.663   1.127  0.00  0.00    +0.092 A 
ATOM     13  C   UNL     1      -5.378   2.681   1.966  0.00  0.00    +0.019 A 
ATOM     14  C   UNL     1      -6.245   3.745   1.646  0.00  0.00    +0.019 A 
ATOM     15  C   UNL     1      -7.021   3.339   0.620  0.00  0.00    +0.092 A 
ENDBRANCH   7  11
BRANCH   1  17
ATOM     16  C   UNL     1     -11.039  -2.632  -4.753  0.00  0.00    -0.017 C 
ATOM     17  C   UNL     1      -9.869  -1.979  -5.492  0.00  0.00    -0.082 C 
ENDBRANCH   1  17
BRANCH   8  18
ATOM     18  C   UNL     1      -5.649  -0.618  -0.610  0.00  0.00    +0.104 C 
ATOM     19  C   UNL     1      -6.000  -1.168   0.774  0.00  0.00    +0.033 C 
BRANCH  18  20
ATOM     20  N   UNL     1      -4.546   0.339  -0.490  0.00  0.00    -0.292 N 
ATOM     21  C   UNL     1      -3.296  -0.101  -0.242  0.00  0.00    +0.304 C 
ATOM     22  O   UNL     1      -3.084  -1.292  -0.119  0.00  0.00    -0.252 OA
ATOM     23  N   UNL     1      -2.281   0.779  -0.132  0.00  0.00    -0.266 N 
ATOM     24  H   UNL     1      -4.738   1.416  -0.602  0.00  0.00    +0.151 HD
ATOM     25  H   UNL     1      -2.489   1.859  -0.129  0.00  0.00    +0.156 HD
BRANCH  23  26
ATOM     26  C   UNL     1      -0.963   0.318  -0.021  0.00  0.00    +0.077 A 
ATOM     27  C   UNL     1      -0.642  -0.974  -0.413  0.00  0.00    +0.027 A 
ATOM     28  C   UNL     1       0.659  -1.426  -0.303  0.00  0.00    +0.002 A 
ATOM     29  C   UNL     1       1.644  -0.594   0.197  0.00  0.00    +0.004 A 
ATOM     30  C   UNL     1       1.333   0.696   0.584  0.00  0.00    +0.047 A 
ATOM     31  C   UNL     1       0.030   1.155   0.483  0.00  0.00    +0.142 A 
BRANCH  31  32
ATOM     32  O   UNL     1      -0.278   2.422   0.868  0.00  0.00    -0.490 OA
BRANCH  32  33
ATOM     33  C   UNL     1       0.790   3.225   1.375  0.00  0.00    +0.226 C 
ATOM     34  C   UNL     1       0.255   4.607   1.754  0.00  0.00    +0.048 C 
ENDBRANCH  32  33
ENDBRANCH  31  32
ENDBRANCH  23  26
ENDBRANCH  18  20
ENDBRANCH   8  18
TORSDOF 7
