REMARK  Name = ZINC09130570
REMARK  7 active torsions:
REMARK  status: ('A' for Active; 'I' for Inactive)
REMARK    1  A    between atoms: C_5  and  O_7
REMARK    2  A    between atoms: O_7  and  C_8
REMARK    3  A    between atoms: C_13  and  C_14
REMARK    4  A    between atoms: C_17  and  O_21
REMARK    5  A    between atoms: C_19  and  O_20
REMARK    6  A    between atoms: O_21  and  C_22
REMARK    7  A    between atoms: C_22  and  C_23
REMARK                            x       y       z     vdW  Elec       q    Type
REMARK                         _______ _______ _______ _____ _____    ______ ____
ROOT
ATOM      1  C   UNL     1       0.951  -5.081   0.213  0.00  0.00    +0.045 A 
ATOM      2  C   UNL     1       1.052  -6.006  -0.827  0.00  0.00    +0.017 A 
ATOM      3  C   UNL     1       2.052  -6.954  -0.811  0.00  0.00    +0.046 A 
ATOM      4  C   UNL     1       2.962  -6.992   0.238  0.00  0.00    +0.124 A 
ATOM      5  C   UNL     1       2.870  -6.077   1.276  0.00  0.00    +0.091 A 
ATOM      6  C   UNL     1       1.873  -5.117   1.267  0.00  0.00    +0.130 A 
ENDROOT
BRANCH   1  12
ATOM      7  C   UNL     1       0.048  -2.697   0.091  0.00  0.00    +0.173 A 
ATOM      8  C   UNL     1      -1.222  -2.112   0.113  0.00  0.00    +0.181 A 
ATOM      9  N   UNL     1      -2.118  -3.059   0.233  0.00  0.00    -0.178 NA
ATOM     10  N   UNL     1      -1.463  -4.295   0.293  0.00  0.00    -0.273 N 
ATOM     11  H   UNL     1      -1.888  -5.163   0.381  0.00  0.00    +0.189 HD
ATOM     12  C   UNL     1      -0.120  -4.062   0.199  0.00  0.00    +0.111 A 
BRANCH   7  13
ATOM     13  O   UNL     1       1.235  -2.039  -0.022  0.00  0.00    -0.451 OA
BRANCH  13  18
ATOM     14  C   UNL     1       1.159   1.378  -1.269  0.00  0.00    +0.004 A 
ATOM     15  C   UNL     1       1.166   2.086  -0.081  0.00  0.00    +0.001 A 
ATOM     16  C   UNL     1       1.196   1.414   1.127  0.00  0.00    +0.019 A 
ATOM     17  C   UNL     1       1.219   0.032   1.150  0.00  0.00    +0.060 A 
ATOM     18  C   UNL     1       1.212  -0.680  -0.041  0.00  0.00    +0.142 A 
ATOM     19  C   UNL     1       1.182  -0.003  -1.252  0.00  0.00    +0.047 A 
ATOM     20 BR   UNL     1       1.261  -0.886   2.802  0.00  0.00    -0.046 Br
ENDBRANCH  13  18
ENDBRANCH   7  13
ENDBRANCH   1  12
BRANCH   6  21
ATOM     21  O   UNL     1       1.784  -4.216   2.280  0.00  0.00    -0.506 OA
ATOM     22  H   UNL     1       1.230  -4.506   3.017  0.00  0.00    +0.292 HD
ENDBRANCH   6  21
BRANCH   4  23
ATOM     23  O   UNL     1       3.945  -7.931   0.248  0.00  0.00    -0.487 OA
BRANCH  23  24
ATOM     24  C   UNL     1       3.982  -8.843  -0.851  0.00  0.00    +0.264 C 
BRANCH  24  25
ATOM     25  C   UNL     1       5.130  -9.802  -0.669  0.00  0.00    -0.010 A 
ATOM     26  C   UNL     1       6.377  -9.491  -1.178  0.00  0.00    +0.010 A 
ATOM     27  C   UNL     1       7.431 -10.370  -1.011  0.00  0.00    +0.039 A 
ATOM     28  C   UNL     1       7.237 -11.562  -0.335  0.00  0.00    +0.123 A 
ATOM     29  C   UNL     1       5.987 -11.873   0.174  0.00  0.00    +0.039 A 
ATOM     30  C   UNL     1       4.936 -10.990   0.011  0.00  0.00    +0.010 A 
ATOM     31  F   UNL     1       8.266 -12.422  -0.172  0.00  0.00    -0.205 F 
ENDBRANCH  24  25
ENDBRANCH  23  24
ENDBRANCH   4  23
TORSDOF 7
