REMARK  Name = ZINC35372965
REMARK  5 active torsions:
REMARK  status: ('A' for Active; 'I' for Inactive)
REMARK    1  A    between atoms: C_1  and  C_2
REMARK    2  A    between atoms: C_3  and  C_29
REMARK    3  A    between atoms: C_5  and  C_28
REMARK    4  A    between atoms: C_7  and  N_8
REMARK    5  A    between atoms: N_17  and  C_18
REMARK                            x       y       z     vdW  Elec       q    Type
REMARK                         _______ _______ _______ _____ _____    ______ ____
ROOT
ATOM      1  N   UNL     1       0.028   0.105   2.309  0.00  0.00    -0.313 N 
ATOM      2  C   UNL     1       0.230  -0.597   3.585  0.00  0.00    +0.108 C 
ATOM      3  C   UNL     1       1.186   0.147   4.521  0.00  0.00    +0.038 C 
ATOM      4  C   UNL     1       2.357   0.710   3.740  0.00  0.00    +0.111 C 
ATOM      5  N   UNL     1       1.968   2.022   3.223  0.00  0.00    -0.284 N 
ATOM      6  C   UNL     1       1.210   2.229   2.039  0.00  0.00    +0.128 C 
ATOM      7  C   UNL     1      -0.167   1.542   2.212  0.00  0.00    +0.125 C 
ATOM      8  C   UNL     1       2.354   3.110   3.918  0.00  0.00    +0.303 C 
ATOM      9  O   UNL     1       1.982   4.215   3.574  0.00  0.00    -0.253 OA
ATOM     10  N   UNL     1       3.153   2.973   4.995  0.00  0.00    -0.294 N 
ATOM     11  H   UNL     1       3.388   2.088   5.315  0.00  0.00    +0.151 HD
ENDROOT
BRANCH   1  18
ATOM     12  C   UNL     1      -2.492  -0.773   1.240  0.00  0.00    +0.049 C 
ATOM     13  C   UNL     1      -1.171  -1.087   0.584  0.00  0.00    +0.008 A 
ATOM     14  C   UNL     1      -1.119  -1.821  -0.585  0.00  0.00    +0.020 A 
ATOM     15  N   UNL     1       0.060  -2.079  -1.133  0.00  0.00    -0.347 N 
ATOM     16  C   UNL     1       1.176  -1.647  -0.581  0.00  0.00    +0.106 A 
ATOM     17  N   UNL     1       1.172  -0.944   0.534  0.00  0.00    -0.219 NA
ATOM     18  C   UNL     1       0.028  -0.639   1.140  0.00  0.00    +0.128 A 
ATOM     19  C   UNL     1       2.492  -1.965  -1.241  0.00  0.00    +0.086 C 
ATOM     20  C   UNL     1      -2.386  -2.323  -1.228  0.00  0.00    +0.064 C 
ATOM     21  H   UNL     1       0.102  -2.594  -1.954  0.00  0.00    +0.167 HD
ENDBRANCH   1  18
BRANCH  10  22
ATOM     22  C   UNL     1       3.665   4.160   5.684  0.00  0.00    +0.037 C 
ATOM     23  C   UNL     1       4.499   4.994   4.709  0.00  0.00    +0.029 C 
ATOM     24  C   UNL     1       5.034   6.235   5.427  0.00  0.00    -0.008 C 
ATOM     25  C   UNL     1       5.908   5.803   6.607  0.00  0.00    +0.007 C 
ATOM     26  C   UNL     1       5.074   4.969   7.581  0.00  0.00    -0.008 C 
ATOM     27  C   UNL     1       4.539   3.729   6.863  0.00  0.00    +0.029 C 
ATOM     28  C   UNL     1       3.901   5.807   8.095  0.00  0.00    +0.007 C 
ATOM     29  C   UNL     1       3.027   6.238   6.916  0.00  0.00    -0.008 C 
ATOM     30  C   UNL     1       3.861   7.072   5.941  0.00  0.00    +0.007 C 
ATOM     31  C   UNL     1       2.492   4.998   6.197  0.00  0.00    +0.029 C 
ENDBRANCH  10  22
TORSDOF 2
