REMARK  Name = ZINC03878230
REMARK  9 active torsions:
REMARK  status: ('A' for Active; 'I' for Inactive)
REMARK    1  A    between atoms: C_10  and  C_11
REMARK    2  A    between atoms: C_11  and  C_12
REMARK    3  A    between atoms: N_14  and  C_15
REMARK    4  A    between atoms: C_15  and  C_17
REMARK    5  A    between atoms: C_15  and  N_21
REMARK    6  A    between atoms: N_21  and  C_22
REMARK    7  A    between atoms: C_22  and  N_24
REMARK    8  A    between atoms: N_24  and  C_25
REMARK    9  A    between atoms: C_30  and  N_31
REMARK                            x       y       z     vdW  Elec       q    Type
REMARK                         _______ _______ _______ _____ _____    ______ ____
ROOT
ATOM      1  C   UNL     1      -2.981   5.066  -0.483  0.00  0.00    +0.211 C 
ENDROOT
BRANCH   1   4
ATOM      2  C   UNL     1      -2.533   6.253   1.597  0.00  0.00    +0.219 C 
ATOM      3  O   UNL     1      -1.397   6.434   1.215  0.00  0.00    -0.275 OA
ATOM      4  N   UNL     1      -3.406   5.580   0.821  0.00  0.00    -0.293 N 
ATOM      5  H   UNL     1      -4.315   5.435   1.127  0.00  0.00    +0.151 HD
BRANCH   2   6
ATOM      6  C   UNL     1      -2.971   6.782   2.939  0.00  0.00    +0.131 C 
BRANCH   6  16
ATOM      7  C   UNL     1      -0.996  11.501   2.760  0.00  0.00    +0.001 A 
ATOM      8  C   UNL     1      -2.068  10.862   2.139  0.00  0.00    +0.001 A 
ATOM      9  C   UNL     1      -2.351   9.556   2.398  0.00  0.00    +0.009 A 
ATOM     10  C   UNL     1      -1.551   8.837   3.303  0.00  0.00    -0.014 A 
ATOM     11  C   UNL     1      -0.464   9.488   3.938  0.00  0.00    -0.018 A 
ATOM     12  C   UNL     1      -0.203  10.838   3.645  0.00  0.00    +0.008 A 
ATOM     13  C   UNL     1       0.333   8.771   4.846  0.00  0.00    +0.008 A 
ATOM     14  C   UNL     1       0.049   7.465   5.106  0.00  0.00    +0.001 A 
ATOM     15  C   UNL     1      -1.023   6.827   4.485  0.00  0.00    +0.005 A 
ATOM     16  C   UNL     1      -1.817   7.490   3.600  0.00  0.00    -0.031 A 
ENDBRANCH   6  16
ENDBRANCH   2   6
ENDBRANCH   1   4
BRANCH   1  17
ATOM     17  C   UNL     1      -4.052   5.380  -1.529  0.00  0.00    +0.225 C 
ATOM     18 CL   UNL     1      -5.605   4.598  -1.052  0.00  0.00    -0.080 Cl
ATOM     19 CL   UNL     1      -4.286   7.165  -1.633  0.00  0.00    -0.080 Cl
ATOM     20 CL   UNL     1      -3.529   4.748  -3.135  0.00  0.00    -0.080 Cl
ENDBRANCH   1  17
BRANCH   1  21
ATOM     21  N   UNL     1      -2.791   3.616  -0.399  0.00  0.00    -0.305 N 
ATOM     22  H   UNL     1      -3.561   3.027  -0.370  0.00  0.00    +0.150 HD
BRANCH  21  23
ATOM     23  C   UNL     1      -1.546   3.100  -0.363  0.00  0.00    +0.136 C 
ATOM     24  S   UNL     1      -0.187   4.139  -0.415  0.00  0.00    -0.019 S 
BRANCH  23  25
ATOM     25  N   UNL     1      -1.372   1.766  -0.285  0.00  0.00    -0.295 N 
ATOM     26  H   UNL     1      -2.139   1.173  -0.321  0.00  0.00    +0.154 HD
BRANCH  25  27
ATOM     27  C   UNL     1      -0.084   1.235  -0.153  0.00  0.00    +0.063 A 
ATOM     28  C   UNL     1       0.936   1.668  -0.990  0.00  0.00    +0.025 A 
ATOM     29  C   UNL     1       2.205   1.138  -0.862  0.00  0.00    +0.002 A 
ATOM     30  C   UNL     1       2.460   0.178   0.100  0.00  0.00    +0.002 A 
ATOM     31  C   UNL     1       1.447  -0.255   0.935  0.00  0.00    +0.034 A 
ATOM     32  C   UNL     1       0.175   0.271   0.811  0.00  0.00    +0.147 A 
BRANCH  32  33
ATOM     33  N   UNL     1      -0.909  -0.194   1.705  0.00  0.00    +0.058 N 
ATOM     34  O   UNL     1      -0.708  -1.111   2.481  0.00  0.00    -0.126 OA
ATOM     35  O   UNL     1      -2.002   0.342   1.665  0.00  0.00    -0.126 OA
ENDBRANCH  32  33
ENDBRANCH  25  27
ENDBRANCH  23  25
ENDBRANCH  21  23
ENDBRANCH   1  21
TORSDOF 9
