REMARK  Name = ZINC37359381
REMARK  7 active torsions:
REMARK  status: ('A' for Active; 'I' for Inactive)
REMARK    1  A    between atoms: C_1  and  C_2
REMARK    2  A    between atoms: C_2  and  C_3
REMARK    3  A    between atoms: C_2  and  C_4
REMARK    4  A    between atoms: C_4  and  N_5
REMARK    5  A    between atoms: C_8  and  C_23
REMARK    6  A    between atoms: C_10  and  N_22
REMARK    7  A    between atoms: N_11  and  C_15
REMARK                            x       y       z     vdW  Elec       q    Type
REMARK                         _______ _______ _______ _____ _____    ______ ____
ROOT
ATOM      1  N   UNL     1       0.170   0.160   2.433  0.00  0.00    -0.313 N 
ATOM      2  C   UNL     1       0.476  -0.416   3.653  0.00  0.00    +0.218 A 
ATOM      3  N   UNL     1      -0.280  -0.105   4.702  0.00  0.00    -0.214 NA
ATOM      4  C   UNL     1      -0.057  -0.612   5.908  0.00  0.00    +0.091 A 
ATOM      5  C   UNL     1       1.024  -1.508   6.068  0.00  0.00    +0.086 A 
ATOM      6  C   UNL     1       1.571  -2.229   7.122  0.00  0.00    +0.131 A 
ATOM      7  N   UNL     1       2.620  -2.923   6.637  0.00  0.00    -0.216 N 
ATOM      8  N   UNL     1       2.769  -2.667   5.270  0.00  0.00    -0.144 NA
ATOM      9  C   UNL     1       1.837  -1.825   4.880  0.00  0.00    +0.189 A 
ATOM     10  N   UNL     1       1.498  -1.245   3.712  0.00  0.00    -0.193 NA
ATOM     11  H   UNL     1      -0.577   0.774   2.360  0.00  0.00    +0.149 HD
ENDROOT
BRANCH   7  12
ATOM     12  C   UNL     1       3.438  -3.774   7.390  0.00  0.00    +0.070 A 
ATOM     13  C   UNL     1       3.726  -3.470   8.715  0.00  0.00    +0.028 A 
ATOM     14  C   UNL     1       4.533  -4.310   9.456  0.00  0.00    +0.005 A 
ATOM     15  C   UNL     1       5.056  -5.454   8.881  0.00  0.00    +0.038 A 
ATOM     16  C   UNL     1       4.772  -5.760   7.561  0.00  0.00    +0.125 A 
ATOM     17  C   UNL     1       3.959  -4.925   6.816  0.00  0.00    +0.066 A 
ATOM     18  F   UNL     1       5.285  -6.878   7.002  0.00  0.00    -0.205 F 
ENDBRANCH   7  12
BRANCH   4  19
ATOM     19  C   UNL     1      -0.917  -0.247   7.055  0.00  0.00    +0.036 A 
ATOM     20  C   UNL     1      -0.355   0.324   8.198  0.00  0.00    +0.013 A 
ATOM     21  C   UNL     1      -1.162   0.663   9.264  0.00  0.00    +0.001 A 
ATOM     22  C   UNL     1      -2.526   0.438   9.204  0.00  0.00    +0.003 A 
ATOM     23  C   UNL     1      -3.091  -0.127   8.076  0.00  0.00    +0.039 A 
ATOM     24  C   UNL     1      -2.295  -0.466   6.997  0.00  0.00    +0.133 A 
ATOM     25  F   UNL     1      -2.849  -1.014   5.893  0.00  0.00    -0.205 F 
ENDBRANCH   4  19
BRANCH   6  26
ATOM     26  N   UNL     1       1.123  -2.232   8.430  0.00  0.00    -0.342 N 
ATOM     27  H   UNL     1       0.364  -1.685   8.683  0.00  0.00    +0.144 HD
ATOM     28  H   UNL     1       1.569  -2.781   9.094  0.00  0.00    +0.144 HD
ENDBRANCH   6  26
BRANCH   1  29
ATOM     29  C   UNL     1       0.975  -0.159   1.251  0.00  0.00    +0.107 C 
BRANCH  29  31
ATOM     30  C   UNL     1       0.612   2.107   0.263  0.00  0.00    +0.009 C 
ATOM     31  C   UNL     1       0.429   0.604   0.042  0.00  0.00    -0.000 C 
ATOM     32  C   UNL     1       1.188   0.177  -1.216  0.00  0.00    +0.009 C 
ENDBRANCH  29  31
ENDBRANCH   1  29
TORSDOF 5
