REMARK  Name = ZINC04504250
REMARK  6 active torsions:
REMARK  status: ('A' for Active; 'I' for Inactive)
REMARK    1  A    between atoms: C_1  and  C_2
REMARK    2  A    between atoms: C_5  and  N_9
REMARK    3  A    between atoms: C_6  and  C_8
REMARK    4  A    between atoms: C_10  and  C_12
REMARK    5  A    between atoms: C_12  and  S_13
REMARK    6  A    between atoms: S_13  and  C_14
REMARK                            x       y       z     vdW  Elec       q    Type
REMARK                         _______ _______ _______ _____ _____    ______ ____
ROOT
ATOM      1  C   UNL     1       7.364   0.822  -0.084  0.00  0.00    +0.173 C 
ENDROOT
BRANCH   1   3
ATOM      2  N   UNL     1       9.813   0.477  -0.097  0.00  0.00    -0.285 N 
ATOM      3  C   UNL     1       8.779   1.341  -0.085  0.00  0.00    +0.227 C 
ATOM      4  O   UNL     1       8.987   2.536  -0.074  0.00  0.00    -0.275 OA
ATOM      5  H   UNL     1       9.649  -0.476  -0.024  0.00  0.00    +0.155 HD
BRANCH   2  10
ATOM      6  C   UNL     1      15.123   2.416  -0.572  0.00  0.00    +0.044 C 
ATOM      7  C   UNL     1      13.713   1.901  -0.445  0.00  0.00    -0.050 A 
ATOM      8  C   UNL     1      12.658   2.652  -0.930  0.00  0.00    +0.005 A 
ATOM      9  C   UNL     1      11.364   2.183  -0.816  0.00  0.00    +0.024 A 
ATOM     10  C   UNL     1      11.123   0.955  -0.214  0.00  0.00    +0.036 A 
ATOM     11  C   UNL     1      12.184   0.206   0.277  0.00  0.00    -0.029 A 
ATOM     12  C   UNL     1      13.476   0.678   0.155  0.00  0.00    +0.008 A 
ATOM     13  C   UNL     1      11.926  -1.124   0.938  0.00  0.00    +0.045 C 
ENDBRANCH   2  10
ENDBRANCH   1   3
BRANCH   1  14
ATOM     14  S   UNL     1       6.210   2.217  -0.067  0.00  0.00    -0.076 S 
BRANCH  14  15
ATOM     15  C   UNL     1       4.678   1.347  -0.069  0.00  0.00    +0.195 A 
ATOM     16  N   UNL     1       3.535   2.027  -0.058  0.00  0.00    -0.204 NA
ATOM     17  C   UNL     1       2.371   1.376  -0.061  0.00  0.00    +0.144 A 
ATOM     18  C   UNL     1       1.160   2.086  -0.049  0.00  0.00    +0.048 A 
ATOM     19  C   UNL     1      -0.018   1.397  -0.053  0.00  0.00    +0.025 A 
ATOM     20  C   UNL     1       0.002  -0.006  -0.067  0.00  0.00    +0.058 A 
ATOM     21  C   UNL     1       1.180  -0.671  -0.077  0.00  0.00    +0.117 A 
ATOM     22  N   UNL     1       2.360   0.008  -0.074  0.00  0.00    -0.250 N 
ATOM     23  C   UNL     1       3.531  -0.661  -0.085  0.00  0.00    +0.356 A 
ATOM     24  O   UNL     1       3.540  -1.881  -0.096  0.00  0.00    -0.244 OA
ATOM     25  N   UNL     1       4.677   0.015  -0.082  0.00  0.00    -0.167 NA
ATOM     26 CL   UNL     1      -1.492  -0.891  -0.071  0.00  0.00    -0.082 Cl
ENDBRANCH  14  15
ENDBRANCH   1  14
TORSDOF 4
