REMARK  Name = ZINC39674627
REMARK  11 active torsions:
REMARK  status: ('A' for Active; 'I' for Inactive)
REMARK    1  A    between atoms: C_1  and  C_2
REMARK    2  A    between atoms: C_4  and  C_14
REMARK    3  A    between atoms: C_7  and  C_12
REMARK    4  A    between atoms: C_14  and  C_15
REMARK    5  A    between atoms: C_15  and  N_16
REMARK    6  A    between atoms: C_17  and  C_19
REMARK    7  A    between atoms: C_30  and  C_32
REMARK    8  A    between atoms: C_34  and  O_40
REMARK    9  A    between atoms: C_36  and  O_38
REMARK   10  A    between atoms: O_38  and  C_39
REMARK   11  A    between atoms: O_40  and  C_41
REMARK                            x       y       z     vdW  Elec       q    Type
REMARK                         _______ _______ _______ _____ _____    ______ ____
ROOT
ATOM      1  C   UNL     1       1.002  -0.780  -7.939  0.00  0.00    +0.100 C 
ATOM      2  C   UNL     1       1.153   0.758  -7.938  0.00  0.00    +0.121 C 
ATOM      3  N   UNL     1       2.523   0.999  -8.448  0.00  0.00    -0.296 N 
ATOM      4  C   UNL     1       2.697  -0.004  -9.525  0.00  0.00    +0.115 C 
ATOM      5  C   UNL     1       2.014  -1.276  -8.984  0.00  0.00    -0.004 C 
ATOM      6  C   UNL     1       1.294  -2.009 -10.112  0.00  0.00    -0.010 C 
ATOM      7  C   UNL     1       2.326  -2.544 -11.109  0.00  0.00    -0.082 C 
ATOM      8  N   UNL     1       3.250  -3.452 -10.420  0.00  0.00    +0.379 N 
ATOM      9  C   UNL     1       4.007  -2.717  -9.399  0.00  0.00    -0.082 C 
ATOM     10  C   UNL     1       3.046  -2.190  -8.329  0.00  0.00    -0.010 C 
ATOM     11  C   UNL     1       3.410   1.923  -8.029  0.00  0.00    +0.247 C 
ATOM     12  O   UNL     1       3.167   2.597  -7.046  0.00  0.00    -0.270 OA
ATOM     13  H   UNL     1       2.726  -4.193  -9.979  0.00  0.00    -0.086 HD
ATOM     14  H   UNL     1       3.891  -3.850 -11.090  0.00  0.00    -0.086 HD
ENDROOT
BRANCH  11  15
ATOM     15  C   UNL     1       4.678   2.118  -8.763  0.00  0.00    +0.044 A 
ATOM     16  C   UNL     1       4.790   1.699 -10.089  0.00  0.00    +0.059 A 
ATOM     17  C   UNL     1       5.980   1.884 -10.774  0.00  0.00    +0.124 A 
ATOM     18  C   UNL     1       7.059   2.484 -10.143  0.00  0.00    +0.091 A 
ATOM     19  C   UNL     1       6.953   2.902  -8.824  0.00  0.00    +0.124 A 
ATOM     20  C   UNL     1       5.765   2.726  -8.134  0.00  0.00    +0.059 A 
BRANCH  19  21
ATOM     21  O   UNL     1       8.014   3.490  -8.211  0.00  0.00    -0.495 OA
ATOM     22  C   UNL     1       9.206   3.644  -8.983  0.00  0.00    +0.277 C 
ENDBRANCH  19  21
BRANCH  17  23
ATOM     23  O   UNL     1       6.090   1.476 -12.066  0.00  0.00    -0.495 OA
ATOM     24  C   UNL     1       7.345   1.698 -12.712  0.00  0.00    +0.277 C 
ENDBRANCH  17  23
ENDBRANCH  11  15
BRANCH   1  26
ATOM     25  N   UNL     1       0.835  -2.534  -6.203  0.00  0.00    -0.315 N 
ATOM     26  C   UNL     1       1.334  -1.341  -6.580  0.00  0.00    +0.218 C 
ATOM     27  O   UNL     1       2.050  -0.717  -5.825  0.00  0.00    -0.275 OA
ATOM     28  H   UNL     1       0.262  -3.033  -6.806  0.00  0.00    +0.149 HD
BRANCH  25  29
ATOM     29  C   UNL     1       1.157  -3.079  -4.881  0.00  0.00    +0.108 C 
BRANCH  29  30
ATOM     30  C   UNL     1       0.469  -4.434  -4.707  0.00  0.00    +0.052 C 
BRANCH  30  33
ATOM     31  C   UNL     1      -1.195  -6.326  -2.669  0.00  0.00    +0.035 C 
ATOM     32  C   UNL     1       0.331  -6.309  -2.767  0.00  0.00    +0.103 C 
ATOM     33  C   UNL     1       0.801  -4.995  -3.348  0.00  0.00    -0.037 C 
ATOM     34  C   UNL     1       1.583  -4.422  -2.397  0.00  0.00    +0.000 A 
ATOM     35  C   UNL     1       2.295  -3.194  -2.370  0.00  0.00    +0.028 A 
ATOM     36  C   UNL     1       3.026  -2.844  -1.259  0.00  0.00    +0.052 A 
ATOM     37  C   UNL     1       3.090  -3.715  -0.090  0.00  0.00    +0.021 A 
ATOM     38  C   UNL     1       2.433  -4.893  -0.058  0.00  0.00    +0.027 A 
ATOM     39  C   UNL     1       1.639  -5.314  -1.218  0.00  0.00    +0.043 A 
ATOM     40  N   UNL     1       0.925  -6.394  -1.428  0.00  0.00    -0.378 N 
ATOM     41  H   UNL     1       0.808  -7.127  -0.803  0.00  0.00    +0.160 HD
BRANCH  36  42
ATOM     42  C   UNL     1       3.739  -1.602  -1.249  0.00  0.00    +0.099 C 
ATOM     43  N   UNL     1       4.304  -0.617  -1.242  0.00  0.00    -0.191 NA
ENDBRANCH  36  42
ENDBRANCH  30  33
ENDBRANCH  29  30
ENDBRANCH  25  29
ENDBRANCH   1  26
TORSDOF 8
