REMARK  Name = ZINC16427916
REMARK  6 active torsions:
REMARK  status: ('A' for Active; 'I' for Inactive)
REMARK    1  A    between atoms: C_6  and  N_7
REMARK    2  A    between atoms: N_7  and  N_8
REMARK    3  A    between atoms: C_13  and  C_15
REMARK    4  A    between atoms: C_15  and  C_25
REMARK    5  A    between atoms: N_16  and  N_17
REMARK    6  A    between atoms: N_17  and  C_18
REMARK                            x       y       z     vdW  Elec       q    Type
REMARK                         _______ _______ _______ _____ _____    ______ ____
ROOT
ATOM      1  N   UNL     1      -1.175  -2.120   0.002  0.00  0.00    -0.170 NA
ATOM      2  C   UNL     1      -2.299  -2.792   0.010  0.00  0.00    +0.184 C 
ATOM      3  C   UNL     1      -2.530  -4.255   0.010  0.00  0.00    +0.295 C 
ATOM      4  O   UNL     1      -1.605  -5.052   0.004  0.00  0.00    -0.266 OA
ATOM      5  N   UNL     1      -3.783  -4.648   0.019  0.00  0.00    -0.165 NA
ATOM      6  C   UNL     1      -4.797  -3.792   0.027  0.00  0.00    +0.134 C 
ATOM      7  S   UNL     1      -3.987  -2.200   0.030  0.00  0.00    -0.043 S 
ENDROOT
BRANCH   1   8
ATOM      8  N   UNL     1      -1.196  -0.720   0.010  0.00  0.00    -0.237 N 
ATOM      9  H   UNL     1      -2.043  -0.247   0.021  0.00  0.00    +0.174 HD
BRANCH   8  15
ATOM     10  C   UNL     1      -0.017   1.386   0.010  0.00  0.00    +0.026 A 
ATOM     11  C   UNL     1       1.170   2.091   0.002  0.00  0.00    +0.017 A 
ATOM     12  C   UNL     1       2.378   1.415  -0.013  0.00  0.00    +0.018 A 
ATOM     13  C   UNL     1       2.400   0.032  -0.022  0.00  0.00    +0.017 A 
ATOM     14  C   UNL     1       1.217  -0.679  -0.014  0.00  0.00    +0.026 A 
ATOM     15  C   UNL     1       0.002  -0.004   0.002  0.00  0.00    +0.048 A 
ATOM     16 BR   UNL     1       4.001   2.385  -0.024  0.00  0.00    -0.050 Br
ENDBRANCH   8  15
ENDBRANCH   1   8
BRANCH   6  17
ATOM     17  C   UNL     1      -6.237  -4.083   0.036  0.00  0.00    +0.188 C 
ATOM     18  N   UNL     1      -7.109  -3.096   0.043  0.00  0.00    -0.169 NA
BRANCH  18  19
ATOM     19  N   UNL     1      -8.373  -3.352   0.051  0.00  0.00    -0.237 N 
ATOM     20  H   UNL     1      -8.682  -4.271   0.053  0.00  0.00    +0.174 HD
BRANCH  19  21
ATOM     21  C   UNL     1      -9.296  -2.305   0.059  0.00  0.00    +0.048 A 
ATOM     22  C   UNL     1      -8.855  -0.987   0.051  0.00  0.00    +0.026 A 
ATOM     23  C   UNL     1      -9.771   0.045   0.057  0.00  0.00    +0.017 A 
ATOM     24  C   UNL     1     -11.127  -0.230   0.071  0.00  0.00    +0.018 A 
ATOM     25  C   UNL     1     -11.570  -1.542   0.079  0.00  0.00    +0.017 A 
ATOM     26  C   UNL     1     -10.659  -2.579   0.067  0.00  0.00    +0.026 A 
ATOM     27 BR   UNL     1     -12.378   1.188   0.081  0.00  0.00    -0.050 Br
ENDBRANCH  19  21
ENDBRANCH  18  19
BRANCH  17  28
ATOM     28  C   UNL     1      -6.693  -5.441   0.038  0.00  0.00    +0.123 C 
ATOM     29  N   UNL     1      -7.055  -6.518   0.040  0.00  0.00    -0.189 NA
ENDBRANCH  17  28
ENDBRANCH   6  17
TORSDOF 6
