REMARK  Name = ZINC12540241
REMARK  16 active torsions:
REMARK  status: ('A' for Active; 'I' for Inactive)
REMARK    1  A    between atoms: C_1  and  C_2
REMARK    2  A    between atoms: C_7  and  O_8
REMARK    3  A    between atoms: O_8  and  C_9
REMARK    4  A    between atoms: C_9  and  C_10
REMARK    5  A    between atoms: C_10  and  C_12
REMARK    6  A    between atoms: C_10  and  O_34
REMARK    7  A    between atoms: C_12  and  N_13
REMARK    8  A    between atoms: N_13  and  C_14
REMARK    9  A    between atoms: C_17  and  N_20
REMARK   10  A    between atoms: N_20  and  C_21
REMARK   11  A    between atoms: C_21  and  C_22
REMARK   12  A    between atoms: C_22  and  C_24
REMARK   13  A    between atoms: C_22  and  O_33
REMARK   14  A    between atoms: C_24  and  O_25
REMARK   15  A    between atoms: O_25  and  C_26
REMARK   16  A    between atoms: C_31  and  C_32
REMARK                            x       y       z     vdW  Elec       q    Type
REMARK                         _______ _______ _______ _____ _____    ______ ____
ROOT
ATOM      1  C   UNL     1       0.339  -0.648   8.459  0.00  0.00    -0.072 C 
ATOM      2  C   UNL     1      -0.890  -1.542   8.629  0.00  0.00    -0.017 C 
ATOM      3  C   UNL     1      -0.741  -2.378   9.901  0.00  0.00    -0.017 C 
ATOM      4  C   UNL     1      -0.617  -1.449  11.110  0.00  0.00    -0.072 C 
ATOM      5  C   UNL     1       0.613  -0.554  10.941  0.00  0.00    -0.017 C 
ATOM      6  C   UNL     1       0.464   0.282   9.668  0.00  0.00    -0.017 C 
ENDROOT
BRANCH   1   7
ATOM      7  N   UNL     1       0.196   0.155   7.237  0.00  0.00    +0.383 N 
ATOM      8  H   UNL     1       0.966   0.803   7.168  0.00  0.00    -0.085 HD
ATOM      9  H   UNL     1      -0.673   0.667   7.271  0.00  0.00    -0.085 HD
BRANCH   7  10
ATOM     10  C   UNL     1       0.196  -0.732   6.066  0.00  0.00    -0.047 C 
BRANCH  10  11
ATOM     11  C   UNL     1       0.047   0.104   4.793  0.00  0.00    +0.135 C 
BRANCH  11  12
ATOM     12  O   UNL     1      -1.183   0.829   4.841  0.00  0.00    -0.390 OA
ATOM     13  H   UNL     1      -1.968   0.268   4.908  0.00  0.00    +0.210 HD
ENDBRANCH  11  12
BRANCH  11  14
ATOM     14  C   UNL     1       0.048  -0.820   3.574  0.00  0.00    +0.258 C 
BRANCH  14  15
ATOM     15  O   UNL     1       0.025  -0.033   2.381  0.00  0.00    -0.489 OA
BRANCH  15  22
ATOM     16  C   UNL     1      -0.018   1.503   0.010  0.00  0.00    +0.047 C 
ATOM     17  C   UNL     1       0.002  -0.004   0.002  0.00  0.00    -0.009 A 
ATOM     18  C   UNL     1       0.006  -0.689  -1.198  0.00  0.00    +0.007 A 
ATOM     19  C   UNL     1       0.024  -2.071  -1.206  0.00  0.00    +0.000 A 
ATOM     20  C   UNL     1       0.039  -2.772  -0.014  0.00  0.00    +0.004 A 
ATOM     21  C   UNL     1       0.036  -2.092   1.188  0.00  0.00    +0.046 A 
ATOM     22  C   UNL     1       0.023  -0.705   1.199  0.00  0.00    +0.124 A 
ENDBRANCH  15  22
ENDBRANCH  14  15
ENDBRANCH  11  14
ENDBRANCH  10  11
ENDBRANCH   7  10
ENDBRANCH   1   7
BRANCH   4  23
ATOM     23  N   UNL     1      -0.473  -2.252  12.332  0.00  0.00    +0.383 N 
ATOM     24  H   UNL     1      -1.243  -2.900  12.401  0.00  0.00    -0.085 HD
ATOM     25  H   UNL     1       0.396  -2.764  12.299  0.00  0.00    -0.085 HD
BRANCH  23  26
ATOM     26  C   UNL     1      -0.474  -1.365  13.504  0.00  0.00    -0.047 C 
BRANCH  26  27
ATOM     27  C   UNL     1      -0.325  -2.201  14.776  0.00  0.00    +0.135 C 
BRANCH  27  28
ATOM     28  O   UNL     1      -1.415  -3.119  14.874  0.00  0.00    -0.390 OA
ATOM     29  H   UNL     1      -2.284  -2.695  14.911  0.00  0.00    +0.210 HD
ENDBRANCH  27  28
BRANCH  27  30
ATOM     30  C   UNL     1      -0.325  -1.277  15.996  0.00  0.00    +0.258 C 
BRANCH  30  31
ATOM     31  O   UNL     1      -0.069  -2.044  17.174  0.00  0.00    -0.489 OA
BRANCH  31  32
ATOM     32  C   UNL     1      -0.036  -1.370  18.354  0.00  0.00    +0.124 A 
ATOM     33  C   UNL     1      -0.251   0.001  18.378  0.00  0.00    +0.046 A 
ATOM     34  C   UNL     1      -0.216   0.683  19.578  0.00  0.00    +0.004 A 
ATOM     35  C   UNL     1       0.031   0.002  20.755  0.00  0.00    +0.000 A 
ATOM     36  C   UNL     1       0.246  -1.364  20.735  0.00  0.00    +0.007 A 
ATOM     37  C   UNL     1       0.207  -2.052  19.537  0.00  0.00    -0.009 A 
ATOM     38  C   UNL     1       0.435  -3.542  19.516  0.00  0.00    +0.047 C 
ENDBRANCH  31  32
ENDBRANCH  30  31
ENDBRANCH  27  30
ENDBRANCH  26  27
ENDBRANCH  23  26
ENDBRANCH   4  23
TORSDOF 14
