REMARK  Name = ZINC40377371
REMARK  8 active torsions:
REMARK  status: ('A' for Active; 'I' for Inactive)
REMARK    1  A    between atoms: C_1  and  C_2
REMARK    2  A    between atoms: C_2  and  C_3
REMARK    3  A    between atoms: C_3  and  C_4
REMARK    4  A    between atoms: C_3  and  C_5
REMARK    5  A    between atoms: C_3  and  N_9
REMARK    6  A    between atoms: N_6  and  O_7
REMARK    7  A    between atoms: N_9  and  S_10
REMARK    8  A    between atoms: S_10  and  C_13
REMARK                            x       y       z     vdW  Elec       q    Type
REMARK                         _______ _______ _______ _____ _____    ______ ____
ROOT
ATOM      1  N   UNL     1       0.046  -0.279   2.397  0.00  0.00    -0.177 NA
ATOM      2  H   UNL     1       0.508   0.405   2.907  0.00  0.00    +0.149 HD
ENDROOT
BRANCH   1   3
ATOM      3  S   UNL     1      -1.467  -0.772   2.853  0.00  0.00    +0.061 S 
ATOM      4  O   UNL     1      -1.449  -2.193   2.853  0.00  0.00    -0.153 OA
ATOM      5  O   UNL     1      -1.811  -0.015   4.005  0.00  0.00    -0.153 OA
BRANCH   3   6
ATOM      6  C   UNL     1      -2.581  -0.283   1.578  0.00  0.00    +0.124 A 
ATOM      7  C   UNL     1      -3.258  -1.241   0.847  0.00  0.00    +0.031 A 
ATOM      8  C   UNL     1      -4.132  -0.858  -0.153  0.00  0.00    +0.017 A 
ATOM      9  C   UNL     1      -4.330   0.484  -0.423  0.00  0.00    +0.019 A 
ATOM     10  C   UNL     1      -3.653   1.443   0.309  0.00  0.00    +0.037 A 
ATOM     11  C   UNL     1      -2.782   1.060   1.313  0.00  0.00    +0.068 A 
ATOM     12 CL   UNL     1      -1.937   2.263   2.236  0.00  0.00    -0.081 Cl
ATOM     13 BR   UNL     1      -5.524   1.008  -1.792  0.00  0.00    -0.050 Br
ENDBRANCH   3   6
ENDBRANCH   1   3
BRANCH   1  14
ATOM     14  C   UNL     1       0.688  -0.875   1.222  0.00  0.00    +0.095 C 
ATOM     15  C   UNL     1       0.740  -2.396   1.387  0.00  0.00    +0.037 C 
BRANCH  14  16
ATOM     16  C   UNL     1       2.088  -0.336   1.087  0.00  0.00    +0.153 C 
ATOM     17  N   UNL     1       3.095  -1.146   1.088  0.00  0.00    -0.075 NA
ATOM     18  N   UNL     1       2.296   1.020   0.963  0.00  0.00    -0.342 N 
ATOM     19  H   UNL     1       1.548   1.633   1.039  0.00  0.00    +0.144 HD
ATOM     20  H   UNL     1       3.189   1.361   0.800  0.00  0.00    +0.144 HD
BRANCH  17  21
ATOM     21  O   UNL     1       4.411  -0.639   0.961  0.00  0.00    -0.408 OA
ATOM     22  H   UNL     1       5.098  -1.321   0.972  0.00  0.00    +0.328 HD
ENDBRANCH  17  21
ENDBRANCH  14  16
BRANCH  14  24
ATOM     23  C   UNL     1       0.628  -1.024  -1.271  0.00  0.00    +0.006 C 
ATOM     24  C   UNL     1      -0.117  -0.525  -0.031  0.00  0.00    +0.028 C 
ENDBRANCH  14  24
ENDBRANCH   1  14
TORSDOF 6
