REMARK  Name = ZINC63139907
REMARK  6 active torsions:
REMARK  status: ('A' for Active; 'I' for Inactive)
REMARK    1  A    between atoms: C_1  and  O_2
REMARK    2  A    between atoms: O_2  and  C_3
REMARK    3  A    between atoms: C_3  and  C_5
REMARK    4  A    between atoms: C_8  and  C_11
REMARK    5  A    between atoms: N_30  and  C_33
REMARK    6  A    between atoms: C_33  and  C_34
REMARK                            x       y       z     vdW  Elec       q    Type
REMARK                         _______ _______ _______ _____ _____    ______ ____
ROOT
ATOM      1  C   UNL     1      -1.413  -6.381  -0.019  0.00  0.00    +0.133 C 
ATOM      2  C   UNL     1      -1.573  -6.902   1.412  0.00  0.00    +0.131 C 
ATOM      3  C   UNL     1      -1.896  -8.386   1.306  0.00  0.00    -0.034 C 
ATOM      4  C   UNL     1      -0.982  -9.022   2.030  0.00  0.00    -0.001 A 
ATOM      5  C   UNL     1      -0.814 -10.445   2.365  0.00  0.00    +0.010 A 
ATOM      6  C   UNL     1       0.262 -10.757   3.135  0.00  0.00    +0.001 A 
ATOM      7  C   UNL     1       1.177  -9.807   3.599  0.00  0.00    +0.002 A 
ATOM      8  C   UNL     1       1.097  -8.476   3.344  0.00  0.00    +0.026 A 
ATOM      9  C   UNL     1       0.004  -8.025   2.547  0.00  0.00    +0.043 A 
ATOM     10  N   UNL     1      -0.326  -6.804   2.173  0.00  0.00    -0.375 N 
ATOM     11  C   UNL     1      -3.017  -8.909   0.441  0.00  0.00    +0.065 C 
ATOM     12  C   UNL     1      -2.841  -8.263  -0.945  0.00  0.00    +0.167 C 
ATOM     13  N   UNL     1      -2.587  -6.834  -0.797  0.00  0.00    -0.279 N 
ATOM     14  C   UNL     1      -3.379  -5.900  -1.337  0.00  0.00    +0.234 C 
ATOM     15  O   UNL     1      -3.095  -4.737  -1.139  0.00  0.00    -0.274 OA
ATOM     16  C   UNL     1      -4.587  -6.187  -2.166  0.00  0.00    +0.204 C 
ATOM     17  N   UNL     1      -4.812  -7.613  -2.334  0.00  0.00    -0.287 N 
ATOM     18  C   UNL     1      -4.038  -8.550  -1.789  0.00  0.00    +0.237 C 
ATOM     19  O   UNL     1      -4.322  -9.711  -1.996  0.00  0.00    -0.274 OA
ATOM     20  H   UNL     1       0.163  -5.986   2.357  0.00  0.00    +0.160 HD
ENDROOT
BRANCH   1  24
ATOM     21  C   UNL     1      -1.247  -2.108   0.003  0.00  0.00    +0.059 A 
ATOM     22  C   UNL     1      -0.531  -2.833  -0.952  0.00  0.00    +0.015 A 
ATOM     23  C   UNL     1      -0.589  -4.211  -0.954  0.00  0.00    +0.006 A 
ATOM     24  C   UNL     1      -1.354  -4.875  -0.011  0.00  0.00    -0.025 A 
ATOM     25  C   UNL     1      -2.067  -4.163   0.938  0.00  0.00    +0.006 A 
ATOM     26  C   UNL     1      -2.013  -2.785   0.954  0.00  0.00    +0.015 A 
BRANCH  21  27
ATOM     27  C   UNL     1      -1.190  -0.632   0.010  0.00  0.00    +0.339 C 
ATOM     28  O   UNL     1      -1.810  -0.004   0.845  0.00  0.00    -0.245 OA
BRANCH  27  30
ATOM     29  C   UNL     1      -0.441   1.446  -0.843  0.00  0.00    +0.280 C 
ATOM     30  O   UNL     1      -0.450   0.018  -0.909  0.00  0.00    -0.464 OA
ENDBRANCH  27  30
ENDBRANCH  21  27
ENDBRANCH   1  24
BRANCH  17  31
ATOM     31  C   UNL     1      -5.955  -8.043  -3.143  0.00  0.00    +0.143 C 
BRANCH  31  32
ATOM     32  C   UNL     1      -5.528  -8.182  -4.581  0.00  0.00    -0.030 A 
ATOM     33  C   UNL     1      -5.617  -7.100  -5.437  0.00  0.00    +0.006 A 
ATOM     34  C   UNL     1      -5.225  -7.228  -6.756  0.00  0.00    +0.020 A 
ATOM     35  C   UNL     1      -4.744  -8.439  -7.221  0.00  0.00    +0.041 A 
ATOM     36  C   UNL     1      -4.654  -9.522  -6.364  0.00  0.00    +0.020 A 
ATOM     37  C   UNL     1      -5.041  -9.391  -5.043  0.00  0.00    +0.006 A 
ATOM     38 CL   UNL     1      -4.252  -8.600  -8.878  0.00  0.00    -0.084 Cl
ENDBRANCH  31  32
ENDBRANCH  17  31
TORSDOF 5
