REMARK  Name = ZINC16902401
REMARK  7 active torsions:
REMARK  status: ('A' for Active; 'I' for Inactive)
REMARK    1  A    between atoms: C_1  and  C_2
REMARK    2  A    between atoms: C_5  and  C_22
REMARK    3  A    between atoms: C_6  and  O_8
REMARK    4  A    between atoms: O_8  and  C_9
REMARK    5  A    between atoms: C_9  and  C_10
REMARK    6  A    between atoms: C_15  and  C_21
REMARK    7  A    between atoms: C_16  and  C_20
REMARK                            x       y       z     vdW  Elec       q    Type
REMARK                         _______ _______ _______ _____ _____    ______ ____
ROOT
ATOM      1  C   UNL     1       4.755   1.448  -0.034  0.00  0.00    +0.146 A 
ATOM      2  N   UNL     1       4.715   0.088  -0.040  0.00  0.00    -0.339 N 
ATOM      3  H   UNL     1       3.892  -0.480  -0.034  0.00  0.00    +0.167 HD
ATOM      4  C   UNL     1       6.020  -0.362  -0.054  0.00  0.00    +0.067 A 
ATOM      5  C   UNL     1       6.609  -1.619  -0.066  0.00  0.00    +0.031 A 
ATOM      6  C   UNL     1       7.983  -1.728  -0.080  0.00  0.00    -0.045 A 
ATOM      7  C   UNL     1       8.779  -0.592  -0.083  0.00  0.00    -0.045 A 
ATOM      8  C   UNL     1       8.217   0.653  -0.071  0.00  0.00    +0.033 A 
ATOM      9  C   UNL     1       6.826   0.789  -0.057  0.00  0.00    +0.089 A 
ATOM     10  N   UNL     1       5.990   1.858  -0.049  0.00  0.00    -0.229 NA
ATOM     11  C   UNL     1      10.280  -0.732  -0.098  0.00  0.00    +0.044 C 
ATOM     12  C   UNL     1       8.625  -3.092  -0.092  0.00  0.00    +0.044 C 
ENDROOT
BRANCH   1  13
ATOM     13  C   UNL     1       3.546   2.348  -0.018  0.00  0.00    +0.303 C 
BRANCH  13  14
ATOM     14  O   UNL     1       2.360   1.552  -0.011  0.00  0.00    -0.484 OA
BRANCH  14  20
ATOM     15  C   UNL     1      -0.082   5.777   0.032  0.00  0.00    +0.044 C 
ATOM     16  C   UNL     1      -0.057   4.271   0.025  0.00  0.00    -0.047 A 
ATOM     17  C   UNL     1      -1.243   3.560   0.032  0.00  0.00    +0.004 A 
ATOM     18  C   UNL     1      -1.224   2.178   0.020  0.00  0.00    +0.007 A 
ATOM     19  C   UNL     1      -0.018   1.503   0.010  0.00  0.00    -0.009 A 
ATOM     20  C   UNL     1       1.173   2.213   0.003  0.00  0.00    +0.124 A 
ATOM     21  C   UNL     1       1.151   3.600   0.010  0.00  0.00    +0.049 A 
ATOM     22  C   UNL     1       0.002  -0.004   0.002  0.00  0.00    +0.047 C 
ENDBRANCH  14  20
ENDBRANCH  13  14
ENDBRANCH   1  13
TORSDOF 3
