REMARK  Name = ZINC39590229
REMARK  4 active torsions:
REMARK  status: ('A' for Active; 'I' for Inactive)
REMARK    1  A    between atoms: C_1  and  C_2
REMARK    2  A    between atoms: C_12  and  C_14
REMARK    3  A    between atoms: C_18  and  N_21
REMARK    4  A    between atoms: C_22  and  C_24
REMARK                            x       y       z     vdW  Elec       q    Type
REMARK                         _______ _______ _______ _____ _____    ______ ____
ROOT
ATOM      1  C   UNL     1       2.398  -0.827   2.829  0.00  0.00    +0.087 C 
ATOM      2  C   UNL     1       3.590  -0.532   3.387  0.00  0.00    +0.021 C 
ATOM      3  C   UNL     1       4.028  -1.153   4.703  0.00  0.00    +0.123 C 
ATOM      4  S   UNL     1       5.635  -0.295   4.990  0.00  0.00    -0.114 S 
ATOM      5  C   UNL     1       5.434   0.994   3.685  0.00  0.00    +0.219 C 
ATOM      6  N   UNL     1       4.452   0.324   2.799  0.00  0.00    -0.320 N 
ATOM      7  H   UNL     1       4.428   0.494   1.845  0.00  0.00    +0.148 HD
ENDROOT
BRANCH   1  18
ATOM      8  C   UNL     1       0.707  -2.903   1.486  0.00  0.00    +0.029 C 
ATOM      9  C   UNL     1      -0.057  -1.577   1.487  0.00  0.00    +0.083 C 
ATOM     10  C   UNL     1      -1.190  -1.613   0.449  0.00  0.00    +0.059 C 
ATOM     11  C   UNL     1      -0.855  -0.500  -0.518  0.00  0.00    -0.024 A 
ATOM     12  C   UNL     1      -1.509  -0.059  -1.653  0.00  0.00    +0.005 A 
ATOM     13  C   UNL     1      -0.995   0.996  -2.384  0.00  0.00    +0.000 A 
ATOM     14  C   UNL     1       0.176   1.609  -1.977  0.00  0.00    +0.002 A 
ATOM     15  C   UNL     1       0.832   1.172  -0.846  0.00  0.00    +0.024 A 
ATOM     16  C   UNL     1       0.319   0.107  -0.102  0.00  0.00    +0.040 A 
ATOM     17  N   UNL     1       0.822  -0.484   1.063  0.00  0.00    -0.265 N 
ATOM     18  C   UNL     1       1.947  -0.104   1.700  0.00  0.00    +0.245 C 
ATOM     19  O   UNL     1       2.575   0.861   1.305  0.00  0.00    -0.270 OA
ENDBRANCH   1  18
BRANCH   5  20
ATOM     20  N   UNL     1       4.892   2.235   4.244  0.00  0.00    -0.284 N 
ATOM     21  C   UNL     1       5.690   3.060   4.951  0.00  0.00    +0.251 C 
ATOM     22  O   UNL     1       6.879   2.824   5.044  0.00  0.00    -0.270 OA
ATOM     23  H   UNL     1       3.959   2.463   4.106  0.00  0.00    +0.152 HD
BRANCH  21  24
ATOM     24  C   UNL     1       5.122   4.245   5.611  0.00  0.00    +0.101 A 
ATOM     25  C   UNL     1       5.951   5.179   6.227  0.00  0.00    +0.020 A 
ATOM     26  C   UNL     1       5.376   6.291   6.843  0.00  0.00    +0.018 A 
ATOM     27  C   UNL     1       4.029   6.453   6.836  0.00  0.00    +0.086 A 
ATOM     28  N   UNL     1       3.216   5.549   6.239  0.00  0.00    -0.328 N 
ATOM     29  C   UNL     1       3.719   4.461   5.625  0.00  0.00    +0.261 A 
ATOM     30  O   UNL     1       2.972   3.661   5.089  0.00  0.00    -0.267 OA
ATOM     31  H   UNL     1       2.256   5.689   6.250  0.00  0.00    +0.168 HD
ENDBRANCH  21  24
ENDBRANCH   5  20
TORSDOF 3
