REMARK  Name = ZINC36048486
REMARK  13 active torsions:
REMARK  status: ('A' for Active; 'I' for Inactive)
REMARK    1  A    between atoms: C_1  and  C_2
REMARK    2  A    between atoms: C_2  and  C_3
REMARK    3  A    between atoms: C_3  and  C_5
REMARK    4  A    between atoms: C_3  and  N_28
REMARK    5  A    between atoms: C_9  and  O_26
REMARK    6  A    between atoms: C_10  and  O_24
REMARK    7  A    between atoms: N_15  and  C_16
REMARK    8  A    between atoms: C_16  and  C_17
REMARK    9  A    between atoms: O_24  and  C_25
REMARK   10  A    between atoms: O_26  and  C_27
REMARK   11  A    between atoms: N_31  and  C_32
REMARK   12  A    between atoms: C_32  and  C_33
REMARK   13  A    between atoms: C_32  and  C_34
REMARK                            x       y       z     vdW  Elec       q    Type
REMARK                         _______ _______ _______ _____ _____    ______ ____
ROOT
ATOM      1  C   UNL     1       0.784  -2.013  -0.323  0.00  0.00    -0.016 C 
ATOM      2  C   UNL     1       1.238  -1.658   1.068  0.00  0.00    -0.052 A 
ATOM      3  C   UNL     1       0.532  -0.689   1.766  0.00  0.00    +0.051 A 
ATOM      4  C   UNL     1       0.912  -0.334   3.048  0.00  0.00    +0.162 A 
ATOM      5  C   UNL     1       2.009  -0.953   3.639  0.00  0.00    +0.162 A 
ATOM      6  C   UNL     1       2.711  -1.918   2.939  0.00  0.00    +0.053 A 
ATOM      7  C   UNL     1       2.326  -2.270   1.654  0.00  0.00    -0.044 A 
ATOM      8  C   UNL     1       3.123  -3.321   0.924  0.00  0.00    +0.017 C 
ATOM      9  C   UNL     1       2.324  -3.841  -0.271  0.00  0.00    -0.073 C 
ATOM     10  N   UNL     1       1.856  -2.690  -1.058  0.00  0.00    +0.388 N 
ATOM     11  H   UNL     1       2.621  -2.048  -1.206  0.00  0.00    -0.080 HD
ENDROOT
BRANCH   5  12
ATOM     12  O   UNL     1       2.390  -0.611   4.899  0.00  0.00    -0.491 OA
ATOM     13  C   UNL     1       3.525  -1.290   5.441  0.00  0.00    +0.277 C 
ENDBRANCH   5  12
BRANCH   4  14
ATOM     14  O   UNL     1       0.216   0.617   3.728  0.00  0.00    -0.491 OA
ATOM     15  C   UNL     1      -0.898   1.209   3.058  0.00  0.00    +0.277 C 
ENDBRANCH   4  14
BRANCH   1  16
ATOM     16  C   UNL     1       0.390  -0.736  -1.067  0.00  0.00    +0.065 C 
BRANCH  16  17
ATOM     17  N   UNL     1       1.600  -0.026  -1.492  0.00  0.00    -0.298 N 
ATOM     18  C   UNL     1       1.860   1.207  -1.015  0.00  0.00    +0.300 C 
ATOM     19  O   UNL     1       1.091   1.731  -0.232  0.00  0.00    -0.253 OA
ATOM     20  N   UNL     1       2.973   1.860  -1.405  0.00  0.00    -0.297 N 
ATOM     21  H   UNL     1       2.213  -0.444  -2.117  0.00  0.00    +0.150 HD
ATOM     22  H   UNL     1       3.586   1.442  -2.030  0.00  0.00    +0.150 HD
BRANCH  20  23
ATOM     23  C   UNL     1       3.256   3.200  -0.887  0.00  0.00    +0.068 C 
ATOM     24  C   UNL     1       3.973   3.085   0.460  0.00  0.00    +0.027 C 
ATOM     25  C   UNL     1       4.147   3.953  -1.877  0.00  0.00    +0.027 C 
ENDBRANCH  20  23
ENDBRANCH  16  17
BRANCH  16  27
ATOM     26  C   UNL     1      -1.540  -0.046  -2.497  0.00  0.00    +0.005 C 
ATOM     27  C   UNL     1      -0.447  -1.098  -2.296  0.00  0.00    +0.017 C 
ENDBRANCH  16  27
ENDBRANCH   1  16
BRANCH  10  28
ATOM     28  C   UNL     1       1.346  -3.156  -2.354  0.00  0.00    -0.042 C 
BRANCH  28  29
ATOM     29  C   UNL     1       2.447  -3.862  -3.103  0.00  0.00    -0.064 A 
ATOM     30  C   UNL     1       3.280  -3.146  -3.943  0.00  0.00    +0.004 A 
ATOM     31  C   UNL     1       4.290  -3.791  -4.630  0.00  0.00    +0.038 A 
ATOM     32  C   UNL     1       4.469  -5.156  -4.477  0.00  0.00    +0.123 A 
ATOM     33  C   UNL     1       3.634  -5.872  -3.635  0.00  0.00    +0.038 A 
ATOM     34  C   UNL     1       2.628  -5.223  -2.945  0.00  0.00    +0.004 A 
ATOM     35  F   UNL     1       5.456  -5.788  -5.148  0.00  0.00    -0.205 F 
ENDBRANCH  28  29
ENDBRANCH  10  28
TORSDOF 8
