REMARK  Name = ZINC19218156
REMARK  2 active torsions:
REMARK  status: ('A' for Active; 'I' for Inactive)
REMARK    1  A    between atoms: C_1  and  C_2
REMARK    2  A    between atoms: C_18  and  C_20
REMARK                            x       y       z     vdW  Elec       q    Type
REMARK                         _______ _______ _______ _____ _____    ______ ____
ROOT
ATOM      1  C   UNL     1      -5.615 -10.501   1.381  0.00  0.00    +0.044 C 
ATOM      2  C   UNL     1      -4.414  -9.636   1.099  0.00  0.00    -0.050 A 
ATOM      3  C   UNL     1      -4.208  -9.134  -0.177  0.00  0.00    +0.007 A 
ATOM      4  C   UNL     1      -3.113  -8.341  -0.454  0.00  0.00    +0.046 A 
ATOM      5  C   UNL     1      -2.202  -8.037   0.549  0.00  0.00    +0.132 A 
ATOM      6  C   UNL     1      -2.414  -8.542   1.842  0.00  0.00    +0.059 A 
ATOM      7  C   UNL     1      -3.524  -9.344   2.111  0.00  0.00    +0.018 A 
ATOM      8  C   UNL     1      -1.449  -8.211   2.906  0.00  0.00    +0.170 C 
ATOM      9  O   UNL     1      -1.687  -8.431   4.075  0.00  0.00    -0.292 OA
ATOM     10  C   UNL     1      -0.140  -7.583   2.461  0.00  0.00    +0.127 C 
ATOM     11  C   UNL     1      -0.474  -6.584   1.344  0.00  0.00    +0.120 C 
ATOM     12  O   UNL     1      -1.123  -7.269   0.273  0.00  0.00    -0.484 OA
ATOM     13  C   UNL     1      -1.401  -5.500   1.898  0.00  0.00    +0.067 C 
ATOM     14  C   UNL     1      -1.751  -4.511   0.782  0.00  0.00    +0.112 C 
ATOM     15  N   UNL     1      -0.505  -3.998   0.196  0.00  0.00    -0.298 N 
ATOM     16  C   UNL     1       0.491  -4.960  -0.295  0.00  0.00    +0.112 C 
ATOM     17  C   UNL     1       0.820  -5.944   0.837  0.00  0.00    +0.067 C 
ATOM     18  C   UNL     1      -0.283  -2.672   0.106  0.00  0.00    +0.241 C 
ATOM     19  O   UNL     1      -1.116  -1.889   0.511  0.00  0.00    -0.271 OA
ENDROOT
BRANCH  18  20
ATOM     20  C   UNL     1       1.000  -2.163  -0.498  0.00  0.00    +0.088 C 
ATOM     21  C   UNL     1       1.000  -0.656  -0.480  0.00  0.00    +0.035 C 
ATOM     22  N   UNL     1       0.002  -0.004   0.002  0.00  0.00    -0.268 N 
ATOM     23  N   UNL     1      -0.017   1.397   0.010  0.00  0.00    -0.236 N 
ATOM     24  C   UNL     1       1.143   2.100   0.002  0.00  0.00    +0.237 C 
ATOM     25  O   UNL     1       1.149   3.311   0.075  0.00  0.00    -0.274 OA
ATOM     26  C   UNL     1       2.423   1.317  -0.101  0.00  0.00    +0.111 C 
ATOM     27  C   UNL     1       2.164   0.118  -1.025  0.00  0.00    +0.073 C 
ATOM     28  C   UNL     1       3.425  -0.690  -1.118  0.00  0.00    -0.016 C 
ATOM     29  C   UNL     1       4.585  -0.014  -1.212  0.00  0.00    -0.004 C 
ATOM     30  C   UNL     1       4.581   1.460  -1.212  0.00  0.00    -0.004 C 
ATOM     31  C   UNL     1       3.551   2.123  -0.676  0.00  0.00    -0.013 C 
ATOM     32  H   UNL     1      -0.848  -0.568   0.414  0.00  0.00    +0.170 HD
ATOM     33  H   UNL     1      -0.977   1.934   0.023  0.00  0.00    +0.173 HD
ENDBRANCH  18  20
TORSDOF 1
