REMARK  Name = ZINC24361986
REMARK  4 active torsions:
REMARK  status: ('A' for Active; 'I' for Inactive)
REMARK    1  A    between atoms: C_3  and  N_8
REMARK    2  A    between atoms: C_9  and  C_28
REMARK    3  A    between atoms: C_11  and  C_13
REMARK    4  A    between atoms: N_15  and  N_16
REMARK                            x       y       z     vdW  Elec       q    Type
REMARK                         _______ _______ _______ _____ _____    ______ ____
ROOT
ATOM      1  N   UNL     1      -2.428   1.041   0.020  0.00  0.00    -0.211 N 
ATOM      2  C   UNL     1      -3.585   1.387   0.659  0.00  0.00    +0.171 A 
ATOM      3  N   UNL     1      -4.479   0.452   0.408  0.00  0.00    -0.202 NA
ATOM      4  C   UNL     1      -3.937  -0.496  -0.367  0.00  0.00    +0.239 A 
ATOM      5  N   UNL     1      -2.686  -0.178  -0.629  0.00  0.00    -0.139 NA
ENDROOT
BRANCH   1   8
ATOM      6  C   UNL     1      -0.050   3.846   0.022  0.00  0.00    +0.005 A 
ATOM      7  C   UNL     1      -1.239   3.143   0.029  0.00  0.00    +0.028 A 
ATOM      8  C   UNL     1      -1.224   1.755   0.017  0.00  0.00    +0.071 A 
ATOM      9  C   UNL     1      -0.013   1.076   0.008  0.00  0.00    +0.066 A 
ATOM     10  C   UNL     1       1.175   1.785   0.000  0.00  0.00    +0.125 A 
ATOM     11  C   UNL     1       1.156   3.170   0.008  0.00  0.00    +0.038 A 
ATOM     12  F   UNL     1       2.354   1.126  -0.014  0.00  0.00    -0.205 F 
ENDBRANCH   1   8
BRANCH   2  13
ATOM     13  C   UNL     1      -3.796   2.591   1.478  0.00  0.00    +0.056 A 
ATOM     14  C   UNL     1      -4.973   3.145   1.914  0.00  0.00    +0.019 A 
ATOM     15  C   UNL     1      -4.923   4.288   2.678  0.00  0.00    +0.008 A 
ATOM     16  C   UNL     1      -3.714   4.832   2.978  0.00  0.00    +0.046 A 
ATOM     17  S   UNL     1      -2.587   3.706   2.171  0.00  0.00    -0.094 S 
ENDBRANCH   2  13
BRANCH   4  18
ATOM     18  C   UNL     1      -4.633  -1.707  -0.852  0.00  0.00    +0.300 C 
ATOM     19  O   UNL     1      -4.044  -2.506  -1.554  0.00  0.00    -0.265 OA
ATOM     20  N   UNL     1      -5.920  -1.925  -0.516  0.00  0.00    -0.217 N 
ATOM     21  H   UNL     1      -6.453  -1.202   0.118  0.00  0.00    +0.174 HD
BRANCH  20  22
ATOM     22  N   UNL     1      -6.579  -3.073  -0.976  0.00  0.00    -0.137 N 
ATOM     23  C   UNL     1      -6.856  -4.147  -0.208  0.00  0.00    +0.263 C 
ATOM     24  O   UNL     1      -6.592  -4.298   0.966  0.00  0.00    -0.271 OA
ATOM     25  C   UNL     1      -7.564  -5.123  -1.119  0.00  0.00    +0.114 C 
ATOM     26  C   UNL     1      -8.973  -5.401  -0.607  0.00  0.00    +0.035 C 
ATOM     27  C   UNL     1      -9.683  -6.369  -1.558  0.00  0.00    +0.003 C 
ATOM     28  C   UNL     1      -8.887  -7.673  -1.643  0.00  0.00    +0.000 C 
ATOM     29  C   UNL     1      -7.485  -7.381  -2.182  0.00  0.00    +0.003 C 
ATOM     30  C   UNL     1      -6.766  -6.418  -1.234  0.00  0.00    +0.035 C 
ATOM     31  N   UNL     1      -7.613  -4.432  -2.413  0.00  0.00    -0.284 N 
ATOM     32  C   UNL     1      -7.018  -3.238  -2.230  0.00  0.00    +0.326 C 
ATOM     33  O   UNL     1      -6.890  -2.404  -3.106  0.00  0.00    -0.251 OA
ATOM     34  H   UNL     1      -8.080  -4.921  -3.281  0.00  0.00    +0.151 HD
ENDBRANCH  20  22
ENDBRANCH   4  18
TORSDOF 4
