REMARK  Name = ZINC13065194
REMARK  12 active torsions:
REMARK  status: ('A' for Active; 'I' for Inactive)
REMARK    1  A    between atoms: C_1  and  C_2
REMARK    2  A    between atoms: C_2  and  C_3
REMARK    3  A    between atoms: C_3  and  C_5
REMARK    4  A    between atoms: C_3  and  N_72
REMARK    5  A    between atoms: N_9  and  C_10
REMARK    6  A    between atoms: C_15  and  C_16
REMARK    7  A    between atoms: C_15  and  N_72
REMARK    8  A    between atoms: C_16  and  C_17
REMARK    9  A    between atoms: C_23  and  C_24
REMARK   10  A    between atoms: C_23  and  N_72
REMARK   11  A    between atoms: C_27  and  C_37
REMARK   12  A    between atoms: C_30  and  C_36
REMARK                            x       y       z     vdW  Elec       q    Type
REMARK                         _______ _______ _______ _____ _____    ______ ____
ROOT
ATOM      1  N   UNL     1       1.048   4.002   1.483  0.00  0.00    +0.389 N 
ATOM      2  H   UNL     1       1.053   3.792   2.488  0.00  0.00    -0.080 HD
ENDROOT
BRANCH   1   3
ATOM      3  C   UNL     1       2.080   3.180   0.816  0.00  0.00    +0.003 C 
BRANCH   3   4
ATOM      4  C   UNL     1       2.243   3.601  -0.622  0.00  0.00    +0.138 A 
ATOM      5  N   UNL     1       2.376   4.826  -1.069  0.00  0.00    -0.115 NA
ATOM      6  N   UNL     1       2.489   4.772  -2.351  0.00  0.00    -0.023 NA
ATOM      7  N   UNL     1       2.431   3.544  -2.734  0.00  0.00    -0.044 NA
ATOM      8  N   UNL     1       2.279   2.792  -1.697  0.00  0.00    -0.228 N 
BRANCH   8   9
ATOM      9  C   UNL     1       2.169   1.331  -1.691  0.00  0.00    +0.111 C 
ATOM     10  C   UNL     1       3.417   0.704  -2.344  0.00  0.00    +0.027 C 
ATOM     11  C   UNL     1       2.865  -0.517  -3.123  0.00  0.00    +0.002 C 
ATOM     12  C   UNL     1       1.517   0.010  -3.674  0.00  0.00    +0.002 C 
ATOM     13  C   UNL     1       0.961   0.890  -2.536  0.00  0.00    +0.027 C 
ENDBRANCH   8   9
ENDBRANCH   3   4
BRANCH   3  15
ATOM     14  C   UNL     1       3.275   2.831   2.982  0.00  0.00    +0.002 C 
ATOM     15  C   UNL     1       3.408   3.362   1.554  0.00  0.00    -0.011 C 
ENDBRANCH   3  15
ENDBRANCH   1   3
BRANCH   1  16
ATOM     16  C   UNL     1      -0.286   3.682   0.932  0.00  0.00    -0.073 C 
BRANCH  16  17
ATOM     17  C   UNL     1      -0.682   2.276   1.387  0.00  0.00    +0.016 C 
BRANCH  17  18
ATOM     18  C   UNL     1      -2.104   1.996   0.971  0.00  0.00    -0.049 A 
ATOM     19  C   UNL     1      -3.152   2.418   1.767  0.00  0.00    +0.003 A 
ATOM     20  C   UNL     1      -4.456   2.166   1.383  0.00  0.00    +0.000 A 
ATOM     21  C   UNL     1      -4.711   1.482   0.209  0.00  0.00    +0.000 A 
ATOM     22  C   UNL     1      -3.662   1.056  -0.584  0.00  0.00    +0.000 A 
ATOM     23  C   UNL     1      -2.358   1.313  -0.203  0.00  0.00    +0.003 A 
ENDBRANCH  17  18
ENDBRANCH  16  17
ENDBRANCH   1  16
BRANCH   1  24
ATOM     24  C   UNL     1       1.343   5.437   1.291  0.00  0.00    -0.037 C 
BRANCH  24  25
ATOM     25  C   UNL     1       0.543   6.233   2.289  0.00  0.00    +0.001 A 
ATOM     26  C   UNL     1       1.094   6.572   3.481  0.00  0.00    +0.017 A 
ATOM     27  C   UNL     1       0.292   7.350   4.426  0.00  0.00    +0.002 A 
ATOM     28  C   UNL     1       0.808   7.734   5.668  0.00  0.00    -0.041 A 
ATOM     29  C   UNL     1       0.032   8.456   6.530  0.00  0.00    +0.004 A 
ATOM     30  C   UNL     1      -1.264   8.812   6.184  0.00  0.00    +0.005 A 
ATOM     31  C   UNL     1      -1.794   8.444   4.966  0.00  0.00    -0.026 A 
ATOM     32  C   UNL     1      -1.022   7.709   4.072  0.00  0.00    +0.052 A 
ATOM     33  N   UNL     1      -1.526   7.329   2.846  0.00  0.00    -0.322 N 
ATOM     34  H   UNL     1      -2.431   7.578   2.604  0.00  0.00    +0.169 HD
ATOM     35  C   UNL     1      -0.780   6.619   1.982  0.00  0.00    +0.251 A 
ATOM     36  O   UNL     1      -1.258   6.299   0.908  0.00  0.00    -0.268 OA
ATOM     37  C   UNL     1      -3.203   8.838   4.604  0.00  0.00    +0.046 C 
ATOM     38  C   UNL     1       2.214   7.353   6.054  0.00  0.00    +0.044 C 
ENDBRANCH  24  25
ENDBRANCH   1  24
TORSDOF 9
