REMARK  Name = ZINC21009296
REMARK  2 active torsions:
REMARK  status: ('A' for Active; 'I' for Inactive)
REMARK    1  A    between atoms: C_8  and  N_13
REMARK    2  A    between atoms: N_13  and  C_14
REMARK                            x       y       z     vdW  Elec       q    Type
REMARK                         _______ _______ _______ _____ _____    ______ ____
ROOT
ATOM      1  C   UNL     1      -0.017   1.378   0.010  0.00  0.00    +0.003 A 
ATOM      2  C   UNL     1       1.164   2.092   0.002  0.00  0.00    +0.024 A 
ATOM      3  C   UNL     1       2.386   1.424  -0.013  0.00  0.00    +0.040 A 
ATOM      4  C   UNL     1       2.393   0.034  -0.021  0.00  0.00    +0.017 A 
ATOM      5  C   UNL     1       1.213  -0.676  -0.014  0.00  0.00    +0.025 A 
ATOM      6  C   UNL     1       0.002  -0.004   0.002  0.00  0.00    +0.016 A 
ATOM      7 BR   UNL     1       1.247  -2.567  -0.025  0.00  0.00    -0.050 Br
ATOM      8  C   UNL     1       3.845  -0.384  -0.037  0.00  0.00    +0.191 C 
ATOM      9  C   UNL     1       4.605   0.925  -0.037  0.00  0.00    +0.242 C 
ATOM     10  O   UNL     1       5.811   1.058  -0.047  0.00  0.00    -0.273 OA
ATOM     11  N   UNL     1       3.693   1.912  -0.023  0.00  0.00    -0.283 N 
ATOM     12  H   UNL     1       3.918   2.856  -0.020  0.00  0.00    +0.155 HD
ENDROOT
BRANCH   8  13
ATOM     13  N   UNL     1       4.167  -1.167   1.159  0.00  0.00    -0.328 N 
ATOM     14  H   UNL     1       3.642  -1.056   1.967  0.00  0.00    +0.147 HD
BRANCH  13  15
ATOM     15  C   UNL     1       5.229  -2.076   1.135  0.00  0.00    +0.048 A 
ATOM     16  C   UNL     1       5.984  -2.232  -0.020  0.00  0.00    +0.046 A 
ATOM     17  C   UNL     1       7.034  -3.131  -0.042  0.00  0.00    +0.061 A 
ATOM     18  C   UNL     1       7.333  -3.875   1.087  0.00  0.00    +0.061 A 
ATOM     19  C   UNL     1       6.582  -3.722   2.239  0.00  0.00    +0.043 A 
ATOM     20  C   UNL     1       5.535  -2.819   2.268  0.00  0.00    +0.063 A 
ATOM     21 CL   UNL     1       4.598  -2.622   3.716  0.00  0.00    -0.082 Cl
ATOM     22 CL   UNL     1       8.652  -5.003   1.057  0.00  0.00    -0.082 Cl
ATOM     23 CL   UNL     1       7.979  -3.327  -1.485  0.00  0.00    -0.082 Cl
ENDBRANCH  13  15
ENDBRANCH   8  13
TORSDOF 2
