REMARK  Name = ZINC57934039
REMARK  6 active torsions:
REMARK  status: ('A' for Active; 'I' for Inactive)
REMARK    1  A    between atoms: C_1  and  C_2
REMARK    2  A    between atoms: N_6  and  C_18
REMARK    3  A    between atoms: C_18  and  C_19
REMARK    4  A    between atoms: C_19  and  C_20
REMARK    5  A    between atoms: C_20  and  C_21
REMARK    6  A    between atoms: C_20  and  C_22
REMARK                            x       y       z     vdW  Elec       q    Type
REMARK                         _______ _______ _______ _____ _____    ______ ____
ROOT
ATOM      1  C   UNL     1      -0.019   1.526   0.010  0.00  0.00    +0.038 C 
ATOM      2  C   UNL     1       0.002  -0.004   0.002  0.00  0.00    +0.154 C 
ATOM      3  C   UNL     1      -1.411  -0.528   0.017  0.00  0.00    +0.240 C 
ATOM      4  O   UNL     1      -1.992  -0.717  -1.031  0.00  0.00    -0.273 OA
ATOM      5  N   UNL     1      -2.038  -0.787   1.181  0.00  0.00    -0.268 N 
ATOM      6  C   UNL     1      -1.373  -0.623   2.404  0.00  0.00    +0.061 A 
ATOM      7  C   UNL     1      -2.079  -0.599   3.596  0.00  0.00    +0.074 A 
ATOM      8  C   UNL     1      -1.405  -0.440   4.798  0.00  0.00    +0.164 A 
ATOM      9  C   UNL     1      -0.022  -0.306   4.810  0.00  0.00    +0.164 A 
ATOM     10  C   UNL     1       0.688  -0.327   3.617  0.00  0.00    +0.074 A 
ATOM     11  C   UNL     1       0.015  -0.482   2.418  0.00  0.00    +0.053 A 
ATOM     12  N   UNL     1       0.709  -0.493   1.195  0.00  0.00    -0.332 N 
ATOM     13  O   UNL     1       0.654  -0.158   5.983  0.00  0.00    -0.485 OA
ATOM     14  C   UNL     1      -0.116   0.236   7.124  0.00  0.00    +0.270 C 
ATOM     15  C   UNL     1      -1.382  -0.629   7.170  0.00  0.00    +0.270 C 
ATOM     16  O   UNL     1      -2.117  -0.414   5.960  0.00  0.00    -0.485 OA
ATOM     17  H   UNL     1       1.623  -0.814   1.139  0.00  0.00    +0.147 HD
ENDROOT
BRANCH   5  18
ATOM     18  C   UNL     1      -3.429  -1.246   1.168  0.00  0.00    +0.114 C 
BRANCH  18  19
ATOM     19  C   UNL     1      -3.461  -2.774   1.102  0.00  0.00    +0.022 C 
BRANCH  19  20
ATOM     20  C   UNL     1      -4.914  -3.254   1.089  0.00  0.00    -0.016 C 
ATOM     21  C   UNL     1      -4.948  -4.771   0.897  0.00  0.00    +0.007 C 
ATOM     22  C   UNL     1      -5.582  -2.892   2.416  0.00  0.00    +0.007 C 
ENDBRANCH  19  20
ENDBRANCH  18  19
ENDBRANCH   5  18
TORSDOF 3
