REMARK  Name = ZINC40581601
REMARK  9 active torsions:
REMARK  status: ('A' for Active; 'I' for Inactive)
REMARK    1  A    between atoms: C_1  and  C_2
REMARK    2  A    between atoms: C_7  and  C_9
REMARK    3  A    between atoms: C_7  and  C_10
REMARK    4  A    between atoms: C_14  and  N_24
REMARK    5  A    between atoms: C_15  and  N_19
REMARK    6  A    between atoms: N_19  and  C_20
REMARK    7  A    between atoms: C_20  and  C_21
REMARK    8  A    between atoms: C_20  and  C_22
REMARK    9  A    between atoms: C_20  and  C_23
REMARK                            x       y       z     vdW  Elec       q    Type
REMARK                         _______ _______ _______ _____ _____    ______ ____
ROOT
ATOM      1  C   UNL     1      -0.019   1.532   0.011  0.00  0.00    +0.013 C 
ATOM      2  C   UNL     1       0.002  -0.004   0.002  0.00  0.00    -0.014 C 
ATOM      3  C   UNL     1       0.685  -0.578  -1.269  0.00  0.00    +0.030 C 
ATOM      4  C   UNL     1       0.129  -2.024  -1.230  0.00  0.00    +0.076 C 
ATOM      5  C   UNL     1       0.890  -2.772  -0.139  0.00  0.00    +0.029 C 
ATOM      6  C   UNL     1       0.823  -2.104   1.223  0.00  0.00    -0.033 C 
ATOM      7  C   UNL     1       0.726  -0.590   1.213  0.00  0.00    +0.014 C 
ATOM      8  C   UNL     1      -0.333  -2.702   2.039  0.00  0.00    +0.011 C 
ATOM      9  C   UNL     1       2.125  -2.474   1.977  0.00  0.00    +0.011 C 
ATOM     10  N   UNL     1      -1.282  -1.877  -0.823  0.00  0.00    -0.310 N 
ATOM     11  C   UNL     1      -1.417  -0.610  -0.086  0.00  0.00    +0.113 C 
ATOM     12  C   UNL     1      -2.307  -2.770  -1.095  0.00  0.00    +0.157 A 
ATOM     13  C   UNL     1      -3.603  -2.512  -0.657  0.00  0.00    +0.205 A 
ATOM     14  C   UNL     1      -4.596  -3.439  -0.956  0.00  0.00    +0.155 A 
ATOM     15  N   UNL     1      -4.273  -4.533  -1.645  0.00  0.00    -0.218 NA
ATOM     16  C   UNL     1      -3.034  -4.741  -2.042  0.00  0.00    +0.225 A 
ATOM     17  N   UNL     1      -2.067  -3.884  -1.783  0.00  0.00    -0.218 NA
ENDROOT
BRANCH  13  18
ATOM     18  N   UNL     1      -3.916  -1.283   0.107  0.00  0.00    +0.063 N 
ATOM     19  O   UNL     1      -4.246  -0.277  -0.476  0.00  0.00    -0.126 OA
ATOM     20  O   UNL     1      -3.843  -1.287   1.313  0.00  0.00    -0.126 OA
ENDBRANCH  13  18
BRANCH  14  21
ATOM     21  N   UNL     1      -5.902  -3.229  -0.543  0.00  0.00    -0.322 N 
ATOM     22  H   UNL     1      -6.129  -2.431  -0.041  0.00  0.00    +0.148 HD
BRANCH  21  23
ATOM     23  C   UNL     1      -6.939  -4.213  -0.863  0.00  0.00    +0.025 C 
ATOM     24  C   UNL     1      -6.570  -5.563  -0.247  0.00  0.00    +0.031 C 
ATOM     25  C   UNL     1      -8.280  -3.743  -0.296  0.00  0.00    +0.031 C 
ATOM     26  C   UNL     1      -7.052  -4.359  -2.382  0.00  0.00    +0.031 C 
ENDBRANCH  21  23
ENDBRANCH  14  21
TORSDOF 3
