REMARK  Name = ZINC22683655
REMARK  8 active torsions:
REMARK  status: ('A' for Active; 'I' for Inactive)
REMARK    1  A    between atoms: C_1  and  C_2
REMARK    2  A    between atoms: C_4  and  C_29
REMARK    3  A    between atoms: C_5  and  C_14
REMARK    4  A    between atoms: C_7  and  C_8
REMARK    5  A    between atoms: C_8  and  N_9
REMARK    6  A    between atoms: C_17  and  C_28
REMARK    7  A    between atoms: C_23  and  N_27
REMARK    8  A    between atoms: C_24  and  C_25
REMARK                            x       y       z     vdW  Elec       q    Type
REMARK                         _______ _______ _______ _____ _____    ______ ____
ROOT
ATOM      1  C   UNL     1       0.534  -4.226  -0.160  0.00  0.00    +0.102 C 
ATOM      2  C   UNL     1      -0.551  -4.978   0.567  0.00  0.00    +0.049 A 
ATOM      3  C   UNL     1      -1.831  -5.182   0.221  0.00  0.00    +0.041 A 
ATOM      4  N   UNL     1      -2.409  -5.917   1.199  0.00  0.00    -0.278 N 
ATOM      5  H   UNL     1      -3.332  -6.215   1.218  0.00  0.00    +0.189 HD
ATOM      6  N   UNL     1      -1.440  -6.172   2.183  0.00  0.00    -0.135 NA
ATOM      7  C   UNL     1      -0.326  -5.613   1.809  0.00  0.00    +0.245 A 
ATOM      8  O   UNL     1       0.887  -5.585   2.423  0.00  0.00    -0.421 OA
ATOM      9  C   UNL     1       1.942  -5.169   1.695  0.00  0.00    +0.201 C 
ATOM     10  C   UNL     1       1.851  -4.542   0.503  0.00  0.00    +0.098 C 
ATOM     11  C   UNL     1      -2.504  -4.683  -1.032  0.00  0.00    +0.065 C 
ENDROOT
BRANCH   1  16
ATOM     12  C   UNL     1      -0.493   1.453   0.149  0.00  0.00    +0.044 C 
ATOM     13  C   UNL     1      -0.225  -0.028   0.068  0.00  0.00    -0.049 A 
ATOM     14  C   UNL     1      -0.120  -0.646  -1.164  0.00  0.00    +0.007 A 
ATOM     15  C   UNL     1       0.126  -2.004  -1.238  0.00  0.00    -0.046 A 
ATOM     16  C   UNL     1       0.267  -2.745  -0.079  0.00  0.00    -0.031 A 
ATOM     17  C   UNL     1       0.163  -2.127   1.153  0.00  0.00    +0.007 A 
ATOM     18  C   UNL     1      -0.079  -0.768   1.226  0.00  0.00    -0.061 A 
ATOM     19  C   UNL     1       0.239  -2.677  -2.582  0.00  0.00    +0.044 C 
BRANCH  18  20
ATOM     20  C   UNL     1      -0.187  -0.093   2.570  0.00  0.00    -0.043 C 
BRANCH  20  21
ATOM     21  N   UNL     1      -1.603   0.093   2.912  0.00  0.00    +0.382 N 
ATOM     22  C   UNL     1      -2.244  -1.221   3.173  0.00  0.00    -0.078 C 
ATOM     23  C   UNL     1      -3.479  -0.849   4.032  0.00  0.00    -0.020 C 
ATOM     24  C   UNL     1      -2.947   0.297   4.924  0.00  0.00    -0.020 C 
ATOM     25  C   UNL     1      -1.728   0.860   4.170  0.00  0.00    -0.078 C 
ATOM     26  H   UNL     1      -2.082   0.572   2.163  0.00  0.00    -0.081 HD
ENDBRANCH  20  21
ENDBRANCH  18  20
ENDBRANCH   1  16
BRANCH   9  27
ATOM     27  N   UNL     1       3.198  -5.399   2.201  0.00  0.00    -0.328 N 
ATOM     28  H   UNL     1       3.302  -5.847   3.055  0.00  0.00    +0.145 HD
ATOM     29  H   UNL     1       3.980  -5.113   1.704  0.00  0.00    +0.145 HD
ENDBRANCH   9  27
BRANCH  10  30
ATOM     30  C   UNL     1       3.060  -4.160  -0.164  0.00  0.00    +0.101 C 
ATOM     31  N   UNL     1       4.018  -3.858  -0.693  0.00  0.00    -0.191 NA
ENDBRANCH  10  30
TORSDOF 5
