REMARK  Name = ZINC00931055
REMARK  6 active torsions:
REMARK  status: ('A' for Active; 'I' for Inactive)
REMARK    1  A    between atoms: C_8  and  N_11
REMARK    2  A    between atoms: N_11  and  C_12
REMARK    3  A    between atoms: C_12  and  C_14
REMARK    4  A    between atoms: C_12  and  C_19
REMARK    5  A    between atoms: N_21  and  C_22
REMARK    6  A    between atoms: C_28  and  C_30
REMARK                            x       y       z     vdW  Elec       q    Type
REMARK                         _______ _______ _______ _____ _____    ______ ____
ROOT
ATOM      1  N   UNL     1      -1.574  -1.863   0.412  0.00  0.00    -0.248 N 
ATOM      2  C   UNL     1      -1.455  -0.520   0.398  0.00  0.00    +0.265 C 
ATOM      3  O   UNL     1      -0.412  -0.007   0.051  0.00  0.00    -0.271 OA
ENDROOT
BRANCH   1  11
ATOM      4  C   UNL     1       4.040  -3.280  -1.360  0.00  0.00    +0.001 A 
ATOM      5  C   UNL     1       3.878  -4.657  -1.225  0.00  0.00    +0.002 A 
ATOM      6  C   UNL     1       2.698  -5.188  -0.805  0.00  0.00    +0.028 A 
ATOM      7  C   UNL     1       1.620  -4.340  -0.498  0.00  0.00    +0.071 A 
ATOM      8  C   UNL     1       1.787  -2.939  -0.635  0.00  0.00    +0.002 A 
ATOM      9  C   UNL     1       3.020  -2.426  -1.072  0.00  0.00    +0.010 A 
ATOM     10  C   UNL     1       0.708  -2.089  -0.334  0.00  0.00    +0.035 A 
ATOM     11  C   UNL     1      -0.472  -2.666   0.096  0.00  0.00    +0.056 A 
ATOM     12  C   UNL     1      -0.562  -4.058   0.206  0.00  0.00    +0.135 A 
ATOM     13  N   UNL     1       0.451  -4.837  -0.083  0.00  0.00    -0.253 NA
ENDBRANCH   1  11
BRANCH   2  14
ATOM     14  C   UNL     1      -2.618   0.343   0.814  0.00  0.00    +0.296 C 
ATOM     15  C   UNL     1      -3.683   0.344  -0.292  0.00  0.00    +0.283 C 
ATOM     16  O   UNL     1      -4.765   1.182   0.129  0.00  0.00    -0.484 OA
ATOM     17  C   UNL     1      -4.432   2.393   0.653  0.00  0.00    +0.162 A 
ATOM     18  C   UNL     1      -5.398   3.384   0.746  0.00  0.00    +0.049 A 
ATOM     19  C   UNL     1      -5.076   4.618   1.278  0.00  0.00    +0.004 A 
ATOM     20  C   UNL     1      -3.791   4.868   1.720  0.00  0.00    +0.004 A 
ATOM     21  C   UNL     1      -2.823   3.886   1.630  0.00  0.00    +0.049 A 
ATOM     22  C   UNL     1      -3.139   2.646   1.095  0.00  0.00    +0.163 A 
ATOM     23  O   UNL     1      -2.174   1.690   1.009  0.00  0.00    -0.472 OA
ENDBRANCH   2  14
BRANCH   1  24
ATOM     24  C   UNL     1      -2.856  -2.482   0.758  0.00  0.00    +0.233 C 
BRANCH  24  25
ATOM     25  C   UNL     1      -2.716  -3.235   2.056  0.00  0.00    +0.135 A 
ATOM     26  C   UNL     1      -3.627  -3.273   3.045  0.00  0.00    +0.047 A 
ATOM     27  C   UNL     1      -3.091  -4.092   4.064  0.00  0.00    +0.041 A 
ATOM     28  C   UNL     1      -1.881  -4.499   3.641  0.00  0.00    +0.195 A 
ATOM     29  O   UNL     1      -1.659  -3.976   2.424  0.00  0.00    -0.465 OA
ENDBRANCH  24  25
BRANCH  24  30
ATOM     30  C   UNL     1      -3.265  -3.435  -0.335  0.00  0.00    +0.242 C 
ATOM     31  O   UNL     1      -2.555  -3.584  -1.307  0.00  0.00    -0.273 OA
ATOM     32  N   UNL     1      -4.419  -4.123  -0.232  0.00  0.00    -0.311 N 
ATOM     33  H   UNL     1      -4.987  -4.005   0.545  0.00  0.00    +0.149 HD
BRANCH  32  34
ATOM     34  C   UNL     1      -4.816  -5.051  -1.294  0.00  0.00    +0.073 C 
ATOM     35  C   UNL     1      -5.545  -4.280  -2.398  0.00  0.00    +0.022 C 
ATOM     36  C   UNL     1      -5.960  -5.249  -3.507  0.00  0.00    +0.002 C 
ATOM     37  C   UNL     1      -6.892  -6.316  -2.930  0.00  0.00    +0.000 C 
ATOM     38  C   UNL     1      -6.163  -7.086  -1.827  0.00  0.00    +0.002 C 
ATOM     39  C   UNL     1      -5.748  -6.118  -0.717  0.00  0.00    +0.022 C 
ENDBRANCH  32  34
ENDBRANCH  24  30
ENDBRANCH   1  24
TORSDOF 6
