REMARK  Name = ZINC18129829
REMARK  6 active torsions:
REMARK  status: ('A' for Active; 'I' for Inactive)
REMARK    1  A    between atoms: C_1  and  C_2
REMARK    2  A    between atoms: C_2  and  C_3
REMARK    3  A    between atoms: C_6  and  S_9
REMARK    4  A    between atoms: S_9  and  N_12
REMARK    5  A    between atoms: C_15  and  N_24
REMARK    6  A    between atoms: N_24  and  C_25
REMARK                            x       y       z     vdW  Elec       q    Type
REMARK                         _______ _______ _______ _____ _____    ______ ____
ROOT
ATOM      1  N   UNL     1       3.288  -1.342   6.245  0.00  0.00    -0.128 NA
ATOM      2  C   UNL     1       3.826  -1.239   7.431  0.00  0.00    +0.095 C 
ATOM      3  C   UNL     1       4.246   0.073   7.945  0.00  0.00    +0.057 C 
ATOM      4  C   UNL     1       4.543   0.231   9.256  0.00  0.00    +0.081 C 
ATOM      5  C   UNL     1       4.449  -0.914  10.185  0.00  0.00    +0.208 C 
ATOM      6  O   UNL     1       4.471  -0.733  11.388  0.00  0.00    -0.285 OA
ATOM      7  C   UNL     1       4.328  -2.280   9.637  0.00  0.00    +0.033 A 
ATOM      8  C   UNL     1       4.015  -2.442   8.277  0.00  0.00    +0.013 A 
ATOM      9  C   UNL     1       3.893  -3.718   7.747  0.00  0.00    +0.011 A 
ATOM     10  C   UNL     1       4.075  -4.821   8.564  0.00  0.00    +0.001 A 
ATOM     11  C   UNL     1       4.378  -4.661   9.904  0.00  0.00    +0.001 A 
ATOM     12  C   UNL     1       4.514  -3.398  10.443  0.00  0.00    +0.012 A 
ENDROOT
BRANCH   1  13
ATOM     13  S   UNL     1       2.104  -2.466   5.969  0.00  0.00    +0.099 S 
ATOM     14  O   UNL     1       1.688  -2.940   7.242  0.00  0.00    -0.146 OA
ATOM     15  O   UNL     1       2.595  -3.333   4.956  0.00  0.00    -0.146 OA
BRANCH  13  19
ATOM     16  C   UNL     1      -1.434  -0.274   4.188  0.00  0.00    -0.048 A 
ATOM     17  C   UNL     1      -0.458  -0.797   3.361  0.00  0.00    +0.005 A 
ATOM     18  C   UNL     1       0.623  -1.466   3.905  0.00  0.00    +0.029 A 
ATOM     19  C   UNL     1       0.727  -1.612   5.276  0.00  0.00    +0.112 A 
ATOM     20  C   UNL     1      -0.249  -1.088   6.103  0.00  0.00    +0.029 A 
ATOM     21  C   UNL     1      -1.327  -0.415   5.559  0.00  0.00    +0.005 A 
BRANCH  16  23
ATOM     22  C   UNL     1      -2.278   1.943   3.466  0.00  0.00    +0.009 C 
ATOM     23  C   UNL     1      -2.612   0.456   3.596  0.00  0.00    +0.032 C 
ENDBRANCH  16  23
ENDBRANCH  13  19
ENDBRANCH   1  13
BRANCH   4  24
ATOM     24  N   UNL     1       4.939   1.474   9.729  0.00  0.00    -0.311 N 
ATOM     25  H   UNL     1       4.339   2.233   9.657  0.00  0.00    +0.152 HD
BRANCH  24  26
ATOM     26  C   UNL     1       6.199   1.631  10.307  0.00  0.00    +0.031 A 
ATOM     27  C   UNL     1       7.131   0.602  10.239  0.00  0.00    +0.023 A 
ATOM     28  C   UNL     1       8.377   0.762  10.812  0.00  0.00    +0.002 A 
ATOM     29  C   UNL     1       8.698   1.944  11.454  0.00  0.00    +0.000 A 
ATOM     30  C   UNL     1       7.774   2.970  11.524  0.00  0.00    +0.002 A 
ATOM     31  C   UNL     1       6.528   2.820  10.948  0.00  0.00    +0.023 A 
ENDBRANCH  24  26
ENDBRANCH   4  24
TORSDOF 5
