REMARK  Name = ZINC20170616
REMARK  11 active torsions:
REMARK  status: ('A' for Active; 'I' for Inactive)
REMARK    1  A    between atoms: C_1  and  C_2
REMARK    2  A    between atoms: C_3  and  C_30
REMARK    3  A    between atoms: C_4  and  C_24
REMARK    4  A    between atoms: C_6  and  C_22
REMARK    5  A    between atoms: C_7  and  S_9
REMARK    6  A    between atoms: S_9  and  C_10
REMARK    7  A    between atoms: C_10  and  C_11
REMARK    8  A    between atoms: N_13  and  C_14
REMARK    9  A    between atoms: C_30  and  O_32
REMARK   10  A    between atoms: O_32  and  C_33
REMARK   11  A    between atoms: C_33  and  C_34
REMARK                            x       y       z     vdW  Elec       q    Type
REMARK                         _______ _______ _______ _____ _____    ______ ____
ROOT
ATOM      1  C   UNL     1       6.074  -1.678   1.238  0.00  0.00    +0.061 C 
ATOM      2  C   UNL     1       6.220  -0.337   0.566  0.00  0.00    +0.016 C 
ATOM      3  C   UNL     1       7.438   0.217   0.451  0.00  0.00    +0.066 C 
ATOM      4  C   UNL     1       7.642   1.547  -0.217  0.00  0.00    +0.100 C 
ATOM      5  C   UNL     1       6.340   2.284  -0.351  0.00  0.00    +0.069 C 
ATOM      6  C   UNL     1       5.149   1.645  -0.198  0.00  0.00    +0.080 C 
ATOM      7  N   UNL     1       5.109   0.298   0.083  0.00  0.00    -0.312 N 
ATOM      8  H   UNL     1       4.180  -0.268  -0.082  0.00  0.00    +0.152 HD
ENDROOT
BRANCH   4   9
ATOM      9  C   UNL     1       8.225   1.329  -1.589  0.00  0.00    -0.035 A 
ATOM     10  C   UNL     1       7.534   0.579  -2.523  0.00  0.00    +0.004 A 
ATOM     11  C   UNL     1       8.067   0.382  -3.783  0.00  0.00    +0.000 A 
ATOM     12  C   UNL     1       9.294   0.928  -4.107  0.00  0.00    +0.000 A 
ATOM     13  C   UNL     1       9.988   1.673  -3.172  0.00  0.00    +0.000 A 
ATOM     14  C   UNL     1       9.453   1.873  -1.913  0.00  0.00    +0.004 A 
ENDBRANCH   4   9
BRANCH   5  15
ATOM     15  C   UNL     1       6.353   3.686  -0.641  0.00  0.00    +0.098 C 
ATOM     16  N   UNL     1       6.364   4.798  -0.870  0.00  0.00    -0.191 NA
ENDBRANCH   5  15
BRANCH   3  17
ATOM     17  C   UNL     1       8.559  -0.470   0.972  0.00  0.00    +0.338 C 
ATOM     18  O   UNL     1       8.412  -1.548   1.516  0.00  0.00    -0.245 OA
BRANCH  17  19
ATOM     19  O   UNL     1       9.791   0.070   0.866  0.00  0.00    -0.457 OA
BRANCH  19  20
ATOM     20  C   UNL     1      10.877  -0.679   1.415  0.00  0.00    +0.259 C 
BRANCH  20  21
ATOM     21  C   UNL     1      12.164   0.076   1.204  0.00  0.00    +0.006 C 
ATOM     22  C   UNL     1      13.027   0.185   2.184  0.00  0.00    +0.007 C 
ENDBRANCH  20  21
ENDBRANCH  19  20
ENDBRANCH  17  19
ENDBRANCH   3  17
BRANCH   6  23
ATOM     23  S   UNL     1       3.645   2.548  -0.367  0.00  0.00    -0.100 S 
BRANCH  23  24
ATOM     24  C   UNL     1       2.448   1.222  -0.076  0.00  0.00    +0.171 C 
BRANCH  24  25
ATOM     25  C   UNL     1       1.050   1.777  -0.175  0.00  0.00    +0.227 C 
ATOM     26  O   UNL     1       0.880   2.953  -0.417  0.00  0.00    -0.275 OA
ATOM     27  N   UNL     1      -0.011   0.966   0.007  0.00  0.00    -0.285 N 
ATOM     28  H   UNL     1       0.140  -0.115   0.144  0.00  0.00    +0.155 HD
BRANCH  27  29
ATOM     29  C   UNL     1      -1.305   1.499   0.022  0.00  0.00    +0.035 A 
ATOM     30  C   UNL     1      -1.528   2.770   0.536  0.00  0.00    +0.025 A 
ATOM     31  C   UNL     1      -2.804   3.296   0.546  0.00  0.00    +0.023 A 
ATOM     32  C   UNL     1      -3.864   2.555   0.053  0.00  0.00    +0.059 A 
ATOM     33  C   UNL     1      -3.646   1.286  -0.456  0.00  0.00    +0.061 A 
ATOM     34  C   UNL     1      -2.369   0.756  -0.472  0.00  0.00    +0.044 A 
ATOM     35 CL   UNL     1      -4.977   0.358  -1.074  0.00  0.00    -0.082 Cl
ATOM     36 CL   UNL     1      -5.468   3.217   0.071  0.00  0.00    -0.082 Cl
ENDBRANCH  27  29
ENDBRANCH  24  25
ENDBRANCH  23  24
ENDBRANCH   6  23
TORSDOF 10
