REMARK  Name = ZINC12032355
REMARK  7 active torsions:
REMARK  status: ('A' for Active; 'I' for Inactive)
REMARK    1  A    between atoms: C_5  and  C_7
REMARK    2  A    between atoms: N_11  and  C_15
REMARK    3  A    between atoms: C_15  and  C_16
REMARK    4  A    between atoms: C_16  and  C_17
REMARK    5  A    between atoms: N_19  and  N_20
REMARK    6  A    between atoms: C_21  and  C_23
REMARK    7  A    between atoms: C_26  and  O_29
REMARK                            x       y       z     vdW  Elec       q    Type
REMARK                         _______ _______ _______ _____ _____    ______ ____
ROOT
ATOM      1  C   UNL     1       1.199   3.159  -0.203  0.00  0.00    +0.116 C 
ENDROOT
BRANCH   1   2
ATOM      2  C   UNL     1      -0.255   2.764  -0.211  0.00  0.00    +0.231 C 
ATOM      3  O   UNL     1      -0.567   1.596  -0.107  0.00  0.00    -0.274 OA
ATOM      4  N   UNL     1      -1.209   3.707  -0.340  0.00  0.00    -0.234 N 
ATOM      5  H   UNL     1      -0.960   4.641  -0.423  0.00  0.00    +0.173 HD
BRANCH   4   6
ATOM      6  N   UNL     1      -2.561   3.338  -0.353  0.00  0.00    -0.230 N 
ATOM      7  C   UNL     1      -3.515   4.282  -0.481  0.00  0.00    +0.260 C 
ATOM      8  O   UNL     1      -3.203   5.452  -0.586  0.00  0.00    -0.269 OA
ATOM      9  H   UNL     1      -2.810   2.405  -0.269  0.00  0.00    +0.173 HD
BRANCH   7  10
ATOM     10  C   UNL     1      -4.939   3.893  -0.495  0.00  0.00    +0.038 A 
ATOM     11  C   UNL     1      -5.300   2.548  -0.381  0.00  0.00    +0.016 A 
ATOM     12  C   UNL     1      -6.630   2.191  -0.389  0.00  0.00    +0.046 A 
ATOM     13  C   UNL     1      -7.612   3.165  -0.522  0.00  0.00    +0.117 A 
ATOM     14  C   UNL     1      -7.258   4.504  -0.641  0.00  0.00    +0.046 A 
ATOM     15  C   UNL     1      -5.930   4.870  -0.628  0.00  0.00    +0.016 A 
BRANCH  13  16
ATOM     16  O   UNL     1      -8.922   2.808  -0.535  0.00  0.00    -0.507 OA
ATOM     17  H   UNL     1      -9.268   2.618  -1.417  0.00  0.00    +0.292 HD
ENDBRANCH  13  16
ENDBRANCH   7  10
ENDBRANCH   4   6
ENDBRANCH   1   2
BRANCH   1  18
ATOM     18  C   UNL     1       2.067   1.908  -0.053  0.00  0.00    +0.124 C 
BRANCH  18  23
ATOM     19  C   UNL     1       6.342   3.293   2.049  0.00  0.00    +0.031 C 
ATOM     20  C   UNL     1       5.494   2.955   1.045  0.00  0.00    +0.077 C 
ATOM     21  C   UNL     1       4.067   2.575   1.106  0.00  0.00    +0.258 C 
ATOM     22  O   UNL     1       3.463   2.524   2.161  0.00  0.00    -0.269 OA
ATOM     23  N   UNL     1       3.481   2.293  -0.045  0.00  0.00    -0.255 N 
ATOM     24  C   UNL     1       4.155   2.346  -1.212  0.00  0.00    +0.121 C 
ATOM     25  S   UNL     1       3.579   2.014  -2.789  0.00  0.00    -0.027 S 
ATOM     26  S   UNL     1       5.795   2.849  -0.714  0.00  0.00    -0.061 S 
BRANCH  19  31
ATOM     27  C   UNL     1       4.798   1.905   5.170  0.00  0.00    +0.001 A 
ATOM     28  C   UNL     1       5.113   2.893   6.089  0.00  0.00    +0.003 A 
ATOM     29  C   UNL     1       5.828   4.010   5.697  0.00  0.00    +0.039 A 
ATOM     30  C   UNL     1       6.237   4.147   4.384  0.00  0.00    +0.131 A 
ATOM     31  C   UNL     1       5.917   3.154   3.448  0.00  0.00    +0.011 A 
ATOM     32  C   UNL     1       5.193   2.027   3.856  0.00  0.00    +0.011 A 
ATOM     33  F   UNL     1       6.940   5.237   4.003  0.00  0.00    -0.205 F 
ENDBRANCH  19  31
ENDBRANCH  18  23
ENDBRANCH   1  18
TORSDOF 7
