REMARK  Name = ZINC12546983
REMARK  12 active torsions:
REMARK  status: ('A' for Active; 'I' for Inactive)
REMARK    1  A    between atoms: C_1  and  O_2
REMARK    2  A    between atoms: O_2  and  C_3
REMARK    3  A    between atoms: C_6  and  C_11
REMARK    4  A    between atoms: C_8  and  O_9
REMARK    5  A    between atoms: O_9  and  C_10
REMARK    6  A    between atoms: C_14  and  C_33
REMARK    7  A    between atoms: C_17  and  C_19
REMARK    8  A    between atoms: C_19  and  O_20
REMARK    9  A    between atoms: O_20  and  C_21
REMARK   10  A    between atoms: C_21  and  C_23
REMARK   11  A    between atoms: C_25  and  N_30
REMARK   12  A    between atoms: C_28  and  N_29
REMARK                            x       y       z     vdW  Elec       q    Type
REMARK                         _______ _______ _______ _____ _____    ______ ____
ROOT
ATOM      1  C   UNL     1      -1.091   7.007   1.757  0.00  0.00    +0.137 C 
ATOM      2  C   UNL     1      -2.176   7.575   0.821  0.00  0.00    +0.087 C 
ATOM      3  C   UNL     1      -1.427   8.556  -0.053  0.00  0.00    +0.075 C 
ATOM      4  N   UNL     1      -0.181   8.569   0.285  0.00  0.00    -0.180 NA
ATOM      5  N   UNL     1       0.133   7.704   1.331  0.00  0.00    -0.182 N 
ATOM      6  C   UNL     1       1.358   7.533   1.867  0.00  0.00    +0.273 C 
ATOM      7  O   UNL     1       1.518   6.750   2.779  0.00  0.00    -0.270 OA
ENDROOT
BRANCH   1  11
ATOM      8  C   UNL     1      -0.687   2.786   1.199  0.00  0.00    +0.162 A 
ATOM      9  C   UNL     1      -0.163   3.665   0.264  0.00  0.00    +0.050 A 
ATOM     10  C   UNL     1      -0.295   5.029   0.448  0.00  0.00    +0.009 A 
ATOM     11  C   UNL     1      -0.950   5.519   1.562  0.00  0.00    -0.021 A 
ATOM     12  C   UNL     1      -1.474   4.648   2.498  0.00  0.00    +0.055 A 
ATOM     13  C   UNL     1      -1.350   3.280   2.318  0.00  0.00    +0.162 A 
BRANCH   8  15
ATOM     14  C   UNL     1       0.130   1.010  -0.155  0.00  0.00    +0.277 C 
ATOM     15  O   UNL     1      -0.557   1.444   1.020  0.00  0.00    -0.491 OA
ENDBRANCH   8  15
BRANCH  13  16
ATOM     16  O   UNL     1      -1.871   2.421   3.235  0.00  0.00    -0.491 OA
ATOM     17  C   UNL     1      -2.539   2.999   4.359  0.00  0.00    +0.277 C 
ENDBRANCH  13  16
ENDBRANCH   1  11
BRANCH   3  18
ATOM     18  C   UNL     1      -2.024   9.367  -1.119  0.00  0.00    +0.035 A 
ATOM     19  C   UNL     1      -1.418  10.283  -1.962  0.00  0.00    +0.017 A 
ATOM     20  C   UNL     1      -2.196  10.927  -2.895  0.00  0.00    +0.008 A 
ATOM     21  C   UNL     1      -3.524  10.646  -2.961  0.00  0.00    +0.046 A 
ATOM     22  S   UNL     1      -3.720   9.424  -1.675  0.00  0.00    -0.095 S 
ENDBRANCH   3  18
BRANCH   6  23
ATOM     23  C   UNL     1       2.530   8.316   1.331  0.00  0.00    +0.330 C 
BRANCH  23  24
ATOM     24  O   UNL     1       3.728   7.957   2.068  0.00  0.00    -0.452 OA
BRANCH  24  25
ATOM     25  C   UNL     1       4.873   8.571   1.710  0.00  0.00    +0.341 C 
ATOM     26  O   UNL     1       4.870   9.385   0.808  0.00  0.00    -0.245 OA
BRANCH  25  27
ATOM     27  C   UNL     1       6.128   8.257   2.414  0.00  0.00    +0.082 A 
ATOM     28  C   UNL     1       6.118   7.416   3.530  0.00  0.00    +0.049 A 
ATOM     29  C   UNL     1       7.296   7.122   4.180  0.00  0.00    +0.127 A 
ATOM     30  C   UNL     1       8.493   7.664   3.740  0.00  0.00    +0.034 A 
ATOM     31  C   UNL     1       8.520   8.500   2.643  0.00  0.00    +0.026 A 
ATOM     32  C   UNL     1       7.343   8.805   1.970  0.00  0.00    +0.039 A 
BRANCH  32  33
ATOM     33  N   UNL     1       7.367   9.646   0.866  0.00  0.00    -0.357 N 
ATOM     34  H   UNL     1       6.537   9.923   0.449  0.00  0.00    +0.142 HD
ATOM     35  H   UNL     1       8.215   9.957   0.512  0.00  0.00    +0.142 HD
ENDBRANCH  32  33
BRANCH  29  36
ATOM     36  N   UNL     1       7.282   6.227   5.359  0.00  0.00    +0.056 N 
ATOM     37  O   UNL     1       8.322   5.968   5.939  0.00  0.00    -0.126 OA
ATOM     38  O   UNL     1       6.232   5.749   5.749  0.00  0.00    -0.126 OA
ENDBRANCH  29  36
ENDBRANCH  25  27
ENDBRANCH  24  25
ENDBRANCH  23  24
ENDBRANCH   6  23
TORSDOF 10
