REMARK  Name = ZINC08893105
REMARK  6 active torsions:
REMARK  status: ('A' for Active; 'I' for Inactive)
REMARK    1  A    between atoms: C_6  and  N_7
REMARK    2  A    between atoms: C_8  and  C_10
REMARK    3  A    between atoms: N_12  and  C_13
REMARK    4  A    between atoms: C_13  and  C_14
REMARK    5  A    between atoms: C_14  and  C_16
REMARK    6  A    between atoms: C_14  and  N_54
REMARK                            x       y       z     vdW  Elec       q    Type
REMARK                         _______ _______ _______ _____ _____    ______ ____
ROOT
ATOM      1  C   UNL     1       4.092  -0.609  -3.618  0.00  0.00    +0.299 C 
ATOM      2  O   UNL     1       4.856   0.181  -4.133  0.00  0.00    -0.265 OA
ATOM      3  N   UNL     1       3.721  -0.447  -2.332  0.00  0.00    -0.309 N 
ATOM      4  H   UNL     1       3.111  -1.078  -1.920  0.00  0.00    +0.149 HD
ENDROOT
BRANCH   1   6
ATOM      5  N   UNL     1       3.934  -1.923  -5.693  0.00  0.00    -0.278 N 
ATOM      6  C   UNL     1       3.563  -1.760  -4.408  0.00  0.00    +0.303 C 
ATOM      7  O   UNL     1       2.800  -2.551  -3.892  0.00  0.00    -0.265 OA
ATOM      8  H   UNL     1       4.490  -1.255  -6.126  0.00  0.00    +0.155 HD
BRANCH   5  14
ATOM      9  C   UNL     1       4.359  -3.629  -7.347  0.00  0.00    +0.027 A 
ATOM     10  C   UNL     1       3.951  -4.749  -8.046  0.00  0.00    +0.051 A 
ATOM     11  C   UNL     1       2.698  -5.294  -7.816  0.00  0.00    +0.166 A 
ATOM     12  C   UNL     1       1.850  -4.715  -6.874  0.00  0.00    +0.168 A 
ATOM     13  C   UNL     1       2.261  -3.597  -6.170  0.00  0.00    +0.072 A 
ATOM     14  C   UNL     1       3.518  -3.053  -6.404  0.00  0.00    +0.038 A 
ATOM     15  O   UNL     1       0.688  -5.431  -6.835  0.00  0.00    -0.453 OA
ATOM     16  C   UNL     1       0.672  -6.205  -8.049  0.00  0.00    +0.466 C 
ATOM     17  O   UNL     1       2.067  -6.373  -8.366  0.00  0.00    -0.453 OA
ENDBRANCH   5  14
ENDBRANCH   1   6
BRANCH   3  18
ATOM     18  C   UNL     1       4.240   0.683  -1.557  0.00  0.00    +0.094 C 
BRANCH  18  19
ATOM     19  C   UNL     1       3.766   0.567  -0.107  0.00  0.00    -0.020 C 
BRANCH  19  26
ATOM     20  C   UNL     1       5.827   1.742   0.421  0.00  0.00    -0.078 C 
ATOM     21  C   UNL     1       6.543   2.628   1.404  0.00  0.00    -0.019 C 
ATOM     22  C   UNL     1       7.105   1.746   2.538  0.00  0.00    -0.002 C 
ATOM     23  C   UNL     1       6.079   1.369   3.504  0.00  0.00    -0.002 C 
ATOM     24  C   UNL     1       4.944   0.547   2.857  0.00  0.00    -0.019 C 
ATOM     25  C   UNL     1       4.028   1.491   2.126  0.00  0.00    -0.078 C 
ATOM     26  N   UNL     1       4.346   1.675   0.669  0.00  0.00    +0.385 N 
ATOM     27  H   UNL     1       3.925   2.556   0.354  0.00  0.00    -0.081 HD
ENDBRANCH  19  26
BRANCH  19  28
ATOM     28  C   UNL     1       2.266   0.695  -0.057  0.00  0.00    -0.052 A 
ATOM     29  C   UNL     1       1.468  -0.429   0.045  0.00  0.00    +0.009 A 
ATOM     30  C   UNL     1       0.122  -0.278   0.087  0.00  0.00    +0.045 A 
ATOM     31  S   UNL     1      -0.055   1.495  -0.018  0.00  0.00    -0.105 S 
ATOM     32  C   UNL     1       1.678   1.915  -0.111  0.00  0.00    +0.047 A 
ENDBRANCH  19  28
ENDBRANCH  18  19
ENDBRANCH   3  18
TORSDOF 6
