REMARK  Name = ZINC67536202
REMARK  9 active torsions:
REMARK  status: ('A' for Active; 'I' for Inactive)
REMARK    1  A    between atoms: C_1  and  C_2
REMARK    2  A    between atoms: C_3  and  C_9
REMARK    3  A    between atoms: C_4  and  C_8
REMARK    4  A    between atoms: N_5  and  C_7
REMARK    5  A    between atoms: C_9  and  C_11
REMARK    6  A    between atoms: C_9  and  N_12
REMARK    7  A    between atoms: N_15  and  C_16
REMARK    8  A    between atoms: C_16  and  C_18
REMARK    9  A    between atoms: C_16  and  C_19
REMARK                            x       y       z     vdW  Elec       q    Type
REMARK                         _______ _______ _______ _____ _____    ______ ____
ROOT
ATOM      1  N   UNL     1       1.411   0.153  -2.834  0.00  0.00    -0.293 N 
ATOM      2  C   UNL     1       1.806   0.631  -4.031  0.00  0.00    +0.301 C 
ATOM      3  O   UNL     1       1.507   0.040  -5.051  0.00  0.00    -0.253 OA
ATOM      4  N   UNL     1       2.534   1.764  -4.097  0.00  0.00    -0.293 N 
ATOM      5  H   UNL     1       1.650   0.624  -2.021  0.00  0.00    +0.151 HD
ATOM      6  H   UNL     1       2.773   2.235  -3.284  0.00  0.00    +0.151 HD
ENDROOT
BRANCH   1   7
ATOM      7  C   UNL     1       0.621  -1.078  -2.762  0.00  0.00    +0.105 C 
ATOM      8  C   UNL     1      -0.860  -0.746  -2.954  0.00  0.00    +0.033 C 
BRANCH   7  11
ATOM      9  C   UNL     1       0.587   0.403   0.039  0.00  0.00    +0.068 C 
ATOM     10  C   UNL     1       0.805  -1.072  -0.179  0.00  0.00    +0.065 A 
ATOM     11  C   UNL     1       0.820  -1.725  -1.416  0.00  0.00    +0.016 A 
ATOM     12  C   UNL     1       1.045  -3.040  -1.190  0.00  0.00    +0.041 A 
ATOM     13  N   UNL     1       1.167  -3.213   0.143  0.00  0.00    -0.271 N 
ATOM     14  N   UNL     1       1.018  -1.963   0.756  0.00  0.00    -0.176 NA
ATOM     15  C   UNL     1       1.418  -4.484   0.828  0.00  0.00    +0.172 C 
ATOM     16  C   UNL     1       1.141  -4.118  -2.238  0.00  0.00    +0.065 C 
ENDBRANCH   7  11
ENDBRANCH   1   7
BRANCH   4  17
ATOM     17  C   UNL     1       2.963   2.283  -5.398  0.00  0.00    +0.103 C 
ATOM     18  C   UNL     1       1.869   3.184  -5.974  0.00  0.00    +0.033 C 
BRANCH  17  19
ATOM     19  C   UNL     1       4.231   3.079  -5.227  0.00  0.00    -0.006 A 
ATOM     20  C   UNL     1       4.503   3.694  -4.019  0.00  0.00    +0.046 A 
ATOM     21  C   UNL     1       5.668   4.425  -3.862  0.00  0.00    +0.142 A 
ATOM     22  C   UNL     1       6.561   4.540  -4.916  0.00  0.00    +0.077 A 
ATOM     23  C   UNL     1       6.287   3.924  -6.123  0.00  0.00    +0.043 A 
ATOM     24  C   UNL     1       5.125   3.189  -6.277  0.00  0.00    +0.047 A 
ATOM     25 CL   UNL     1       4.785   2.411  -7.791  0.00  0.00    -0.083 Cl
ATOM     26 CL   UNL     1       8.022   5.457  -4.720  0.00  0.00    -0.081 Cl
ATOM     27  F   UNL     1       5.934   5.027  -2.682  0.00  0.00    -0.204 F 
ENDBRANCH  17  19
ENDBRANCH   4  17
TORSDOF 4
