REMARK  Name = ZINC02315645
REMARK  7 active torsions:
REMARK  status: ('A' for Active; 'I' for Inactive)
REMARK    1  A    between atoms: C_1  and  C_2
REMARK    2  A    between atoms: C_2  and  C_4
REMARK    3  A    between atoms: C_2  and  N_51
REMARK    4  A    between atoms: N_6  and  C_7
REMARK    5  A    between atoms: C_16  and  C_17
REMARK    6  A    between atoms: C_17  and  O_19
REMARK    7  A    between atoms: O_19  and  C_20
REMARK                            x       y       z     vdW  Elec       q    Type
REMARK                         _______ _______ _______ _____ _____    ______ ____
ROOT
ATOM      1  C   UNL     1       0.095  -0.132  -3.101  0.00  0.00    +0.203 C 
ATOM      2  O   UNL     1      -1.035  -0.569  -3.049  0.00  0.00    -0.277 OA
ATOM      3  N   UNL     1       1.114  -0.940  -3.454  0.00  0.00    -0.284 N 
ATOM      4  H   UNL     1       2.001  -0.572  -3.587  0.00  0.00    +0.155 HD
ENDROOT
BRANCH   3   5
ATOM      5  C   UNL     1       0.894  -2.303  -3.626  0.00  0.00    +0.073 A 
ATOM      6  C   UNL     1       0.453  -3.255  -2.604  0.00  0.00    +0.023 A 
ATOM      7  C   UNL     1       0.137  -3.132  -1.247  0.00  0.00    +0.031 A 
ATOM      8  C   UNL     1      -0.254  -4.233  -0.539  0.00  0.00    +0.042 A 
ATOM      9  C   UNL     1      -0.339  -5.475  -1.156  0.00  0.00    +0.022 A 
ATOM     10  C   UNL     1      -0.041  -5.617  -2.493  0.00  0.00    +0.028 A 
ATOM     11  C   UNL     1       0.364  -4.509  -3.235  0.00  0.00    +0.049 A 
ATOM     12  N   UNL     1       0.733  -4.350  -4.550  0.00  0.00    -0.348 N 
ATOM     13  H   UNL     1       0.765  -5.060  -5.210  0.00  0.00    +0.166 HD
ATOM     14  C   UNL     1       1.053  -3.022  -4.793  0.00  0.00    +0.147 A 
ATOM     15 CL   UNL     1      -0.646  -4.079   1.145  0.00  0.00    -0.084 Cl
BRANCH  14  16
ATOM     16  C   UNL     1       1.476  -2.491  -6.038  0.00  0.00    +0.357 C 
ATOM     17  O   UNL     1       1.590  -1.287  -6.178  0.00  0.00    -0.243 OA
BRANCH  16  18
ATOM     18  O   UNL     1       1.752  -3.319  -7.066  0.00  0.00    -0.463 OA
ATOM     19  C   UNL     1       2.173  -2.715  -8.291  0.00  0.00    +0.280 C 
ENDBRANCH  16  18
ENDBRANCH  14  16
ENDBRANCH   3   5
BRANCH   1  21
ATOM     20  C   UNL     1       1.325   1.399  -1.587  0.00  0.00    -0.004 C 
ATOM     21  C   UNL     1       0.359   1.314  -2.771  0.00  0.00    +0.017 C 
BRANCH  21  31
ATOM     22  C   UNL     1      -0.722   3.431  -2.301  0.00  0.00    -0.073 C 
ATOM     23  C   UNL     1      -2.100   4.094  -2.304  0.00  0.00    +0.017 C 
ATOM     24  C   UNL     1      -2.997   3.422  -1.296  0.00  0.00    -0.048 A 
ATOM     25  C   UNL     1      -4.149   4.080  -0.893  0.00  0.00    +0.004 A 
ATOM     26  C   UNL     1      -5.000   3.498   0.025  0.00  0.00    +0.000 A 
ATOM     27  C   UNL     1      -4.701   2.253   0.546  0.00  0.00    +0.000 A 
ATOM     28  C   UNL     1      -3.554   1.598   0.148  0.00  0.00    +0.002 A 
ATOM     29  C   UNL     1      -2.698   2.183  -0.779  0.00  0.00    -0.061 A 
ATOM     30  C   UNL     1      -1.456   1.430  -1.176  0.00  0.00    -0.042 C 
ATOM     31  N   UNL     1      -0.923   1.974  -2.436  0.00  0.00    +0.390 N 
ATOM     32  H   UNL     1      -1.597   1.797  -3.190  0.00  0.00    -0.080 HD
ENDBRANCH  21  31
ENDBRANCH   1  21
TORSDOF 5
