REMARK  Name = ZINC05709917
REMARK  9 active torsions:
REMARK  status: ('A' for Active; 'I' for Inactive)
REMARK    1  A    between atoms: C_1  and  C_2
REMARK    2  A    between atoms: C_2  and  C_4
REMARK    3  A    between atoms: C_2  and  O_19
REMARK    4  A    between atoms: N_6  and  C_7
REMARK    5  A    between atoms: C_12  and  C_13
REMARK    6  A    between atoms: O_19  and  C_20
REMARK    7  A    between atoms: C_20  and  C_22
REMARK    8  A    between atoms: C_25  and  N_31
REMARK    9  A    between atoms: C_26  and  N_28
REMARK                            x       y       z     vdW  Elec       q    Type
REMARK                         _______ _______ _______ _____ _____    ______ ____
ROOT
ATOM      1  C   UNL     1       0.167   1.520  -0.682  0.00  0.00    +0.062 C 
ATOM      2  C   UNL     1       0.141  -0.008  -0.612  0.00  0.00    +0.259 C 
ENDROOT
BRANCH   2   3
ATOM      3  C   UNL     1       0.554  -0.579  -1.944  0.00  0.00    +0.258 C 
ATOM      4  O   UNL     1      -0.239  -1.217  -2.602  0.00  0.00    -0.271 OA
ATOM      5  N   UNL     1       1.806  -0.380  -2.404  0.00  0.00    -0.282 N 
ATOM      6  H   UNL     1       2.414   0.200  -1.920  0.00  0.00    +0.155 HD
BRANCH   5   7
ATOM      7  C   UNL     1       2.227  -1.010  -3.578  0.00  0.00    +0.041 A 
ATOM      8  C   UNL     1       1.620  -2.186  -3.994  0.00  0.00    +0.024 A 
ATOM      9  C   UNL     1       2.038  -2.807  -5.155  0.00  0.00    +0.002 A 
ATOM     10  C   UNL     1       3.062  -2.262  -5.909  0.00  0.00    +0.001 A 
ATOM     11  C   UNL     1       3.675  -1.092  -5.508  0.00  0.00    +0.010 A 
ATOM     12  C   UNL     1       3.259  -0.454  -4.342  0.00  0.00    +0.003 A 
BRANCH  12  13
ATOM     13  C   UNL     1       3.910   0.807  -3.910  0.00  0.00    -0.016 A 
ATOM     14  C   UNL     1       3.135   1.911  -3.562  0.00  0.00    +0.008 A 
ATOM     15  C   UNL     1       3.746   3.081  -3.160  0.00  0.00    +0.001 A 
ATOM     16  C   UNL     1       5.126   3.159  -3.102  0.00  0.00    +0.000 A 
ATOM     17  C   UNL     1       5.901   2.066  -3.446  0.00  0.00    +0.001 A 
ATOM     18  C   UNL     1       5.300   0.889  -3.844  0.00  0.00    +0.008 A 
ENDBRANCH  12  13
ENDBRANCH   5   7
ENDBRANCH   2   3
BRANCH   2  19
ATOM     19  O   UNL     1      -1.180  -0.448  -0.294  0.00  0.00    -0.449 OA
BRANCH  19  20
ATOM     20  C   UNL     1      -1.481  -0.587   1.012  0.00  0.00    +0.340 C 
ATOM     21  O   UNL     1      -0.644  -0.341   1.858  0.00  0.00    -0.245 OA
BRANCH  20  22
ATOM     22  C   UNL     1      -2.826  -1.037   1.415  0.00  0.00    +0.061 A 
ATOM     23  C   UNL     1      -3.788  -1.326   0.442  0.00  0.00    +0.017 A 
ATOM     24  C   UNL     1      -5.034  -1.744   0.816  0.00  0.00    +0.026 A 
ATOM     25  C   UNL     1      -5.351  -1.884   2.164  0.00  0.00    +0.055 A 
ATOM     26  C   UNL     1      -4.399  -1.598   3.140  0.00  0.00    +0.147 A 
ATOM     27  C   UNL     1      -3.140  -1.182   2.770  0.00  0.00    +0.049 A 
BRANCH  26  28
ATOM     28  N   UNL     1      -4.738  -1.747   4.573  0.00  0.00    +0.058 N 
ATOM     29  O   UNL     1      -4.147  -1.100   5.405  0.00  0.00    -0.126 OA
ATOM     30  O   UNL     1      -5.607  -2.516   4.911  0.00  0.00    -0.126 OA
ENDBRANCH  26  28
BRANCH  25  31
ATOM     31  N   UNL     1      -6.620  -2.309   2.538  0.00  0.00    -0.356 N 
ATOM     32  H   UNL     1      -7.259  -2.582   1.861  0.00  0.00    +0.142 HD
ATOM     33  H   UNL     1      -6.867  -2.333   3.476  0.00  0.00    +0.142 HD
ENDBRANCH  25  31
ENDBRANCH  20  22
ENDBRANCH  19  20
ENDBRANCH   2  19
TORSDOF 8
