REMARK  Name = ZINC15085771
REMARK  9 active torsions:
REMARK  status: ('A' for Active; 'I' for Inactive)
REMARK    1  A    between atoms: C_1  and  O_2
REMARK    2  A    between atoms: O_2  and  C_3
REMARK    3  A    between atoms: C_5  and  C_12
REMARK    4  A    between atoms: C_12  and  C_13
REMARK    5  A    between atoms: C_16  and  C_19
REMARK    6  A    between atoms: C_19  and  N_54
REMARK    7  A    between atoms: C_20  and  C_21
REMARK    8  A    between atoms: C_20  and  N_54
REMARK    9  A    between atoms: C_21  and  C_22
REMARK                            x       y       z     vdW  Elec       q    Type
REMARK                         _______ _______ _______ _____ _____    ______ ____
ROOT
ATOM      1  C   UNL     1       1.660   6.375  -0.123  0.00  0.00    +0.214 C 
ATOM      2  C   UNL     1       2.274   7.364  -1.143  0.00  0.00    +0.099 C 
ATOM      3  C   UNL     1       3.695   6.854  -1.280  0.00  0.00    +0.044 C 
ATOM      4  N   UNL     1       3.751   5.676  -0.791  0.00  0.00    -0.096 NA
ATOM      5  O   UNL     1       2.508   5.221  -0.293  0.00  0.00    -0.390 OA
ENDROOT
BRANCH   1   6
ATOM      6  C   UNL     1       0.209   6.047  -0.480  0.00  0.00    +0.083 C 
BRANCH   6   9
ATOM      7  C   UNL     1      -0.787   2.893   1.346  0.00  0.00    +0.166 A 
ATOM      8  C   UNL     1      -0.253   3.751   0.397  0.00  0.00    +0.053 A 
ATOM      9  C   UNL     1      -0.366   5.119   0.557  0.00  0.00    -0.037 A 
ATOM     10  C   UNL     1      -1.000   5.638   1.671  0.00  0.00    +0.053 A 
ATOM     11  C   UNL     1      -1.532   4.787   2.628  0.00  0.00    +0.170 A 
ATOM     12  C   UNL     1      -1.426   3.410   2.467  0.00  0.00    +0.208 A 
ATOM     13  O   UNL     1      -2.021   2.797   3.533  0.00  0.00    -0.449 OA
ATOM     14  C   UNL     1      -2.849   3.806   4.142  0.00  0.00    +0.467 C 
ATOM     15  O   UNL     1      -2.193   5.040   3.796  0.00  0.00    -0.452 OA
BRANCH   7  17
ATOM     16  C   UNL     1      -0.013   1.086   0.008  0.00  0.00    +0.277 C 
ATOM     17  O   UNL     1      -0.682   1.547   1.184  0.00  0.00    -0.491 OA
ENDBRANCH   7  17
ENDBRANCH   6   9
ENDBRANCH   1   6
BRANCH   3  18
ATOM     18  C   UNL     1       4.847   7.610  -1.891  0.00  0.00    -0.027 C 
BRANCH  18  19
ATOM     19  N   UNL     1       6.059   6.771  -1.835  0.00  0.00    +0.383 N 
ATOM     20  H   UNL     1       5.895   5.903  -2.359  0.00  0.00    -0.085 HD
ATOM     21  H   UNL     1       6.270   6.545  -0.856  0.00  0.00    -0.085 HD
BRANCH  19  22
ATOM     22  C   UNL     1       7.205   7.487  -2.427  0.00  0.00    -0.077 C 
BRANCH  22  23
ATOM     23  C   UNL     1       8.446   6.594  -2.356  0.00  0.00    +0.018 C 
BRANCH  23  24
ATOM     24  C   UNL     1       9.621   7.318  -2.959  0.00  0.00    -0.024 A 
ATOM     25  C   UNL     1      10.059   7.217  -4.224  0.00  0.00    +0.087 A 
ATOM     26  N   UNL     1      11.149   8.023  -4.407  0.00  0.00    -0.360 N 
ATOM     27  H   UNL     1      11.639   8.117  -5.239  0.00  0.00    +0.165 HD
ATOM     28  C   UNL     1      11.448   8.680  -3.234  0.00  0.00    +0.047 A 
ATOM     29  C   UNL     1      10.501   8.271  -2.277  0.00  0.00    +0.004 A 
ATOM     30  C   UNL     1      10.561   8.776  -0.977  0.00  0.00    +0.030 A 
ATOM     31  C   UNL     1      11.544   9.681  -0.642  0.00  0.00    +0.042 A 
ATOM     32  C   UNL     1      12.475  10.088  -1.589  0.00  0.00    +0.022 A 
ATOM     33  C   UNL     1      12.432   9.594  -2.874  0.00  0.00    +0.027 A 
ATOM     34 CL   UNL     1      11.619  10.316   0.972  0.00  0.00    -0.084 Cl
ENDBRANCH  23  24
ENDBRANCH  22  23
ENDBRANCH  19  22
ENDBRANCH  18  19
ENDBRANCH   3  18
TORSDOF 8
