REMARK  Name = ZINC05818266
REMARK  5 active torsions:
REMARK  status: ('A' for Active; 'I' for Inactive)
REMARK    1  A    between atoms: C_1  and  C_2
REMARK    2  A    between atoms: C_5  and  N_8
REMARK    3  A    between atoms: C_9  and  C_20
REMARK    4  A    between atoms: C_12  and  C_19
REMARK    5  A    between atoms: C_23  and  O_26
REMARK                            x       y       z     vdW  Elec       q    Type
REMARK                         _______ _______ _______ _____ _____    ______ ____
ROOT
ATOM      1  N   UNL     1       0.057  -4.169  -0.021  0.00  0.00    -0.255 N 
ATOM      2  C   UNL     1       0.069  -5.035   1.165  0.00  0.00    +0.146 C 
ATOM      3  C   UNL     1       0.086  -6.448   0.649  0.00  0.00    +0.030 A 
ATOM      4  C   UNL     1       0.103  -7.804   0.948  0.00  0.00    +0.066 A 
ATOM      5  N   UNL     1       0.111  -8.462  -0.186  0.00  0.00    -0.178 NA
ATOM      6  N   UNL     1       0.101  -7.653  -1.185  0.00  0.00    -0.272 N 
ATOM      7  H   UNL     1       0.104  -7.918  -2.119  0.00  0.00    +0.189 HD
ATOM      8  C   UNL     1       0.085  -6.366  -0.733  0.00  0.00    +0.126 A 
ATOM      9  C   UNL     1       0.061  -4.951  -1.116  0.00  0.00    +0.270 C 
ATOM     10  O   UNL     1       0.049  -4.541  -2.261  0.00  0.00    -0.268 OA
ATOM     11  C   UNL     1       0.112  -8.410   2.327  0.00  0.00    +0.068 C 
ENDROOT
BRANCH   1  16
ATOM     12  C   UNL     1      -0.018   1.503   0.010  0.00  0.00    +0.044 C 
ATOM     13  C   UNL     1       0.002  -0.004   0.002  0.00  0.00    -0.050 A 
ATOM     14  C   UNL     1       0.006  -0.687  -1.200  0.00  0.00    +0.005 A 
ATOM     15  C   UNL     1       0.024  -2.068  -1.211  0.00  0.00    +0.024 A 
ATOM     16  C   UNL     1       0.039  -2.771  -0.013  0.00  0.00    +0.038 A 
ATOM     17  C   UNL     1       0.036  -2.081   1.193  0.00  0.00    +0.024 A 
ATOM     18  C   UNL     1       0.023  -0.700   1.197  0.00  0.00    +0.005 A 
ENDBRANCH   1  16
BRANCH   2  19
ATOM     19  C   UNL     1       1.300  -4.768   1.991  0.00  0.00    -0.022 A 
ATOM     20  C   UNL     1       2.507  -4.512   1.367  0.00  0.00    +0.009 A 
ATOM     21  C   UNL     1       3.638  -4.267   2.122  0.00  0.00    +0.046 A 
ATOM     22  C   UNL     1       3.562  -4.278   3.507  0.00  0.00    +0.117 A 
ATOM     23  C   UNL     1       2.350  -4.535   4.130  0.00  0.00    +0.046 A 
ATOM     24  C   UNL     1       1.221  -4.774   3.371  0.00  0.00    +0.009 A 
BRANCH  22  25
ATOM     25  O   UNL     1       4.673  -4.038   4.252  0.00  0.00    -0.507 OA
ATOM     26  H   UNL     1       4.810  -3.104   4.464  0.00  0.00    +0.292 HD
ENDBRANCH  22  25
ENDBRANCH   2  19
TORSDOF 3
