REMARK  Name = ZINC46748376
REMARK  5 active torsions:
REMARK  status: ('A' for Active; 'I' for Inactive)
REMARK    1  A    between atoms: C_3  and  S_24
REMARK    2  A    between atoms: C_6  and  C_7
REMARK    3  A    between atoms: C_7  and  C_8
REMARK    4  A    between atoms: C_8  and  C_9
REMARK    5  A    between atoms: S_24  and  N_27
REMARK                            x       y       z     vdW  Elec       q    Type
REMARK                         _______ _______ _______ _____ _____    ______ ____
ROOT
ATOM      1  C   UNL     1      -3.040  -1.800  -1.420  0.00  0.00    +0.216 C 
ATOM      2  O   UNL     1      -3.550  -2.116  -0.366  0.00  0.00    -0.276 OA
ATOM      3  N   UNL     1      -3.630  -2.138  -2.583  0.00  0.00    -0.298 N 
ATOM      4  C   UNL     1      -3.020  -1.768  -3.868  0.00  0.00    +0.126 C 
ATOM      5  C   UNL     1      -2.835  -3.038  -4.707  0.00  0.00    +0.127 C 
ATOM      6  N   UNL     1      -4.100  -3.785  -4.714  0.00  0.00    -0.297 N 
ATOM      7  C   UNL     1      -4.711  -4.155  -3.430  0.00  0.00    +0.127 C 
ATOM      8  C   UNL     1      -4.893  -2.890  -2.590  0.00  0.00    +0.126 C 
ATOM      9  C   UNL     1      -4.707  -4.133  -5.909  0.00  0.00    +0.218 A 
ATOM     10  N   UNL     1      -4.130  -3.788  -7.051  0.00  0.00    -0.222 NA
ATOM     11  C   UNL     1      -4.683  -4.105  -8.210  0.00  0.00    +0.131 A 
ATOM     12  C   UNL     1      -5.880  -4.805  -8.220  0.00  0.00    +0.054 A 
ATOM     13  C   UNL     1      -6.456  -5.149  -7.006  0.00  0.00    +0.131 A 
ATOM     14  N   UNL     1      -5.847  -4.806  -5.883  0.00  0.00    -0.222 NA
ATOM     15 BR   UNL     1      -6.709  -5.280  -9.852  0.00  0.00    -0.047 Br
ENDROOT
BRANCH   1  16
ATOM     16  C   UNL     1      -1.745  -1.028  -1.429  0.00  0.00    +0.100 C 
BRANCH  16  17
ATOM     17  C   UNL     1      -1.293  -0.775   0.011  0.00  0.00    +0.044 C 
BRANCH  17  23
ATOM     18  C   UNL     1      -0.017   1.378   0.010  0.00  0.00    +0.005 A 
ATOM     19  C   UNL     1       1.171   2.086   0.002  0.00  0.00    +0.029 A 
ATOM     20  C   UNL     1       2.377   1.411  -0.013  0.00  0.00    +0.105 A 
ATOM     21  C   UNL     1       2.396   0.029  -0.020  0.00  0.00    +0.029 A 
ATOM     22  C   UNL     1       1.208  -0.679  -0.012  0.00  0.00    +0.005 A 
ATOM     23  C   UNL     1       0.002  -0.004   0.002  0.00  0.00    -0.047 A 
BRANCH  20  24
ATOM     24  S   UNL     1       3.891   2.312  -0.024  0.00  0.00    +0.056 S 
ATOM     25  O   UNL     1       4.872   1.453  -0.588  0.00  0.00    -0.153 OA
ATOM     26  O   UNL     1       3.597   3.593  -0.566  0.00  0.00    -0.153 OA
BRANCH  24  27
ATOM     27  N   UNL     1       4.327   2.556   1.555  0.00  0.00    -0.204 NA
ATOM     28  H   UNL     1       3.768   2.215   2.271  0.00  0.00    +0.144 HD
ATOM     29  H   UNL     1       5.142   3.039   1.764  0.00  0.00    +0.144 HD
ENDBRANCH  24  27
ENDBRANCH  20  24
ENDBRANCH  17  23
ENDBRANCH  16  17
ENDBRANCH   1  16
TORSDOF 5
