REMARK  Name = ZINC12038154
REMARK  6 active torsions:
REMARK  status: ('A' for Active; 'I' for Inactive)
REMARK    1  A    between atoms: C_4  and  C_7
REMARK    2  A    between atoms: C_7  and  C_8
REMARK    3  A    between atoms: C_8  and  C_9
REMARK    4  A    between atoms: C_9  and  C_16
REMARK    5  A    between atoms: C_21  and  C_22
REMARK    6  A    between atoms: C_21  and  N_55
REMARK                            x       y       z     vdW  Elec       q    Type
REMARK                         _______ _______ _______ _____ _____    ______ ____
ROOT
ATOM      1  C   UNL     1       0.002  -0.004   0.002  0.00  0.00    +0.115 C 
ATOM      2  C   UNL     1       1.480  -0.340  -0.014  0.00  0.00    +0.244 C 
ATOM      3  O   UNL     1       1.980  -1.445  -0.024  0.00  0.00    -0.273 OA
ATOM      4  N   UNL     1       2.123   0.844  -0.014  0.00  0.00    -0.238 N 
ATOM      5  C   UNL     1       1.266   1.871   0.000  0.00  0.00    +0.307 C 
ATOM      6  O   UNL     1       1.608   3.037   0.003  0.00  0.00    -0.252 OA
ATOM      7  N   UNL     1      -0.018   1.469   0.010  0.00  0.00    -0.285 N 
ATOM      8  H   UNL     1       3.088   0.940  -0.023  0.00  0.00    +0.159 HD
ATOM      9  H   UNL     1      -0.803   2.038   0.017  0.00  0.00    +0.151 HD
ENDROOT
BRANCH   1  10
ATOM     10  C   UNL     1      -0.666  -0.558   1.262  0.00  0.00    +0.018 C 
ATOM     11  C   UNL     1      -2.123  -0.091   1.317  0.00  0.00    -0.013 C 
ATOM     12  C   UNL     1      -2.768  -0.598   2.609  0.00  0.00    -0.078 C 
ATOM     13  C   UNL     1      -0.635  -0.553   3.759  0.00  0.00    -0.078 C 
ATOM     14  C   UNL     1       0.073  -0.045   2.501  0.00  0.00    -0.013 C 
ATOM     15  N   UNL     1      -2.025  -0.049   3.763  0.00  0.00    +0.382 N 
ATOM     16  H   UNL     1      -2.008   0.975   3.692  0.00  0.00    -0.081 HD
BRANCH  15  17
ATOM     17  C   UNL     1      -2.696  -0.431   5.023  0.00  0.00    -0.039 C 
BRANCH  17  18
ATOM     18  C   UNL     1      -4.026   0.276   5.098  0.00  0.00    -0.010 A 
ATOM     19  C   UNL     1      -5.162  -0.331   4.591  0.00  0.00    +0.126 A 
ATOM     20  C   UNL     1      -6.383   0.319   4.660  0.00  0.00    +0.038 A 
ATOM     21  C   UNL     1      -6.466   1.573   5.235  0.00  0.00    +0.004 A 
ATOM     22  C   UNL     1      -5.331   2.179   5.740  0.00  0.00    +0.020 A 
ATOM     23  C   UNL     1      -4.112   1.528   5.677  0.00  0.00    +0.045 A 
ATOM     24 CL   UNL     1      -2.688   2.287   6.319  0.00  0.00    -0.083 Cl
ATOM     25  F   UNL     1      -5.080  -1.557   4.029  0.00  0.00    -0.205 F 
ENDBRANCH  17  18
ENDBRANCH  15  17
ENDBRANCH   1  10
BRANCH   1  26
ATOM     26  C   UNL     1      -0.686  -0.545  -1.253  0.00  0.00    +0.040 C 
BRANCH  26  27
ATOM     27  C   UNL     1       0.033  -0.018  -2.496  0.00  0.00    +0.038 C 
BRANCH  27  31
ATOM     28  C   UNL     1      -1.889  -1.528  -6.000  0.00  0.00    +0.000 A 
ATOM     29  C   UNL     1      -2.302  -0.330  -5.447  0.00  0.00    +0.000 A 
ATOM     30  C   UNL     1      -1.680   0.159  -4.313  0.00  0.00    +0.003 A 
ATOM     31  C   UNL     1      -0.646  -0.551  -3.732  0.00  0.00    -0.047 A 
ATOM     32  C   UNL     1      -0.230  -1.746  -4.288  0.00  0.00    +0.003 A 
ATOM     33  C   UNL     1      -0.855  -2.237  -5.419  0.00  0.00    +0.000 A 
ENDBRANCH  27  31
ENDBRANCH  26  27
ENDBRANCH   1  26
TORSDOF 6
