REMARK  Name = ZINC09847695
REMARK  6 active torsions:
REMARK  status: ('A' for Active; 'I' for Inactive)
REMARK    1  A    between atoms: C_4  and  C_7
REMARK    2  A    between atoms: C_7  and  N_8
REMARK    3  A    between atoms: C_18  and  C_20
REMARK    4  A    between atoms: C_20  and  N_63
REMARK    5  A    between atoms: N_23  and  C_26
REMARK    6  A    between atoms: C_31  and  O_32
REMARK                            x       y       z     vdW  Elec       q    Type
REMARK                         _______ _______ _______ _____ _____    ______ ____
ROOT
ATOM      1  N   UNL     1      -0.018   1.461   0.010  0.00  0.00    -0.248 N 
ATOM      2  C   UNL     1       1.176   2.172   0.003  0.00  0.00    +0.168 A 
ATOM      3  N   UNL     1       2.412   1.716  -0.006  0.00  0.00    -0.229 NA
ATOM      4  C   UNL     1       3.467   2.526  -0.016  0.00  0.00    +0.054 A 
ATOM      5  C   UNL     1       3.196   3.857  -0.006  0.00  0.00    +0.014 A 
ATOM      6  S   UNL     1       1.423   3.893   0.009  0.00  0.00    -0.057 S 
ATOM      7  C   UNL     1       4.166   4.989  -0.007  0.00  0.00    +0.044 C 
ATOM      8  C   UNL     1       5.555   4.432   0.347  0.00  0.00    +0.006 C 
ATOM      9  C   UNL     1       5.813   3.181  -0.498  0.00  0.00    +0.006 C 
ATOM     10  C   UNL     1       4.911   2.037  -0.032  0.00  0.00    +0.056 C 
ATOM     11  C   UNL     1      -1.194   2.119   0.019  0.00  0.00    +0.205 C 
ATOM     12  O   UNL     1      -2.236   1.498   0.021  0.00  0.00    -0.277 OA
ENDROOT
BRANCH   1  13
ATOM     13  C   UNL     1       0.002  -0.004   0.002  0.00  0.00    +0.150 C 
BRANCH  13  17
ATOM     14  C   UNL     1       0.060  -1.450   4.021  0.00  0.00    +0.000 A 
ATOM     15  C   UNL     1      -1.147  -1.232   3.382  0.00  0.00    +0.000 A 
ATOM     16  C   UNL     1      -1.165  -0.764   2.082  0.00  0.00    +0.005 A 
ATOM     17  C   UNL     1       0.022  -0.514   1.420  0.00  0.00    -0.030 A 
ATOM     18  C   UNL     1       1.229  -0.737   2.057  0.00  0.00    +0.005 A 
ATOM     19  C   UNL     1       1.248  -1.200   3.360  0.00  0.00    +0.000 A 
ENDBRANCH  13  17
ENDBRANCH   1  13
BRANCH  11  20
ATOM     20  C   UNL     1      -1.214   3.626   0.028  0.00  0.00    +0.019 C 
BRANCH  20  26
ATOM     21  C   UNL     1      -3.288   3.748  -1.217  0.00  0.00    -0.059 C 
ATOM     22  C   UNL     1      -4.753   4.184  -1.136  0.00  0.00    +0.086 C 
ATOM     23  N   UNL     1      -4.818   5.631  -0.890  0.00  0.00    -0.331 N 
ATOM     24  C   UNL     1      -4.136   5.980   0.364  0.00  0.00    +0.086 C 
ATOM     25  C   UNL     1      -2.671   5.544   0.283  0.00  0.00    -0.059 C 
ATOM     26  N   UNL     1      -2.620   4.084   0.057  0.00  0.00    +0.387 N 
ATOM     27  H   UNL     1      -3.109   3.610   0.826  0.00  0.00    -0.081 HD
BRANCH  23  28
ATOM     28  C   UNL     1      -6.144   6.079  -0.881  0.00  0.00    +0.072 A 
ATOM     29  C   UNL     1      -7.026   5.621   0.086  0.00  0.00    +0.027 A 
ATOM     30  C   UNL     1      -8.334   6.069   0.095  0.00  0.00    +0.002 A 
ATOM     31  C   UNL     1      -8.768   6.966  -0.863  0.00  0.00    +0.004 A 
ATOM     32  C   UNL     1      -7.895   7.423  -1.833  0.00  0.00    +0.047 A 
ATOM     33  C   UNL     1      -6.582   6.983  -1.847  0.00  0.00    +0.138 A 
BRANCH  33  34
ATOM     34  O   UNL     1      -5.722   7.431  -2.801  0.00  0.00    -0.505 OA
ATOM     35  H   UNL     1      -5.705   6.888  -3.601  0.00  0.00    +0.292 HD
ENDBRANCH  33  34
ENDBRANCH  23  28
ENDBRANCH  20  26
ENDBRANCH  11  20
TORSDOF 6
