REMARK  Name = ZINC04529861
REMARK  3 active torsions:
REMARK  status: ('A' for Active; 'I' for Inactive)
REMARK    1  A    between atoms: C_1  and  C_2
REMARK    2  A    between atoms: C_2  and  C_23
REMARK    3  A    between atoms: C_6  and  C_12
REMARK                            x       y       z     vdW  Elec       q    Type
REMARK                         _______ _______ _______ _____ _____    ______ ____
ROOT
ATOM      1  C   UNL     1       2.105   4.967   2.153  0.00  0.00    +0.011 C 
ATOM      2  C   UNL     1       2.489   5.193   0.689  0.00  0.00    -0.023 C 
ATOM      3  C   UNL     1       2.542   3.850  -0.043  0.00  0.00    +0.058 C 
ATOM      4  C   UNL     1       1.181   3.199  -0.007  0.00  0.00    +0.021 C 
ATOM      5  C   UNL     1       0.056   3.942   0.012  0.00  0.00    +0.037 C 
ATOM      6  C   UNL     1      -1.305   3.297   0.035  0.00  0.00    +0.143 C 
ATOM      7  N   UNL     1      -1.221   1.846   0.036  0.00  0.00    -0.288 N 
ATOM      8  C   UNL     1      -0.057   1.185   0.026  0.00  0.00    +0.304 C 
ATOM      9  O   UNL     1      -0.065  -0.030   0.035  0.00  0.00    -0.252 OA
ATOM     10  N   UNL     1       1.117   1.831   0.002  0.00  0.00    -0.273 N 
ATOM     11  C   UNL     1       0.117   5.349   0.012  0.00  0.00    +0.163 C 
ATOM     12  O   UNL     1      -0.915   5.990   0.013  0.00  0.00    -0.292 OA
ATOM     13  C   UNL     1       1.435   6.074   0.009  0.00  0.00    +0.086 C 
ATOM     14  C   UNL     1       3.857   5.875   0.615  0.00  0.00    +0.011 C 
ATOM     15  H   UNL     1      -2.045   1.334   0.047  0.00  0.00    +0.151 HD
ATOM     16  H   UNL     1       1.940   1.317  -0.010  0.00  0.00    +0.156 HD
ENDROOT
BRANCH   6  17
ATOM     17  C   UNL     1      -2.076   3.736  -1.183  0.00  0.00    +0.014 A 
ATOM     18  C   UNL     1      -3.108   4.646  -1.056  0.00  0.00    +0.023 A 
ATOM     19  C   UNL     1      -3.812   5.053  -2.175  0.00  0.00    +0.014 A 
ATOM     20  C   UNL     1      -3.491   4.541  -3.419  0.00  0.00    +0.017 A 
ATOM     21  C   UNL     1      -2.463   3.627  -3.546  0.00  0.00    +0.040 A 
ATOM     22  C   UNL     1      -1.754   3.223  -2.428  0.00  0.00    +0.129 A 
ATOM     23  F   UNL     1      -0.749   2.329  -2.551  0.00  0.00    -0.205 F 
ATOM     24  I   UNL     1      -5.370   6.440  -1.984  0.00  0.00    -0.044 I 
ENDBRANCH   6  17
TORSDOF 1
