REMARK  Name = ZINC62376255
REMARK  8 active torsions:
REMARK  status: ('A' for Active; 'I' for Inactive)
REMARK    1  A    between atoms: C_1  and  C_2
REMARK    2  A    between atoms: C_2  and  C_3
REMARK    3  A    between atoms: C_3  and  C_4
REMARK    4  A    between atoms: C_3  and  N_5
REMARK    5  A    between atoms: C_6  and  C_8
REMARK    6  A    between atoms: C_8  and  C_9
REMARK    7  A    between atoms: C_8  and  N_10
REMARK    8  A    between atoms: N_13  and  C_14
REMARK                            x       y       z     vdW  Elec       q    Type
REMARK                         _______ _______ _______ _____ _____    ______ ____
ROOT
ATOM      1  N   UNL     1       4.914   0.440  -3.627  0.00  0.00    -0.288 N 
ATOM      2  C   UNL     1       5.967   1.233  -3.908  0.00  0.00    +0.304 C 
ATOM      3  O   UNL     1       6.581   1.771  -3.006  0.00  0.00    -0.252 OA
ATOM      4  N   UNL     1       6.340   1.431  -5.188  0.00  0.00    -0.269 N 
ATOM      5  H   UNL     1       4.425   0.011  -4.346  0.00  0.00    +0.151 HD
ATOM      6  H   UNL     1       5.900   0.943  -5.902  0.00  0.00    +0.156 HD
ENDROOT
BRANCH   4   7
ATOM      7  C   UNL     1       7.360   2.339  -5.487  0.00  0.00    +0.035 A 
ATOM      8  C   UNL     1       8.208   2.103  -6.562  0.00  0.00    +0.024 A 
ATOM      9  C   UNL     1       9.214   2.996  -6.860  0.00  0.00    +0.010 A 
ATOM     10  C   UNL     1       9.385   4.143  -6.081  0.00  0.00    -0.014 A 
ATOM     11  C   UNL     1       8.531   4.374  -5.005  0.00  0.00    -0.034 A 
ATOM     12  C   UNL     1       7.523   3.482  -4.713  0.00  0.00    +0.028 A 
ATOM     13  C   UNL     1       8.954   5.671  -4.359  0.00  0.00    +0.071 C 
ATOM     14  C   UNL     1      10.131   6.171  -5.160  0.00  0.00    -0.035 A 
ATOM     15  C   UNL     1      10.369   5.249  -6.176  0.00  0.00    -0.014 A 
ATOM     16  C   UNL     1      11.416   5.474  -7.071  0.00  0.00    +0.009 A 
ATOM     17  C   UNL     1      12.203   6.600  -6.944  0.00  0.00    +0.001 A 
ATOM     18  C   UNL     1      11.958   7.510  -5.931  0.00  0.00    +0.000 A 
ATOM     19  C   UNL     1      10.921   7.294  -5.040  0.00  0.00    +0.004 A 
ENDBRANCH   4   7
BRANCH   1  20
ATOM     20  C   UNL     1       4.509   0.225  -2.235  0.00  0.00    +0.157 C 
ATOM     21  C   UNL     1       5.338  -0.910  -1.632  0.00  0.00    +0.038 C 
BRANCH  20  23
ATOM     22  N   UNL     1       2.453  -0.384  -1.004  0.00  0.00    -0.311 N 
ATOM     23  C   UNL     1       3.048  -0.140  -2.188  0.00  0.00    +0.233 C 
ATOM     24  O   UNL     1       2.408  -0.213  -3.216  0.00  0.00    -0.274 OA
ATOM     25  H   UNL     1       2.965  -0.326  -0.182  0.00  0.00    +0.149 HD
BRANCH  22  26
ATOM     26  C   UNL     1       1.032  -0.739  -0.958  0.00  0.00    +0.070 C 
ATOM     27  C   UNL     1       0.875  -2.245  -1.182  0.00  0.00    +0.028 C 
BRANCH  26  29
ATOM     28  C   UNL     1       0.500   1.155   0.581  0.00  0.00    +0.005 C 
ATOM     29  C   UNL     1       0.457  -0.364   0.409  0.00  0.00    +0.018 C 
ENDBRANCH  26  29
ENDBRANCH  22  26
ENDBRANCH  20  23
ENDBRANCH   1  20
TORSDOF 5
