REMARK  Name = ZINC01437535
REMARK  11 active torsions:
REMARK  status: ('A' for Active; 'I' for Inactive)
REMARK    1  A    between atoms: C_1  and  C_2
REMARK    2  A    between atoms: C_2  and  O_3
REMARK    3  A    between atoms: O_3  and  C_4
REMARK    4  A    between atoms: C_9  and  C_10
REMARK    5  A    between atoms: C_15  and  C_20
REMARK    6  A    between atoms: C_22  and  O_30
REMARK    7  A    between atoms: C_23  and  O_28
REMARK    8  A    between atoms: C_24  and  O_26
REMARK    9  A    between atoms: O_26  and  C_27
REMARK   10  A    between atoms: O_28  and  C_29
REMARK   11  A    between atoms: O_30  and  C_31
REMARK                            x       y       z     vdW  Elec       q    Type
REMARK                         _______ _______ _______ _____ _____    ______ ____
ROOT
ATOM      1  C   UNL     1       1.256   3.716   0.032  0.00  0.00    +0.139 C 
ATOM      2  C   UNL     1       1.064   2.218   0.028  0.00  0.00    +0.037 C 
ATOM      3  C   UNL     1      -0.115   1.574   0.031  0.00  0.00    +0.017 C 
ATOM      4  C   UNL     1      -0.162   0.055   0.050  0.00  0.00    +0.059 C 
ATOM      5  C   UNL     1       1.035  -0.511  -0.712  0.00  0.00    +0.032 C 
ATOM      6  C   UNL     1       2.308  -0.011  -0.019  0.00  0.00    +0.088 C 
ATOM      7  C   UNL     1       2.276   1.487   0.017  0.00  0.00    +0.163 C 
ATOM      8  O   UNL     1       3.328   2.096   0.038  0.00  0.00    -0.292 OA
ATOM      9  N   UNL     1      -1.329   2.179   0.025  0.00  0.00    -0.316 N 
ATOM     10  C   UNL     1      -1.693   3.241   0.843  0.00  0.00    +0.052 A 
ATOM     11  C   UNL     1      -2.723   3.146   1.762  0.00  0.00    +0.025 A 
ATOM     12  C   UNL     1      -3.106   4.271   2.471  0.00  0.00    +0.002 A 
ATOM     13  C   UNL     1      -2.466   5.479   2.262  0.00  0.00    +0.002 A 
ATOM     14  C   UNL     1      -1.421   5.571   1.359  0.00  0.00    +0.025 A 
ATOM     15  C   UNL     1      -1.024   4.442   0.660  0.00  0.00    +0.049 A 
ATOM     16  N   UNL     1       0.051   4.475  -0.226  0.00  0.00    -0.331 N 
ATOM     17  H   UNL     1      -1.994   1.846  -0.598  0.00  0.00    +0.152 HD
ATOM     18  H   UNL     1      -0.009   5.016  -1.029  0.00  0.00    +0.147 HD
ENDROOT
BRANCH   1  24
ATOM     19  C   UNL     1       2.386   5.369   1.541  0.00  0.00    +0.126 A 
ATOM     20  C   UNL     1       2.882   5.743   2.782  0.00  0.00    +0.046 A 
ATOM     21  C   UNL     1       2.786   4.875   3.852  0.00  0.00    +0.004 A 
ATOM     22  C   UNL     1       2.196   3.635   3.688  0.00  0.00    +0.001 A 
ATOM     23  C   UNL     1       1.697   3.262   2.454  0.00  0.00    +0.009 A 
ATOM     24  C   UNL     1       1.796   4.125   1.379  0.00  0.00    +0.019 A 
BRANCH  19  25
ATOM     25  O   UNL     1       2.480   6.221   0.486  0.00  0.00    -0.492 OA
BRANCH  25  27
ATOM     26  C   UNL     1       3.113   8.302  -0.567  0.00  0.00    +0.048 C 
ATOM     27  C   UNL     1       3.100   7.486   0.727  0.00  0.00    +0.225 C 
ENDBRANCH  25  27
ENDBRANCH  19  25
ENDBRANCH   1  24
BRANCH   5  28
ATOM     28  C   UNL     1       0.995  -2.018  -0.681  0.00  0.00    -0.036 A 
ATOM     29  C   UNL     1       1.035  -2.683   0.530  0.00  0.00    +0.053 A 
ATOM     30  C   UNL     1       0.992  -4.069   0.564  0.00  0.00    +0.165 A 
ATOM     31  C   UNL     1       0.919  -4.789  -0.623  0.00  0.00    +0.204 A 
ATOM     32  C   UNL     1       0.884  -4.116  -1.838  0.00  0.00    +0.165 A 
ATOM     33  C   UNL     1       0.922  -2.730  -1.863  0.00  0.00    +0.053 A 
BRANCH  32  34
ATOM     34  O   UNL     1       0.812  -4.816  -3.002  0.00  0.00    -0.491 OA
ATOM     35  C   UNL     1       0.779  -4.059  -4.213  0.00  0.00    +0.277 C 
ENDBRANCH  32  34
BRANCH  31  36
ATOM     36  O   UNL     1       0.881  -6.149  -0.594  0.00  0.00    -0.488 OA
ATOM     37  C   UNL     1       2.135  -6.834  -0.637  0.00  0.00    +0.277 C 
ENDBRANCH  31  36
BRANCH  30  38
ATOM     38  O   UNL     1       1.026  -4.722   1.756  0.00  0.00    -0.491 OA
ATOM     39  C   UNL     1       1.101  -3.918   2.935  0.00  0.00    +0.277 C 
ENDBRANCH  30  38
ENDBRANCH   5  28
TORSDOF 7
