REMARK  Name = ZINC08768558
REMARK  11 active torsions:
REMARK  status: ('A' for Active; 'I' for Inactive)
REMARK    1  A    between atoms: C_1  and  C_2
REMARK    2  A    between atoms: C_2  and  C_3
REMARK    3  A    between atoms: C_3  and  S_4
REMARK    4  A    between atoms: S_4  and  C_7
REMARK    5  A    between atoms: C_8  and  N_29
REMARK    6  A    between atoms: C_9  and  C_21
REMARK    7  A    between atoms: C_11  and  N_12
REMARK    8  A    between atoms: N_12  and  C_13
REMARK    9  A    between atoms: C_16  and  C_19
REMARK   10  A    between atoms: C_19  and  C_20
REMARK   11  A    between atoms: C_21  and  C_23
REMARK                            x       y       z     vdW  Elec       q    Type
REMARK                         _______ _______ _______ _____ _____    ______ ____
ROOT
ATOM      1  C   UNL     1      -1.881   3.901   6.973  0.00  0.00    +0.138 A 
ATOM      2  C   UNL     1      -1.826   5.236   7.285  0.00  0.00    +0.070 A 
ATOM      3  C   UNL     1      -1.328   6.122   6.320  0.00  0.00    +0.084 A 
ATOM      4  S   UNL     1      -0.934   5.021   4.971  0.00  0.00    -0.066 S 
ATOM      5  C   UNL     1      -1.435   3.487   5.733  0.00  0.00    +0.097 A 
ENDROOT
BRANCH   1   6
ATOM      6  S   UNL     1      -2.503   2.734   8.137  0.00  0.00    +0.001 S 
ATOM      7  O   UNL     1      -3.447   3.462   8.911  0.00  0.00    -0.169 OA
ATOM      8  O   UNL     1      -2.914   1.623   7.352  0.00  0.00    -0.169 OA
BRANCH   6   9
ATOM      9  C   UNL     1      -1.073   2.284   9.157  0.00  0.00    +0.172 C 
BRANCH   9  11
ATOM     10  C   UNL     1      -0.294   0.884  11.075  0.00  0.00    +0.005 C 
ATOM     11  C   UNL     1      -1.500   1.264  10.214  0.00  0.00    +0.020 C 
ENDBRANCH   9  11
ENDBRANCH   6   9
ENDBRANCH   1   6
BRANCH   2  12
ATOM     12  N   UNL     1      -2.258   5.699   8.523  0.00  0.00    -0.355 N 
ATOM     13  H   UNL     1      -2.482   6.635   8.640  0.00  0.00    +0.142 HD
ATOM     14  H   UNL     1      -2.337   5.084   9.270  0.00  0.00    +0.142 HD
ENDBRANCH   2  12
BRANCH   5  15
ATOM     15  N   UNL     1      -1.393   2.206   5.211  0.00  0.00    -0.307 N 
ATOM     16  H   UNL     1      -1.603   1.446   5.775  0.00  0.00    +0.153 HD
BRANCH  15  17
ATOM     17  C   UNL     1      -1.046   2.009   3.872  0.00  0.00    +0.032 A 
ATOM     18  C   UNL     1      -0.312   0.890   3.501  0.00  0.00    +0.023 A 
ATOM     19  C   UNL     1       0.029   0.698   2.176  0.00  0.00    +0.005 A 
ATOM     20  C   UNL     1      -0.360   1.618   1.220  0.00  0.00    -0.048 A 
ATOM     21  C   UNL     1      -1.087   2.736   1.587  0.00  0.00    +0.005 A 
ATOM     22  C   UNL     1      -1.436   2.931   2.909  0.00  0.00    +0.023 A 
BRANCH  20  23
ATOM     23  C   UNL     1       0.013   1.405  -0.224  0.00  0.00    +0.032 C 
ATOM     24  C   UNL     1      -1.084   0.598  -0.921  0.00  0.00    +0.009 C 
ENDBRANCH  20  23
ENDBRANCH  15  17
ENDBRANCH   5  15
BRANCH   3  25
ATOM     25  C   UNL     1      -1.178   7.517   6.395  0.00  0.00    +0.202 C 
ATOM     26  O   UNL     1      -1.616   8.127   7.356  0.00  0.00    -0.286 OA
BRANCH  25  27
ATOM     27  C   UNL     1      -0.489   8.247   5.307  0.00  0.00    +0.023 A 
ATOM     28  C   UNL     1       0.407   7.578   4.473  0.00  0.00    +0.012 A 
ATOM     29  C   UNL     1       1.042   8.263   3.457  0.00  0.00    +0.001 A 
ATOM     30  C   UNL     1       0.800   9.612   3.272  0.00  0.00    +0.000 A 
ATOM     31  C   UNL     1      -0.084  10.283   4.099  0.00  0.00    +0.001 A 
ATOM     32  C   UNL     1      -0.729   9.608   5.115  0.00  0.00    +0.012 A 
ENDBRANCH  25  27
ENDBRANCH   3  25
TORSDOF 9
