REMARK  Name = ZINC28721675
REMARK  9 active torsions:
REMARK  status: ('A' for Active; 'I' for Inactive)
REMARK    1  A    between atoms: C_1  and  C_2
REMARK    2  A    between atoms: C_3  and  C_14
REMARK    3  A    between atoms: C_4  and  C_13
REMARK    4  A    between atoms: N_5  and  C_7
REMARK    5  A    between atoms: N_21  and  C_22
REMARK    6  A    between atoms: C_22  and  C_23
REMARK    7  A    between atoms: N_25  and  C_26
REMARK    8  A    between atoms: C_26  and  C_27
REMARK    9  A    between atoms: C_27  and  C_28
REMARK                            x       y       z     vdW  Elec       q    Type
REMARK                         _______ _______ _______ _____ _____    ______ ____
ROOT
ATOM      1  C   UNL     1      -2.628   5.523   0.273  0.00  0.00    +0.054 C 
ATOM      2  C   UNL     1      -3.978   6.143   0.046  0.00  0.00    +0.204 C 
ATOM      3  O   UNL     1      -4.177   7.267   0.455  0.00  0.00    -0.277 OA
ATOM      4  N   UNL     1      -4.968   5.507  -0.588  0.00  0.00    -0.318 N 
ATOM      5  C   UNL     1      -4.843   4.140  -1.087  0.00  0.00    +0.085 C 
ATOM      6  C   UNL     1      -3.367   3.752  -1.187  0.00  0.00    -0.058 C 
ATOM      7  N   UNL     1      -2.707   4.068   0.089  0.00  0.00    +0.397 N 
ATOM      8  H   UNL     1      -5.909   6.060  -0.728  0.00  0.00    +0.149 HD
ATOM      9  H   UNL     1      -3.308   3.646   0.909  0.00  0.00    -0.079 HD
ENDROOT
BRANCH   1  12
ATOM     10  C   UNL     1      -3.691   4.144   2.921  0.00  0.00    +0.068 C 
ATOM     11  C   UNL     1      -2.636   5.218   2.845  0.00  0.00    +0.063 A 
ATOM     12  C   UNL     1      -2.168   5.826   1.675  0.00  0.00    -0.009 A 
ATOM     13  C   UNL     1      -1.224   6.731   2.026  0.00  0.00    +0.044 A 
ATOM     14  N   UNL     1      -1.106   6.702   3.372  0.00  0.00    -0.237 N 
ATOM     15  N   UNL     1      -2.001   5.742   3.862  0.00  0.00    -0.171 NA
ATOM     16  C   UNL     1      -0.447   7.614   1.084  0.00  0.00    +0.066 C 
BRANCH  14  17
ATOM     17  C   UNL     1      -0.237   7.488   4.141  0.00  0.00    +0.066 A 
ATOM     18  C   UNL     1       0.453   6.925   5.206  0.00  0.00    +0.028 A 
ATOM     19  C   UNL     1       1.311   7.702   5.960  0.00  0.00    +0.002 A 
ATOM     20  C   UNL     1       1.476   9.042   5.660  0.00  0.00    +0.000 A 
ATOM     21  C   UNL     1       0.786   9.607   4.604  0.00  0.00    +0.002 A 
ATOM     22  C   UNL     1      -0.070   8.834   3.844  0.00  0.00    +0.028 A 
ENDBRANCH  14  17
ENDBRANCH   1  12
BRANCH   7  23
ATOM     23  C   UNL     1      -1.373   3.455   0.158  0.00  0.00    +0.020 C 
BRANCH  23  24
ATOM     24  C   UNL     1      -1.511   1.956   0.213  0.00  0.00    +0.197 C 
ATOM     25  O   UNL     1      -2.612   1.447   0.197  0.00  0.00    -0.278 OA
ATOM     26  N   UNL     1      -0.411   1.180   0.280  0.00  0.00    -0.317 N 
ATOM     27  H   UNL     1       0.587   1.641   0.295  0.00  0.00    +0.149 HD
BRANCH  26  28
ATOM     28  C   UNL     1      -0.545  -0.278   0.333  0.00  0.00    +0.108 C 
BRANCH  28  29
ATOM     29  C   UNL     1       0.844  -0.916   0.398  0.00  0.00    +0.049 C 
BRANCH  29  30
ATOM     30  C   UNL     1       0.706  -2.416   0.453  0.00  0.00    -0.072 C 
ATOM     31  C   UNL     1       0.782  -3.073  -0.660  0.00  0.00    -0.028 C 
ATOM     32  C   UNL     1       0.654  -4.565  -0.765  0.00  0.00    +0.027 C 
ATOM     33  C   UNL     1       0.851  -5.209   0.609  0.00  0.00    +0.004 C 
ATOM     34  C   UNL     1      -0.042  -4.478   1.620  0.00  0.00    +0.005 C 
ATOM     35  C   UNL     1       0.495  -3.054   1.794  0.00  0.00    +0.030 C 
ENDBRANCH  29  30
ENDBRANCH  28  29
ENDBRANCH  26  28
ENDBRANCH  23  24
ENDBRANCH   7  23
TORSDOF 7
