REMARK  Name = ZINC40476493
REMARK  8 active torsions:
REMARK  status: ('A' for Active; 'I' for Inactive)
REMARK    1  A    between atoms: C_1  and  C_2
REMARK    2  A    between atoms: C_2  and  C_3
REMARK    3  A    between atoms: C_2  and  C_4
REMARK    4  A    between atoms: C_4  and  S_5
REMARK    5  A    between atoms: S_5  and  C_6
REMARK    6  A    between atoms: C_17  and  C_19
REMARK    7  A    between atoms: C_28  and  C_30
REMARK    8  A    between atoms: C_28  and  C_31
REMARK                            x       y       z     vdW  Elec       q    Type
REMARK                         _______ _______ _______ _____ _____    ______ ____
ROOT
ATOM      1  C   UNL     1      -3.116  -2.791  -0.118  0.00  0.00    +0.171 A 
ATOM      2  N   UNL     1      -3.460  -4.105  -0.213  0.00  0.00    -0.302 N 
ATOM      3  H   UNL     1      -2.770  -4.781  -0.299  0.00  0.00    +0.171 HD
ATOM      4  C   UNL     1      -4.760  -4.469  -0.189  0.00  0.00    +0.258 A 
ATOM      5  O   UNL     1      -5.078  -5.645  -0.270  0.00  0.00    -0.267 OA
ATOM      6  C   UNL     1      -5.735  -3.473  -0.068  0.00  0.00    +0.069 A 
ATOM      7  C   UNL     1      -5.333  -2.151   0.020  0.00  0.00    +0.135 A 
ATOM      8  N   UNL     1      -4.030  -1.849   0.001  0.00  0.00    -0.208 NA
ATOM      9  N   UNL     1      -6.281  -1.153   0.130  0.00  0.00    -0.302 N 
ATOM     10  C   UNL     1      -7.580  -1.384  -0.231  0.00  0.00    +0.017 C 
ATOM     11  C   UNL     1      -8.062  -2.642  -0.323  0.00  0.00    +0.024 C 
ATOM     12  C   UNL     1      -7.190  -3.836  -0.033  0.00  0.00    +0.092 C 
ATOM     13  C   UNL     1      -9.399  -2.880  -0.689  0.00  0.00    +0.162 C 
ATOM     14  O   UNL     1      -9.796  -4.024  -0.782  0.00  0.00    -0.292 OA
ATOM     15  C   UNL     1     -10.347  -1.746  -0.966  0.00  0.00    +0.086 C 
ATOM     16  C   UNL     1      -9.908  -0.520  -0.158  0.00  0.00    -0.023 C 
ATOM     17  C   UNL     1      -8.459  -0.193  -0.527  0.00  0.00    +0.058 C 
ATOM     18  C   UNL     1     -10.807   0.670  -0.498  0.00  0.00    +0.011 C 
ATOM     19  C   UNL     1     -10.003  -0.827   1.337  0.00  0.00    +0.011 C 
ATOM     20  H   UNL     1      -6.024  -0.281   0.467  0.00  0.00    +0.153 HD
ENDROOT
BRANCH  12  21
ATOM     21  C   UNL     1      -7.530  -4.374   1.333  0.00  0.00    -0.032 A 
ATOM     22  C   UNL     1      -7.362  -3.592   2.466  0.00  0.00    +0.024 A 
ATOM     23  C   UNL     1      -7.684  -4.120   3.702  0.00  0.00    +0.111 A 
ATOM     24  N   UNL     1      -8.147  -5.350   3.811  0.00  0.00    -0.263 NA
ATOM     25  C   UNL     1      -8.319  -6.122   2.756  0.00  0.00    +0.111 A 
ATOM     26  C   UNL     1      -8.024  -5.661   1.487  0.00  0.00    +0.024 A 
ENDBRANCH  12  21
BRANCH   1  27
ATOM     27  S   UNL     1      -1.412  -2.341  -0.146  0.00  0.00    -0.088 S 
BRANCH  27  28
ATOM     28  C   UNL     1      -1.433  -0.534   0.013  0.00  0.00    +0.080 C 
BRANCH  28  30
ATOM     29  C   UNL     1      -0.019   1.526   0.010  0.00  0.00    +0.008 C 
ATOM     30  C   UNL     1       0.002  -0.004   0.002  0.00  0.00    -0.007 C 
ATOM     31  C   UNL     1       0.742  -0.511   1.242  0.00  0.00    +0.008 C 
ENDBRANCH  28  30
ENDBRANCH  27  28
ENDBRANCH   1  27
TORSDOF 4
