REMARK  Name = ZINC33697064
REMARK  7 active torsions:
REMARK  status: ('A' for Active; 'I' for Inactive)
REMARK    1  A    between atoms: C_1  and  C_2
REMARK    2  A    between atoms: N_11  and  C_15
REMARK    3  A    between atoms: C_15  and  C_16
REMARK    4  A    between atoms: C_19  and  C_34
REMARK    5  A    between atoms: C_22  and  C_24
REMARK    6  A    between atoms: C_37  and  O_40
REMARK    7  A    between atoms: O_40  and  C_41
REMARK                            x       y       z     vdW  Elec       q    Type
REMARK                         _______ _______ _______ _____ _____    ______ ____
ROOT
ATOM      1  C   UNL     1      -0.429   1.370   2.465  0.00  0.00    +0.253 C 
ATOM      2  O   UNL     1       0.551   0.711   2.739  0.00  0.00    -0.272 OA
ATOM      3  N   UNL     1      -0.756   1.587   1.175  0.00  0.00    -0.184 N 
ATOM      4  C   UNL     1      -0.013   1.086   0.008  0.00  0.00    +0.137 C 
ATOM      5  C   UNL     1      -0.814   1.624  -1.194  0.00  0.00    +0.087 C 
ATOM      6  C   UNL     1      -1.953   2.389  -0.559  0.00  0.00    +0.069 C 
ATOM      7  N   UNL     1      -1.854   2.323   0.724  0.00  0.00    -0.181 NA
ENDROOT
BRANCH   6   8
ATOM      8  C   UNL     1      -3.014   3.102  -1.294  0.00  0.00    -0.002 A 
ATOM      9  C   UNL     1      -3.010   3.100  -2.702  0.00  0.00    +0.010 A 
ATOM     10  C   UNL     1      -3.975   3.749  -3.401  0.00  0.00    +0.009 A 
ATOM     11  C   UNL     1      -4.998   4.435  -2.719  0.00  0.00    -0.018 A 
ATOM     12  C   UNL     1      -6.008   5.113  -3.422  0.00  0.00    +0.008 A 
ATOM     13  C   UNL     1      -6.985   5.768  -2.735  0.00  0.00    +0.001 A 
ATOM     14  C   UNL     1      -7.000   5.777  -1.342  0.00  0.00    +0.001 A 
ATOM     15  C   UNL     1      -6.038   5.132  -0.627  0.00  0.00    +0.008 A 
ATOM     16  C   UNL     1      -5.013   4.444  -1.301  0.00  0.00    -0.017 A 
ATOM     17  C   UNL     1      -4.010   3.764  -0.595  0.00  0.00    +0.018 A 
ENDBRANCH   6   8
BRANCH   4  18
ATOM     18  C   UNL     1       1.391   1.634  -0.003  0.00  0.00    -0.024 A 
ATOM     19  C   UNL     1       1.630   2.928   0.420  0.00  0.00    +0.009 A 
ATOM     20  C   UNL     1       2.917   3.431   0.417  0.00  0.00    +0.046 A 
ATOM     21  C   UNL     1       3.968   2.639  -0.022  0.00  0.00    +0.120 A 
ATOM     22  C   UNL     1       3.725   1.343  -0.451  0.00  0.00    +0.046 A 
ATOM     23  C   UNL     1       2.437   0.843  -0.440  0.00  0.00    +0.009 A 
BRANCH  21  24
ATOM     24  O   UNL     1       5.234   3.133  -0.031  0.00  0.00    -0.495 OA
ATOM     25  C   UNL     1       5.410   4.476   0.425  0.00  0.00    +0.277 C 
ENDBRANCH  21  24
ENDBRANCH   4  18
BRANCH   1  26
ATOM     26  C   UNL     1      -1.283   1.946   3.565  0.00  0.00    +0.215 C 
BRANCH  26  36
ATOM     27  C   UNL     1       2.277   0.261   5.654  0.00  0.00    +0.010 C 
ATOM     28  C   UNL     1       1.937   1.123   6.871  0.00  0.00    +0.018 C 
ATOM     29  C   UNL     1       2.192   0.323   8.150  0.00  0.00    +0.006 C 
ATOM     30  C   UNL     1       1.832   1.179   9.366  0.00  0.00    +0.000 C 
ATOM     31  C   UNL     1       0.352   1.561   9.302  0.00  0.00    +0.003 C 
ATOM     32  C   UNL     1       0.089   2.367   8.027  0.00  0.00    +0.035 C 
ATOM     33  C   UNL     1       0.470   1.534   6.808  0.00  0.00    +0.115 C 
ATOM     34  C   UNL     1       0.192   2.302   5.537  0.00  0.00    +0.247 C 
ATOM     35  O   UNL     1       0.685   3.355   5.193  0.00  0.00    -0.273 OA
ATOM     36  N   UNL     1      -0.722   1.571   4.865  0.00  0.00    -0.215 N 
ATOM     37  C   UNL     1      -1.055   0.462   5.537  0.00  0.00    +0.310 C 
ATOM     38  O   UNL     1      -1.863  -0.353   5.138  0.00  0.00    -0.252 OA
ATOM     39  N   UNL     1      -0.393   0.349   6.704  0.00  0.00    -0.285 N 
ATOM     40  H   UNL     1      -0.392  -0.404   7.506  0.00  0.00    +0.151 HD
ENDBRANCH  26  36
ENDBRANCH   1  26
TORSDOF 5
