REMARK  Name = ZINC01314439
REMARK  5 active torsions:
REMARK  status: ('A' for Active; 'I' for Inactive)
REMARK    1  A    between atoms: C_4  and  C_7
REMARK    2  A    between atoms: C_9  and  C_21
REMARK    3  A    between atoms: C_11  and  C_16
REMARK    4  A    between atoms: C_11  and  O_20
REMARK    5  A    between atoms: C_21  and  C_23
REMARK                            x       y       z     vdW  Elec       q    Type
REMARK                         _______ _______ _______ _____ _____    ______ ____
ROOT
ATOM      1  C   UNL     1       1.081   3.523   0.712  0.00  0.00    +0.117 C 
ATOM      2  C   UNL     1       1.278   2.179   0.002  0.00  0.00    +0.144 C 
ATOM      3  C   UNL     1       1.706   2.450  -1.445  0.00  0.00    +0.241 C 
ATOM      4  N   UNL     1       2.901   3.296  -1.441  0.00  0.00    -0.291 N 
ATOM      5  C   UNL     1       3.136   4.167  -0.448  0.00  0.00    +0.133 C 
ATOM      6  S   UNL     1       4.547   5.133  -0.519  0.00  0.00    -0.019 S 
ATOM      7  N   UNL     1       2.310   4.310   0.599  0.00  0.00    -0.319 N 
ATOM      8  H   UNL     1       3.535   3.226  -2.172  0.00  0.00    +0.151 HD
ATOM      9  H   UNL     1       2.531   4.948   1.295  0.00  0.00    +0.148 HD
ENDROOT
BRANCH   1  13
ATOM     10  C   UNL     1       0.198   2.840   4.835  0.00  0.00    +0.000 A 
ATOM     11  C   UNL     1      -0.823   3.121   3.947  0.00  0.00    +0.000 A 
ATOM     12  C   UNL     1      -0.537   3.342   2.613  0.00  0.00    +0.005 A 
ATOM     13  C   UNL     1       0.769   3.282   2.167  0.00  0.00    -0.026 A 
ATOM     14  C   UNL     1       1.790   2.996   3.054  0.00  0.00    +0.005 A 
ATOM     15  C   UNL     1       1.505   2.780   4.389  0.00  0.00    +0.000 A 
ENDBRANCH   1  13
BRANCH   3  16
ATOM     16  C   UNL     1       2.020   1.125  -2.142  0.00  0.00    +0.436 C 
ATOM     17  F   UNL     1       0.880   0.315  -2.138  0.00  0.00    -0.166 F 
ATOM     18  F   UNL     1       2.411   1.374  -3.462  0.00  0.00    -0.166 F 
ATOM     19  F   UNL     1       3.056   0.475  -1.463  0.00  0.00    -0.166 F 
ENDBRANCH   3  16
BRANCH   3  20
ATOM     20  O   UNL     1       0.650   3.118  -2.138  0.00  0.00    -0.364 OA
ATOM     21  H   UNL     1       0.853   3.321  -3.062  0.00  0.00    +0.212 HD
ENDBRANCH   3  20
BRANCH   2  22
ATOM     22  C   UNL     1      -0.017   1.408   0.010  0.00  0.00    +0.179 C 
ATOM     23  O   UNL     1      -1.077   2.001   0.018  0.00  0.00    -0.291 OA
BRANCH  22  24
ATOM     24  C   UNL     1       0.002  -0.004   0.002  0.00  0.00    +0.055 A 
ATOM     25  C   UNL     1      -1.066  -0.896   0.013  0.00  0.00    +0.019 A 
ATOM     26  C   UNL     1      -0.761  -2.232  -0.003  0.00  0.00    +0.008 A 
ATOM     27  C   UNL     1       0.544  -2.616  -0.017  0.00  0.00    +0.046 A 
ATOM     28  S   UNL     1       1.402  -1.110  -0.017  0.00  0.00    -0.094 S 
ENDBRANCH  22  24
ENDBRANCH   2  22
TORSDOF 5
