REMARK  Name = ZINC39469633
REMARK  7 active torsions:
REMARK  status: ('A' for Active; 'I' for Inactive)
REMARK    1  A    between atoms: C_1  and  O_2
REMARK    2  A    between atoms: O_2  and  C_3
REMARK    3  A    between atoms: P_12  and  S_28
REMARK    4  A    between atoms: C_20  and  C_21
REMARK    5  A    between atoms: C_26  and  O_27
REMARK    6  A    between atoms: S_28  and  O_31
REMARK    7  A    between atoms: O_31  and  C_32
REMARK                            x       y       z     vdW  Elec       q    Type
REMARK                         _______ _______ _______ _____ _____    ______ ____
ROOT
ATOM      1  C   UNL     1       0.626  -0.618   1.041  0.00  0.00    +0.124 C 
ATOM      2  C   UNL     1       1.181   0.105   2.014  0.00  0.00    +0.023 C 
ATOM      3  C   UNL     1       1.861  -0.581   3.167  0.00  0.00    +0.019 C 
ATOM      4  C   UNL     1       1.871   0.323   4.391  0.00  0.00    -0.002 C 
ATOM      5  C   UNL     1       1.941  -0.496   5.686  0.00  0.00    -0.020 C 
ATOM      6  C   UNL     1       2.653   0.403   6.707  0.00  0.00    +0.158 C 
ATOM      7  O   UNL     1       2.747  -0.260   7.978  0.00  0.00    -0.301 OA
ATOM      8  P   UNL     1       3.356  -1.770   7.988  0.00  0.00    +0.431 P 
ATOM      9  O   UNL     1       2.933  -2.488   9.211  0.00  0.00    -0.246 OA
ATOM     10  N   UNL     1       2.717  -2.491   6.650  0.00  0.00    -0.271 NA
ATOM     11  N   UNL     1       2.649  -1.754   5.485  0.00  0.00    +0.398 N 
ATOM     12  C   UNL     1       1.948  -2.647   4.549  0.00  0.00    -0.046 C 
ATOM     13  C   UNL     1       1.117  -1.867   3.519  0.00  0.00    +0.005 C 
ATOM     14  C   UNL     1       0.922  -2.699   2.279  0.00  0.00    -0.013 C 
ATOM     15  C   UNL     1       0.688  -2.097   1.105  0.00  0.00    +0.023 C 
ATOM     16  H   UNL     1       2.405  -3.409   6.684  0.00  0.00    +0.113 HD
ATOM     17  H   UNL     1       3.578  -1.566   5.140  0.00  0.00    -0.055 HD
ENDROOT
BRANCH  15  18
ATOM     18  C   UNL     1       0.500  -2.907  -0.122  0.00  0.00    +0.027 A 
ATOM     19  C   UNL     1      -0.698  -3.585  -0.337  0.00  0.00    +0.012 A 
ATOM     20  C   UNL     1      -0.868  -4.337  -1.481  0.00  0.00    +0.001 A 
ATOM     21  C   UNL     1       0.147  -4.421  -2.418  0.00  0.00    +0.004 A 
ATOM     22  C   UNL     1       1.339  -3.753  -2.215  0.00  0.00    +0.046 A 
ATOM     23  C   UNL     1       1.522  -2.989  -1.073  0.00  0.00    +0.125 A 
BRANCH  23  24
ATOM     24  O   UNL     1       2.692  -2.327  -0.876  0.00  0.00    -0.506 OA
ATOM     25  H   UNL     1       3.360  -2.842  -0.404  0.00  0.00    +0.292 HD
ENDBRANCH  23  24
ENDBRANCH  15  18
BRANCH   8  26
ATOM     26  S   UNL     1       5.471  -1.713   7.862  0.00  0.00    +0.209 S 
ATOM     27  O   UNL     1       5.923  -3.051   8.021  0.00  0.00    -0.126 OA
ATOM     28  O   UNL     1       5.789  -0.933   6.718  0.00  0.00    -0.126 OA
BRANCH  26  29
ATOM     29  O   UNL     1       5.973  -0.937   9.071  0.00  0.00    -0.339 OA
BRANCH  29  30
ATOM     30  C   UNL     1       5.918  -1.633  10.237  0.00  0.00    +0.157 A 
ATOM     31  C   UNL     1       4.777  -1.579  11.025  0.00  0.00    +0.048 A 
ATOM     32  C   UNL     1       4.722  -2.288  12.209  0.00  0.00    +0.004 A 
ATOM     33  C   UNL     1       5.804  -3.051  12.610  0.00  0.00    +0.000 A 
ATOM     34  C   UNL     1       6.942  -3.107  11.827  0.00  0.00    +0.004 A 
ATOM     35  C   UNL     1       6.999  -2.404  10.638  0.00  0.00    +0.048 A 
ENDBRANCH  29  30
ENDBRANCH  26  29
ENDBRANCH   8  26
BRANCH   1  37
ATOM     36  C   UNL     1      -0.017   1.425   0.010  0.00  0.00    +0.277 C 
ATOM     37  O   UNL     1       0.002  -0.004   0.002  0.00  0.00    -0.495 OA
ENDBRANCH   1  37
TORSDOF 6
