REMARK  Name = ZINC39968905
REMARK  12 active torsions:
REMARK  status: ('A' for Active; 'I' for Inactive)
REMARK    1  A    between atoms: C_1  and  C_2
REMARK    2  A    between atoms: C_2  and  O_3
REMARK    3  A    between atoms: O_3  and  C_4
REMARK    4  A    between atoms: C_4  and  C_6
REMARK    5  A    between atoms: C_10  and  N_11
REMARK    6  A    between atoms: N_11  and  C_12
REMARK    7  A    between atoms: C_12  and  N_14
REMARK    8  A    between atoms: N_14  and  C_15
REMARK    9  A    between atoms: C_21  and  C_23
REMARK   10  A    between atoms: C_23  and  C_24
REMARK   11  A    between atoms: C_23  and  C_25
REMARK   12  A    between atoms: C_23  and  C_26
REMARK                            x       y       z     vdW  Elec       q    Type
REMARK                         _______ _______ _______ _____ _____    ______ ____
ROOT
ATOM      1  C   UNL     1       0.999  -1.125  -2.814  0.00  0.00    +0.091 A 
ATOM      2  C   UNL     1       2.457  -1.016  -2.952  0.00  0.00    -0.021 A 
ATOM      3  C   UNL     1       2.882  -1.262  -4.204  0.00  0.00    -0.004 A 
ATOM      4  S   UNL     1       1.426  -1.671  -5.128  0.00  0.00    -0.077 S 
ATOM      5  C   UNL     1       0.267  -1.483  -3.930  0.00  0.00    +0.086 A 
ATOM      6  C   UNL     1       4.277  -1.155  -4.751  0.00  0.00    +0.043 C 
ATOM      7  C   UNL     1       4.557   0.339  -4.997  0.00  0.00    +0.005 C 
ATOM      8  C   UNL     1       4.280   1.099  -3.696  0.00  0.00    +0.000 C 
ATOM      9  C   UNL     1       5.260   0.545  -2.683  0.00  0.00    +0.000 C 
ATOM     10  C   UNL     1       4.796  -0.740  -2.019  0.00  0.00    +0.005 C 
ATOM     11  C   UNL     1       3.302  -0.721  -1.717  0.00  0.00    +0.037 C 
ENDROOT
BRANCH   1  12
ATOM     12  C   UNL     1       0.341  -0.867  -1.532  0.00  0.00    +0.342 C 
ATOM     13  O   UNL     1       0.172  -1.776  -0.742  0.00  0.00    -0.245 OA
BRANCH  12  14
ATOM     14  O   UNL     1      -0.077   0.378  -1.227  0.00  0.00    -0.461 OA
BRANCH  14  16
ATOM     15  C   UNL     1      -1.113   2.024   0.208  0.00  0.00    +0.048 C 
ATOM     16  C   UNL     1      -0.711   0.557   0.041  0.00  0.00    +0.229 C 
ENDBRANCH  14  16
ENDBRANCH  12  14
ENDBRANCH   1  12
BRANCH   5  17
ATOM     17  N   UNL     1      -1.104  -1.647  -4.035  0.00  0.00    -0.291 N 
ATOM     18  H   UNL     1      -1.670  -1.505  -3.260  0.00  0.00    +0.154 HD
BRANCH  17  19
ATOM     19  C   UNL     1      -1.652  -2.003  -5.214  0.00  0.00    +0.135 C 
ATOM     20  S   UNL     1      -0.653  -2.253  -6.581  0.00  0.00    -0.019 S 
BRANCH  19  21
ATOM     21  N   UNL     1      -2.986  -2.162  -5.316  0.00  0.00    -0.323 N 
ATOM     22  H   UNL     1      -3.553  -2.020  -4.541  0.00  0.00    +0.148 HD
BRANCH  21  23
ATOM     23  C   UNL     1      -3.582  -2.549  -6.598  0.00  0.00    +0.076 C 
ATOM     24  C   UNL     1      -3.915  -1.292  -7.405  0.00  0.00    +0.022 C 
ATOM     25  C   UNL     1      -4.537  -1.697  -8.743  0.00  0.00    +0.002 C 
ATOM     26  C   UNL     1      -5.817  -2.495  -8.490  0.00  0.00    +0.000 C 
ATOM     27  C   UNL     1      -5.484  -3.751  -7.683  0.00  0.00    +0.006 C 
ATOM     28  C   UNL     1      -4.862  -3.347  -6.345  0.00  0.00    +0.015 C 
BRANCH  28  29
ATOM     29  C   UNL     1      -4.529  -4.603  -5.537  0.00  0.00    -0.033 C 
ATOM     30  C   UNL     1      -4.053  -4.200  -4.140  0.00  0.00    +0.011 C 
ATOM     31  C   UNL     1      -5.778  -5.479  -5.418  0.00  0.00    +0.011 C 
ATOM     32  C   UNL     1      -3.422  -5.386  -6.246  0.00  0.00    +0.011 C 
ENDBRANCH  28  29
ENDBRANCH  21  23
ENDBRANCH  19  21
ENDBRANCH  17  19
ENDBRANCH   5  17
TORSDOF 8
