REMARK  Name = ZINC05304042
REMARK  8 active torsions:
REMARK  status: ('A' for Active; 'I' for Inactive)
REMARK    1  A    between atoms: C_1  and  C_2
REMARK    2  A    between atoms: C_2  and  C_3
REMARK    3  A    between atoms: C_3  and  C_4
REMARK    4  A    between atoms: C_4  and  C_5
REMARK    5  A    between atoms: C_5  and  C_22
REMARK    6  A    between atoms: N_8  and  C_12
REMARK    7  A    between atoms: C_12  and  C_13
REMARK    8  A    between atoms: N_18  and  C_19
REMARK                            x       y       z     vdW  Elec       q    Type
REMARK                         _______ _______ _______ _____ _____    ______ ____
ROOT
ATOM      1  C   UNL     1       1.455  -2.521  -2.524  0.00  0.00    +0.138 C 
ATOM      2  C   UNL     1       2.881  -2.007  -2.562  0.00  0.00    +0.251 C 
ATOM      3  O   UNL     1       3.762  -2.233  -1.761  0.00  0.00    -0.272 OA
ATOM      4  N   UNL     1       2.965  -1.248  -3.673  0.00  0.00    -0.215 N 
ATOM      5  C   UNL     1       1.803  -1.211  -4.334  0.00  0.00    +0.310 C 
ATOM      6  O   UNL     1       1.632  -0.592  -5.366  0.00  0.00    -0.252 OA
ATOM      7  N   UNL     1       0.844  -1.936  -3.731  0.00  0.00    -0.281 N 
ATOM      8  H   UNL     1      -0.071  -2.052  -4.031  0.00  0.00    +0.152 HD
ENDROOT
BRANCH   1   9
ATOM      9  C   UNL     1       1.428  -4.026  -2.592  0.00  0.00    -0.015 A 
ATOM     10  C   UNL     1       1.401  -4.769  -1.427  0.00  0.00    +0.009 A 
ATOM     11  C   UNL     1       1.375  -6.150  -1.488  0.00  0.00    +0.039 A 
ATOM     12  C   UNL     1       1.377  -6.788  -2.716  0.00  0.00    +0.123 A 
ATOM     13  C   UNL     1       1.405  -6.042  -3.883  0.00  0.00    +0.039 A 
ATOM     14  C   UNL     1       1.425  -4.662  -3.819  0.00  0.00    +0.009 A 
ATOM     15  F   UNL     1       1.353  -8.138  -2.777  0.00  0.00    -0.205 F 
ENDBRANCH   1   9
BRANCH   1  16
ATOM     16  C   UNL     1       0.739  -2.027  -1.265  0.00  0.00    +0.040 C 
BRANCH  16  17
ATOM     17  C   UNL     1       0.718  -0.497  -1.257  0.00  0.00    +0.003 C 
BRANCH  17  19
ATOM     18  C   UNL     1      -0.019   1.526   0.010  0.00  0.00    +0.004 C 
ATOM     19  C   UNL     1       0.002  -0.004   0.002  0.00  0.00    -0.003 C 
ENDBRANCH  17  19
ENDBRANCH  16  17
ENDBRANCH   1  16
BRANCH   4  20
ATOM     20  C   UNL     1       4.179  -0.550  -4.102  0.00  0.00    +0.214 C 
BRANCH  20  21
ATOM     21  C   UNL     1       4.987  -1.451  -4.999  0.00  0.00    +0.238 C 
ATOM     22  O   UNL     1       4.588  -2.567  -5.255  0.00  0.00    -0.274 OA
ATOM     23  N   UNL     1       6.153  -1.017  -5.517  0.00  0.00    -0.239 N 
ATOM     24  C   UNL     1       6.876  -1.823  -6.320  0.00  0.00    +0.306 C 
ATOM     25  O   UNL     1       6.476  -2.942  -6.577  0.00  0.00    -0.252 OA
ATOM     26  N   UNL     1       8.042  -1.389  -6.838  0.00  0.00    -0.296 N 
ATOM     27  H   UNL     1       6.472  -0.124  -5.312  0.00  0.00    +0.159 HD
ATOM     28  H   UNL     1       8.361  -0.496  -6.633  0.00  0.00    +0.151 HD
BRANCH  26  29
ATOM     29  C   UNL     1       8.827  -2.266  -7.711  0.00  0.00    +0.075 C 
ATOM     30  C   UNL     1       9.427  -1.649  -8.976  0.00  0.00    +0.024 C 
ATOM     31  C   UNL     1      10.333  -2.011  -7.797  0.00  0.00    +0.024 C 
ENDBRANCH  26  29
ENDBRANCH  20  21
ENDBRANCH   4  20
TORSDOF 7
