REMARK  Name = ZINC63541384
REMARK  9 active torsions:
REMARK  status: ('A' for Active; 'I' for Inactive)
REMARK    1  A    between atoms: C_1  and  C_2
REMARK    2  A    between atoms: C_2  and  O_3
REMARK    3  A    between atoms: O_3  and  C_4
REMARK    4  A    between atoms: C_9  and  S_14
REMARK    5  A    between atoms: S_14  and  C_15
REMARK    6  A    between atoms: C_15  and  C_16
REMARK    7  A    between atoms: N_21  and  S_23
REMARK    8  A    between atoms: S_23  and  C_26
REMARK    9  A    between atoms: C_29  and  C_32
REMARK                            x       y       z     vdW  Elec       q    Type
REMARK                         _______ _______ _______ _____ _____    ______ ____
ROOT
ATOM      1  C   UNL     1       5.684  -6.303  -1.447  0.00  0.00    +0.227 C 
ATOM      2  O   UNL     1       6.063  -7.270  -2.072  0.00  0.00    -0.275 OA
ATOM      3  N   UNL     1       6.484  -5.747  -0.516  0.00  0.00    -0.285 N 
ATOM      4  C   UNL     1       6.176  -4.579   0.332  0.00  0.00    +0.126 C 
ATOM      5  C   UNL     1       7.554  -3.956   0.628  0.00  0.00    +0.130 C 
ATOM      6  N   UNL     1       8.503  -5.080   0.562  0.00  0.00    -0.158 NA
ATOM      7  C   UNL     1       7.834  -6.186  -0.138  0.00  0.00    +0.218 C 
ENDROOT
BRANCH   6   8
ATOM      8  S   UNL     1      10.043  -5.097   1.173  0.00  0.00    +0.062 S 
ATOM      9  O   UNL     1      10.759  -6.080   0.437  0.00  0.00    -0.153 OA
ATOM     10  O   UNL     1      10.466  -3.743   1.247  0.00  0.00    -0.153 OA
BRANCH   8  11
ATOM     11  C   UNL     1       9.939  -5.685   2.830  0.00  0.00    +0.106 A 
ATOM     12  C   UNL     1       9.752  -4.793   3.869  0.00  0.00    +0.029 A 
ATOM     13  C   UNL     1       9.671  -5.254   5.170  0.00  0.00    +0.005 A 
ATOM     14  C   UNL     1       9.777  -6.607   5.432  0.00  0.00    -0.050 A 
ATOM     15  C   UNL     1       9.963  -7.500   4.393  0.00  0.00    +0.005 A 
ATOM     16  C   UNL     1      10.040  -7.039   3.091  0.00  0.00    +0.029 A 
ATOM     17  C   UNL     1       9.689  -7.110   6.850  0.00  0.00    +0.044 C 
ENDBRANCH   8  11
ENDBRANCH   6   8
BRANCH   1  18
ATOM     18  C   UNL     1       4.319  -5.723  -1.711  0.00  0.00    +0.168 C 
BRANCH  18  19
ATOM     19  S   UNL     1       3.493  -6.685  -3.009  0.00  0.00    -0.106 S 
BRANCH  19  25
ATOM     20  C   UNL     1       0.776  -1.807  -1.336  0.00  0.00    +0.123 A 
ATOM     21  C   UNL     1       0.208  -2.690  -0.325  0.00  0.00    +0.048 A 
ATOM     22  C   UNL     1       0.281  -4.030  -0.429  0.00  0.00    +0.031 A 
ATOM     23  C   UNL     1       0.949  -4.637  -1.589  0.00  0.00    +0.061 A 
ATOM     24  N   UNL     1       1.157  -5.877  -1.931  0.00  0.00    -0.355 N 
ATOM     25  C   UNL     1       1.885  -5.869  -3.205  0.00  0.00    +0.236 C 
ATOM     26  N   UNL     1       2.076  -4.458  -3.565  0.00  0.00    -0.355 N 
ATOM     27  C   UNL     1       1.530  -3.738  -2.623  0.00  0.00    +0.064 A 
ATOM     28  C   UNL     1       1.403  -2.291  -2.436  0.00  0.00    +0.073 A 
ATOM     29  H   UNL     1       0.882  -6.662  -1.433  0.00  0.00    +0.162 HD
ATOM     30  H   UNL     1       2.524  -4.123  -4.357  0.00  0.00    +0.162 HD
BRANCH  20  31
ATOM     31  O   UNL     1       0.671  -0.465  -1.174  0.00  0.00    -0.492 OA
BRANCH  31  33
ATOM     32  C   UNL     1      -0.019   1.526   0.010  0.00  0.00    +0.048 C 
ATOM     33  C   UNL     1       0.002  -0.004   0.002  0.00  0.00    +0.225 C 
ENDBRANCH  31  33
ENDBRANCH  20  31
ENDBRANCH  19  25
ENDBRANCH  18  19
ENDBRANCH   1  18
TORSDOF 7
