REMARK  Name = ZINC13638407
REMARK  4 active torsions:
REMARK  status: ('A' for Active; 'I' for Inactive)
REMARK    1  A    between atoms: C_4  and  N_7
REMARK    2  A    between atoms: N_7  and  S_8
REMARK    3  A    between atoms: S_8  and  C_11
REMARK    4  A    between atoms: C_24  and  C_27
REMARK                            x       y       z     vdW  Elec       q    Type
REMARK                         _______ _______ _______ _____ _____    ______ ____
ROOT
ATOM      1  C   UNL     1       0.692   2.175   1.337  0.00  0.00    +0.109 A 
ATOM      2  C   UNL     1       1.326   3.263   1.909  0.00  0.00    +0.030 A 
ATOM      3  C   UNL     1       2.516   3.095   2.585  0.00  0.00    +0.025 A 
ATOM      4  C   UNL     1       3.088   1.833   2.697  0.00  0.00    +0.031 A 
ATOM      5  C   UNL     1       2.448   0.739   2.105  0.00  0.00    -0.018 A 
ATOM      6  C   UNL     1       1.256   0.916   1.437  0.00  0.00    +0.034 A 
ATOM      7  C   UNL     1       3.111  -0.579   2.211  0.00  0.00    +0.049 C 
ATOM      8  C   UNL     1       2.344  -1.850   2.155  0.00  0.00    -0.023 C 
ATOM      9  C   UNL     1       2.967  -2.754   2.902  0.00  0.00    -0.030 C 
ATOM     10  C   UNL     1       4.204  -2.132   3.553  0.00  0.00    +0.033 C 
ATOM     11  C   UNL     1       3.815  -0.649   3.599  0.00  0.00    +0.029 C 
ATOM     12  C   UNL     1       4.943   0.365   3.532  0.00  0.00    +0.105 C 
ATOM     13  N   UNL     1       4.286   1.685   3.406  0.00  0.00    -0.336 N 
ATOM     14  H   UNL     1       4.693   2.461   3.822  0.00  0.00    +0.147 HD
ENDROOT
BRANCH  12  15
ATOM     15  C   UNL     1       5.767   0.312   4.793  0.00  0.00    -0.027 A 
ATOM     16  C   UNL     1       5.288   0.886   5.956  0.00  0.00    +0.006 A 
ATOM     17  C   UNL     1       6.040   0.833   7.114  0.00  0.00    +0.015 A 
ATOM     18  C   UNL     1       7.278   0.215   7.106  0.00  0.00    +0.018 A 
ATOM     19  C   UNL     1       7.759  -0.354   5.941  0.00  0.00    +0.015 A 
ATOM     20  C   UNL     1       7.003  -0.305   4.785  0.00  0.00    +0.006 A 
ATOM     21 BR   UNL     1       8.312   0.150   8.688  0.00  0.00    -0.050 Br
ENDBRANCH  12  15
BRANCH   1  22
ATOM     22  S   UNL     1      -0.829   2.393   0.474  0.00  0.00    +0.072 S 
ATOM     23  O   UNL     1      -0.811   3.713  -0.052  0.00  0.00    -0.150 OA
ATOM     24  O   UNL     1      -0.997   1.247  -0.349  0.00  0.00    -0.150 OA
BRANCH  22  25
ATOM     25  N   UNL     1      -2.041   2.349   1.601  0.00  0.00    -0.216 N 
ATOM     26  H   UNL     1      -2.600   3.129   1.742  0.00  0.00    +0.174 HD
BRANCH  25  30
ATOM     27  C   UNL     1      -2.692  -1.110   3.825  0.00  0.00    +0.000 A 
ATOM     28  C   UNL     1      -2.077  -0.018   4.411  0.00  0.00    +0.002 A 
ATOM     29  C   UNL     1      -1.859   1.130   3.676  0.00  0.00    +0.024 A 
ATOM     30  C   UNL     1      -2.260   1.189   2.347  0.00  0.00    +0.048 A 
ATOM     31  C   UNL     1      -2.882   0.093   1.763  0.00  0.00    +0.024 A 
ATOM     32  C   UNL     1      -3.092  -1.055   2.502  0.00  0.00    +0.002 A 
ENDBRANCH  25  30
ENDBRANCH  22  25
ENDBRANCH   1  22
TORSDOF 4
