REMARK  Name = ZINC09932217
REMARK  9 active torsions:
REMARK  status: ('A' for Active; 'I' for Inactive)
REMARK    1  A    between atoms: C_1  and  C_2
REMARK    2  A    between atoms: C_4  and  C_31
REMARK    3  A    between atoms: C_9  and  C_10
REMARK    4  A    between atoms: C_10  and  N_11
REMARK    5  A    between atoms: C_12  and  C_14
REMARK    6  A    between atoms: C_19  and  N_20
REMARK    7  A    between atoms: N_20  and  C_21
REMARK    8  A    between atoms: C_24  and  S_27
REMARK    9  A    between atoms: S_27  and  C_28
REMARK                            x       y       z     vdW  Elec       q    Type
REMARK                         _______ _______ _______ _____ _____    ______ ____
ROOT
ATOM      1  C   UNL     1      -3.096   0.823   4.743  0.00  0.00    +0.058 A 
ATOM      2  C   UNL     1      -4.215   0.419   4.011  0.00  0.00    +0.015 A 
ATOM      3  C   UNL     1      -5.480   0.655   4.502  0.00  0.00    +0.001 A 
ATOM      4  C   UNL     1      -5.650   1.293   5.721  0.00  0.00    +0.002 A 
ATOM      5  C   UNL     1      -4.556   1.699   6.456  0.00  0.00    +0.024 A 
ATOM      6  C   UNL     1      -3.272   1.464   5.980  0.00  0.00    +0.044 A 
ENDROOT
BRANCH   1   8
ATOM      7  N   UNL     1      -1.575   0.056   2.990  0.00  0.00    -0.307 N 
ATOM      8  C   UNL     1      -1.739   0.574   4.223  0.00  0.00    +0.246 C 
ATOM      9  O   UNL     1      -0.768   0.836   4.907  0.00  0.00    -0.270 OA
ATOM     10  H   UNL     1      -2.349  -0.153   2.445  0.00  0.00    +0.149 HD
BRANCH   7  11
ATOM     11  C   UNL     1      -0.227  -0.192   2.473  0.00  0.00    +0.145 C 
BRANCH  11  20
ATOM     12  C   UNL     1      -0.044   1.530   0.163  0.00  0.00    +0.044 C 
ATOM     13  C   UNL     1      -0.233   0.045  -0.007  0.00  0.00    -0.039 A 
ATOM     14  C   UNL     1      -0.317  -0.517  -1.289  0.00  0.00    +0.024 A 
ATOM     15  C   UNL     1      -0.487  -1.852  -1.432  0.00  0.00    +0.016 A 
ATOM     16  N   UNL     1      -0.577  -2.659  -0.345  0.00  0.00    -0.326 N 
ATOM     17  H   UNL     1      -0.699  -3.614  -0.466  0.00  0.00    +0.169 HD
ATOM     18  C   UNL     1      -0.500  -2.150   0.899  0.00  0.00    +0.254 A 
ATOM     19  O   UNL     1      -0.583  -2.889   1.867  0.00  0.00    -0.268 OA
ATOM     20  C   UNL     1      -0.319  -0.769   1.084  0.00  0.00    +0.037 A 
ATOM     21  C   UNL     1      -0.577  -2.448  -2.813  0.00  0.00    +0.063 C 
ENDBRANCH  11  20
ENDBRANCH   7  11
ENDBRANCH   1   8
BRANCH   6  22
ATOM     22  N   UNL     1      -2.168   1.866   6.721  0.00  0.00    -0.314 N 
ATOM     23  H   UNL     1      -1.848   1.315   7.453  0.00  0.00    +0.152 HD
BRANCH  22  24
ATOM     24  C   UNL     1      -1.516   3.066   6.412  0.00  0.00    +0.031 A 
ATOM     25  C   UNL     1      -1.992   3.870   5.384  0.00  0.00    +0.024 A 
ATOM     26  C   UNL     1      -1.350   5.053   5.079  0.00  0.00    +0.017 A 
ATOM     27  C   UNL     1      -0.227   5.440   5.800  0.00  0.00    +0.013 A 
ATOM     28  C   UNL     1       0.249   4.636   6.828  0.00  0.00    +0.017 A 
ATOM     29  C   UNL     1      -0.397   3.455   7.137  0.00  0.00    +0.024 A 
BRANCH  27  30
ATOM     30  S   UNL     1       0.594   6.949   5.410  0.00  0.00    -0.056 S 
BRANCH  30  31
ATOM     31  C   UNL     1       1.967   7.020   6.593  0.00  0.00    +0.404 C 
ATOM     32  F   UNL     1       1.461   7.017   7.897  0.00  0.00    -0.197 F 
ATOM     33  F   UNL     1       2.796   5.908   6.412  0.00  0.00    -0.197 F 
ENDBRANCH  30  31
ENDBRANCH  27  30
ENDBRANCH  22  24
ENDBRANCH   6  22
TORSDOF 7
