REMARK  Name = ZINC15015988
REMARK  6 active torsions:
REMARK  status: ('A' for Active; 'I' for Inactive)
REMARK    1  A    between atoms: C_1  and  C_2
REMARK    2  A    between atoms: C_5  and  C_8
REMARK    3  A    between atoms: C_8  and  S_9
REMARK    4  A    between atoms: S_9  and  C_10
REMARK    5  A    between atoms: C_23  and  C_26
REMARK    6  A    between atoms: C_30  and  O_33
REMARK                            x       y       z     vdW  Elec       q    Type
REMARK                         _______ _______ _______ _____ _____    ______ ____
ROOT
ATOM      1  C   UNL     1       1.292  -0.515  -0.069  0.00  0.00    +0.213 A 
ATOM      2  N   UNL     1       0.113   0.101  -0.074  0.00  0.00    -0.184 NA
ATOM      3  C   UNL     1       0.071   1.419   0.014  0.00  0.00    +0.248 A 
ATOM      4  C   UNL     1       1.287   2.132   0.116  0.00  0.00    +0.156 A 
ATOM      5  N   UNL     1       2.428   1.459   0.112  0.00  0.00    -0.141 NA
ATOM      6  N   UNL     1       2.423   0.174   0.022  0.00  0.00    -0.122 NA
ATOM      7  C   UNL     1       1.262   3.605   0.230  0.00  0.00    +0.028 A 
ATOM      8  C   UNL     1       2.080   4.409  -0.553  0.00  0.00    +0.012 A 
ATOM      9  C   UNL     1       2.036   5.782  -0.406  0.00  0.00    +0.001 A 
ATOM     10  C   UNL     1       1.183   6.361   0.518  0.00  0.00    +0.002 A 
ATOM     11  C   UNL     1       0.360   5.572   1.301  0.00  0.00    +0.024 A 
ATOM     12  C   UNL     1       0.388   4.197   1.160  0.00  0.00    +0.039 A 
ATOM     13  N   UNL     1      -0.456   3.372   1.910  0.00  0.00    -0.305 N 
ATOM     14  C   UNL     1      -1.539   2.669   1.228  0.00  0.00    +0.295 C 
ATOM     15  O   UNL     1      -1.104   2.090   0.002  0.00  0.00    -0.449 OA
ATOM     16  H   UNL     1      -0.325   3.268   2.865  0.00  0.00    +0.150 HD
ENDROOT
BRANCH  14  17
ATOM     17  C   UNL     1      -2.653   3.642   0.942  0.00  0.00    +0.033 A 
ATOM     18  C   UNL     1      -2.721   4.273  -0.287  0.00  0.00    +0.010 A 
ATOM     19  C   UNL     1      -3.742   5.166  -0.553  0.00  0.00    +0.004 A 
ATOM     20  C   UNL     1      -4.698   5.431   0.409  0.00  0.00    +0.047 A 
ATOM     21  C   UNL     1      -4.633   4.801   1.642  0.00  0.00    +0.136 A 
ATOM     22  C   UNL     1      -3.610   3.900   1.906  0.00  0.00    +0.091 A 
ATOM     23 CL   UNL     1      -3.528   3.103   3.446  0.00  0.00    -0.079 Cl
BRANCH  21  24
ATOM     24  O   UNL     1      -5.572   5.060   2.590  0.00  0.00    -0.505 OA
ATOM     25  H   UNL     1      -6.341   4.474   2.553  0.00  0.00    +0.292 HD
ENDBRANCH  21  24
ENDBRANCH  14  17
BRANCH   1  26
ATOM     26  S   UNL     1       1.354  -2.272  -0.186  0.00  0.00    -0.080 S 
BRANCH  26  27
ATOM     27  C   UNL     1       3.145  -2.528  -0.132  0.00  0.00    +0.112 C 
BRANCH  27  32
ATOM     28  C   UNL     1       4.294  -8.181  -0.469  0.00  0.00    +0.044 C 
ATOM     29  C   UNL     1       3.995  -6.707  -0.381  0.00  0.00    -0.050 A 
ATOM     30  C   UNL     1       3.904  -5.950  -1.534  0.00  0.00    +0.003 A 
ATOM     31  C   UNL     1       3.629  -4.597  -1.454  0.00  0.00    +0.005 A 
ATOM     32  C   UNL     1       3.445  -4.002  -0.220  0.00  0.00    -0.037 A 
ATOM     33  C   UNL     1       3.540  -4.758   0.933  0.00  0.00    +0.005 A 
ATOM     34  C   UNL     1       3.811  -6.111   0.853  0.00  0.00    +0.003 A 
ENDBRANCH  27  32
ENDBRANCH  26  27
ENDBRANCH   1  26
TORSDOF 5
