REMARK  Name = ZINC12659551
REMARK  12 active torsions:
REMARK  status: ('A' for Active; 'I' for Inactive)
REMARK    1  A    between atoms: C_1  and  C_2
REMARK    2  A    between atoms: C_15  and  C_29
REMARK    3  A    between atoms: C_17  and  C_18
REMARK    4  A    between atoms: C_17  and  N_67
REMARK    5  A    between atoms: C_18  and  C_20
REMARK    6  A    between atoms: C_18  and  O_28
REMARK    7  A    between atoms: C_20  and  O_21
REMARK    8  A    between atoms: O_21  and  C_22
REMARK    9  A    between atoms: C_32  and  O_37
REMARK   10  A    between atoms: C_33  and  O_35
REMARK   11  A    between atoms: O_35  and  C_36
REMARK   12  A    between atoms: O_37  and  C_38
REMARK                            x       y       z     vdW  Elec       q    Type
REMARK                         _______ _______ _______ _____ _____    ______ ____
ROOT
ATOM      1  C   UNL     1       2.014   0.103  -1.901  0.00  0.00    -0.013 C 
ATOM      2  C   UNL     1       2.387   0.199  -0.420  0.00  0.00    -0.066 C 
ATOM      3  C   UNL     1       2.497   1.675  -0.015  0.00  0.00    +0.022 C 
ATOM      4  C   UNL     1       1.106   2.258   0.004  0.00  0.00    -0.022 A 
ATOM      5  C   UNL     1       0.693   3.644   0.016  0.00  0.00    +0.003 A 
ATOM      6  C   UNL     1       1.405   4.848   0.016  0.00  0.00    +0.010 A 
ATOM      7  C   UNL     1       0.667   6.005   0.030  0.00  0.00    +0.001 A 
ATOM      8  C   UNL     1      -0.718   5.995   0.044  0.00  0.00    +0.002 A 
ATOM      9  C   UNL     1      -1.448   4.819   0.045  0.00  0.00    +0.026 A 
ATOM     10  C   UNL     1      -0.726   3.628   0.030  0.00  0.00    +0.047 A 
ATOM     11  N   UNL     1      -1.119   2.320   0.031  0.00  0.00    -0.359 N 
ATOM     12  H   UNL     1      -2.039   2.013   0.042  0.00  0.00    +0.166 HD
ATOM     13  C   UNL     1      -0.018   1.506   0.010  0.00  0.00    +0.011 A 
ATOM     14  C   UNL     1       0.002  -0.004   0.002  0.00  0.00    +0.011 C 
ATOM     15  N   UNL     1       1.354  -0.448   0.419  0.00  0.00    +0.392 N 
ATOM     16  H   UNL     1       1.504  -0.178   1.398  0.00  0.00    -0.080 HD
ENDROOT
BRANCH  14  17
ATOM     17  C   UNL     1      -1.010  -0.530   0.987  0.00  0.00    -0.052 A 
ATOM     18  C   UNL     1      -0.705  -0.569   2.335  0.00  0.00    +0.006 A 
ATOM     19  C   UNL     1      -1.631  -1.049   3.242  0.00  0.00    +0.049 A 
ATOM     20  C   UNL     1      -2.867  -1.493   2.802  0.00  0.00    +0.161 A 
ATOM     21  C   UNL     1      -3.174  -1.454   1.445  0.00  0.00    +0.162 A 
ATOM     22  C   UNL     1      -2.244  -0.966   0.541  0.00  0.00    +0.051 A 
BRANCH  21  23
ATOM     23  O   UNL     1      -4.386  -1.889   1.008  0.00  0.00    -0.491 OA
ATOM     24  C   UNL     1      -4.631  -1.820  -0.398  0.00  0.00    +0.277 C 
ENDBRANCH  21  23
BRANCH  20  25
ATOM     25  O   UNL     1      -3.779  -1.967   3.693  0.00  0.00    -0.491 OA
ATOM     26  C   UNL     1      -3.395  -1.977   5.070  0.00  0.00    +0.277 C 
ENDBRANCH  20  25
ENDBRANCH  14  17
BRANCH  15  27
ATOM     27  C   UNL     1       1.459  -1.917   0.305  0.00  0.00    -0.042 C 
BRANCH  27  28
ATOM     28  C   UNL     1       2.774  -2.367   0.945  0.00  0.00    +0.135 C 
BRANCH  28  29
ATOM     29  O   UNL     1       2.749  -2.070   2.343  0.00  0.00    -0.390 OA
ATOM     30  H   UNL     1       2.033  -2.505   2.825  0.00  0.00    +0.210 HD
ENDBRANCH  28  29
BRANCH  28  31
ATOM     31  C   UNL     1       2.947  -3.874   0.747  0.00  0.00    +0.258 C 
BRANCH  31  32
ATOM     32  O   UNL     1       4.227  -4.275   1.242  0.00  0.00    -0.489 OA
BRANCH  32  33
ATOM     33  C   UNL     1       4.542  -5.593   1.141  0.00  0.00    +0.121 A 
ATOM     34  C   UNL     1       3.636  -6.484   0.583  0.00  0.00    +0.045 A 
ATOM     35  C   UNL     1       3.961  -7.822   0.477  0.00  0.00    +0.004 A 
ATOM     36  C   UNL     1       5.184  -8.276   0.936  0.00  0.00    +0.000 A 
ATOM     37  C   UNL     1       6.086  -7.392   1.498  0.00  0.00    +0.004 A 
ATOM     38  C   UNL     1       5.768  -6.052   1.601  0.00  0.00    +0.045 A 
ENDBRANCH  32  33
ENDBRANCH  31  32
ENDBRANCH  28  31
ENDBRANCH  27  28
ENDBRANCH  15  27
TORSDOF 9
