REMARK  Name = ZINC39595821
REMARK  8 active torsions:
REMARK  status: ('A' for Active; 'I' for Inactive)
REMARK    1  A    between atoms: C_1  and  C_2
REMARK    2  A    between atoms: C_2  and  C_4
REMARK    3  A    between atoms: C_2  and  O_32
REMARK    4  A    between atoms: C_4  and  N_5
REMARK    5  A    between atoms: C_6  and  C_8
REMARK    6  A    between atoms: C_19  and  C_21
REMARK    7  A    between atoms: C_24  and  C_28
REMARK    8  A    between atoms: O_32  and  C_33
REMARK                            x       y       z     vdW  Elec       q    Type
REMARK                         _______ _______ _______ _____ _____    ______ ____
ROOT
ATOM      1  C   UNL     1       0.988  -4.178  -2.554  0.00  0.00    +0.100 C 
ATOM      2  C   UNL     1      -0.457  -4.628  -2.871  0.00  0.00    +0.121 C 
ATOM      3  N   UNL     1      -0.479  -4.805  -4.342  0.00  0.00    -0.296 N 
ATOM      4  C   UNL     1       0.833  -5.419  -4.659  0.00  0.00    +0.115 C 
ATOM      5  C   UNL     1       1.831  -4.703  -3.728  0.00  0.00    -0.004 C 
ATOM      6  C   UNL     1       2.883  -5.687  -3.224  0.00  0.00    -0.010 C 
ATOM      7  C   UNL     1       3.747  -6.150  -4.401  0.00  0.00    -0.082 C 
ATOM      8  N   UNL     1       4.393  -4.988  -5.023  0.00  0.00    +0.379 N 
ATOM      9  C   UNL     1       3.376  -4.092  -5.587  0.00  0.00    -0.082 C 
ATOM     10  C   UNL     1       2.496  -3.542  -4.461  0.00  0.00    -0.010 C 
ATOM     11  C   UNL     1      -1.468  -4.482  -5.199  0.00  0.00    +0.247 C 
ATOM     12  O   UNL     1      -2.446  -3.882  -4.798  0.00  0.00    -0.270 OA
ATOM     13  H   UNL     1       4.929  -4.490  -4.328  0.00  0.00    -0.086 HD
ATOM     14  H   UNL     1       5.009  -5.301  -5.759  0.00  0.00    -0.086 HD
ENDROOT
BRANCH  11  15
ATOM     15  C   UNL     1      -1.363  -4.857  -6.625  0.00  0.00    +0.040 A 
ATOM     16  C   UNL     1      -0.569  -5.939  -7.008  0.00  0.00    +0.014 A 
ATOM     17  C   UNL     1      -0.474  -6.284  -8.341  0.00  0.00    +0.016 A 
ATOM     18  C   UNL     1      -1.165  -5.562  -9.297  0.00  0.00    +0.090 A 
ATOM     19  C   UNL     1      -1.955  -4.486  -8.924  0.00  0.00    +0.136 A 
ATOM     20  C   UNL     1      -2.062  -4.134  -7.592  0.00  0.00    +0.052 A 
ATOM     21  F   UNL     1      -2.626  -3.784  -9.864  0.00  0.00    -0.205 F 
BRANCH  18  22
ATOM     22  C   UNL     1      -1.057  -5.946 -10.750  0.00  0.00    +0.420 C 
ATOM     23  F   UNL     1      -0.210  -7.052 -10.879  0.00  0.00    -0.166 F 
ATOM     24  F   UNL     1      -2.325  -6.270 -11.243  0.00  0.00    -0.166 F 
ATOM     25  F   UNL     1      -0.534  -4.871 -11.479  0.00  0.00    -0.166 F 
ENDBRANCH  18  22
ENDBRANCH  11  15
BRANCH   1  27
ATOM     26  N   UNL     1       2.085  -2.084  -1.828  0.00  0.00    -0.312 N 
ATOM     27  C   UNL     1       1.066  -2.675  -2.482  0.00  0.00    +0.218 C 
ATOM     28  O   UNL     1       0.211  -1.998  -3.013  0.00  0.00    -0.275 OA
ATOM     29  H   UNL     1       2.768  -2.626  -1.403  0.00  0.00    +0.149 HD
BRANCH  26  30
ATOM     30  C   UNL     1       2.161  -0.623  -1.758  0.00  0.00    +0.148 C 
BRANCH  30  32
ATOM     31  C   UNL     1       3.417   1.306  -0.785  0.00  0.00    +0.053 C 
ATOM     32  C   UNL     1       3.404  -0.214  -0.965  0.00  0.00    +0.187 C 
BRANCH  32  33
ATOM     33  O   UNL     1       4.576  -0.620  -1.674  0.00  0.00    -0.488 OA
BRANCH  33  34
ATOM     34  C   UNL     1       5.704  -0.817  -0.940  0.00  0.00    +0.121 A 
ATOM     35  C   UNL     1       5.656  -0.727   0.443  0.00  0.00    +0.048 A 
ATOM     36  C   UNL     1       6.803  -0.928   1.187  0.00  0.00    +0.042 A 
ATOM     37  C   UNL     1       7.999  -1.218   0.552  0.00  0.00    +0.124 A 
ATOM     38  C   UNL     1       8.047  -1.308  -0.828  0.00  0.00    +0.042 A 
ATOM     39  C   UNL     1       6.901  -1.114  -1.574  0.00  0.00    +0.048 A 
ATOM     40  F   UNL     1       9.119  -1.414   1.281  0.00  0.00    -0.205 F 
ENDBRANCH  33  34
ENDBRANCH  32  33
ENDBRANCH  30  32
ENDBRANCH  26  30
ENDBRANCH   1  27
TORSDOF 7
