REMARK  Name = ZINC16958621
REMARK  8 active torsions:
REMARK  status: ('A' for Active; 'I' for Inactive)
REMARK    1  A    between atoms: C_1  and  C_2
REMARK    2  A    between atoms: C_4  and  C_21
REMARK    3  A    between atoms: C_13  and  N_48
REMARK    4  A    between atoms: C_15  and  C_16
REMARK    5  A    between atoms: C_15  and  N_48
REMARK    6  A    between atoms: C_16  and  O_17
REMARK    7  A    between atoms: C_24  and  O_27
REMARK    8  A    between atoms: O_27  and  C_28
REMARK                            x       y       z     vdW  Elec       q    Type
REMARK                         _______ _______ _______ _____ _____    ______ ____
ROOT
ATOM      1  C   UNL     1      -4.485   2.485   1.032  0.00  0.00    +0.010 C 
ATOM      2  C   UNL     1      -4.282   1.550   2.226  0.00  0.00    +0.020 C 
ATOM      3  C   UNL     1      -4.983   2.126   3.459  0.00  0.00    +0.057 C 
ATOM      4  C   UNL     1      -4.543   1.377   4.691  0.00  0.00    +0.006 A 
ATOM      5  C   UNL     1      -5.311   1.480   5.841  0.00  0.00    +0.057 A 
ATOM      6  C   UNL     1      -4.935   0.816   6.995  0.00  0.00    +0.167 A 
ATOM      7  C   UNL     1      -3.779   0.039   7.001  0.00  0.00    +0.170 A 
ATOM      8  C   UNL     1      -3.015  -0.065   5.853  0.00  0.00    +0.095 A 
ATOM      9  C   UNL     1      -3.396   0.604   4.694  0.00  0.00    +0.126 A 
ATOM     10  O   UNL     1      -2.619   0.472   3.586  0.00  0.00    -0.506 OA
ATOM     11  C   UNL     1      -2.785   1.427   2.537  0.00  0.00    +0.124 C 
ATOM     12  O   UNL     1      -3.625  -0.505   8.244  0.00  0.00    -0.452 OA
ATOM     13  C   UNL     1      -4.473   0.271   9.111  0.00  0.00    +0.466 C 
ATOM     14  O   UNL     1      -5.506   0.757   8.235  0.00  0.00    -0.453 OA
ENDROOT
BRANCH   3  15
ATOM     15  C   UNL     1      -6.475   1.992   3.296  0.00  0.00    -0.039 A 
ATOM     16  C   UNL     1      -7.042   0.740   3.142  0.00  0.00    +0.008 A 
ATOM     17  C   UNL     1      -8.410   0.614   2.998  0.00  0.00    +0.046 A 
ATOM     18  C   UNL     1      -9.214   1.745   2.997  0.00  0.00    +0.120 A 
ATOM     19  C   UNL     1      -8.642   3.000   3.146  0.00  0.00    +0.046 A 
ATOM     20  C   UNL     1      -7.274   3.120   3.294  0.00  0.00    +0.008 A 
BRANCH  18  21
ATOM     21  O   UNL     1     -10.560   1.623   2.850  0.00  0.00    -0.495 OA
ATOM     22  C   UNL     1     -11.079   0.300   2.702  0.00  0.00    +0.277 C 
ENDBRANCH  18  21
ENDBRANCH   3  15
BRANCH  11  23
ATOM     23  N   UNL     1      -2.070   0.968   1.331  0.00  0.00    +0.405 N 
ATOM     24  H   UNL     1      -2.605   1.238   0.497  0.00  0.00    -0.080 HD
ATOM     25  H   UNL     1      -1.975  -0.054   1.361  0.00  0.00    -0.080 HD
BRANCH  23  26
ATOM     26  C   UNL     1      -0.729   1.579   1.267  0.00  0.00    -0.049 C 
BRANCH  26  27
ATOM     27  C   UNL     1      -0.013   1.086   0.008  0.00  0.00    +0.137 C 
BRANCH  27  28
ATOM     28  O   UNL     1      -0.704   1.559  -1.150  0.00  0.00    -0.397 OA
ATOM     29  H   UNL     1      -0.304   1.284  -1.986  0.00  0.00    +0.209 HD
ENDBRANCH  27  28
ENDBRANCH  26  27
ENDBRANCH  23  26
ENDBRANCH  11  23
TORSDOF 6
