REMARK  Name = ZINC40707973
REMARK  6 active torsions:
REMARK  status: ('A' for Active; 'I' for Inactive)
REMARK    1  A    between atoms: C_1  and  C_2
REMARK    2  A    between atoms: C_4  and  C_10
REMARK    3  A    between atoms: C_7  and  O_8
REMARK    4  A    between atoms: O_8  and  C_9
REMARK    5  A    between atoms: C_11  and  N_23
REMARK    6  A    between atoms: C_13  and  C_18
REMARK                            x       y       z     vdW  Elec       q    Type
REMARK                         _______ _______ _______ _____ _____    ______ ____
ROOT
ATOM      1  C   UNL     1       0.029  -2.817  -2.489  0.00  0.00    +0.112 A 
ATOM      2  C   UNL     1       0.670  -3.992  -2.738  0.00  0.00    +0.129 A 
ATOM      3  N   UNL     1       0.416  -4.336  -4.061  0.00  0.00    -0.271 N 
ATOM      4  C   UNL     1       0.741  -5.360  -4.939  0.00  0.00    +0.099 A 
ATOM      5  C   UNL     1       0.279  -5.338  -6.207  0.00  0.00    +0.078 A 
ATOM      6  S   UNL     1      -0.670  -3.826  -6.232  0.00  0.00    -0.057 S 
ATOM      7  C   UNL     1      -0.382  -3.330  -4.549  0.00  0.00    +0.180 A 
ATOM      8  N   UNL     1      -0.613  -2.443  -3.627  0.00  0.00    -0.219 NA
ENDROOT
BRANCH   1  12
ATOM      9  C   UNL     1      -0.018   1.503   0.010  0.00  0.00    +0.047 C 
ATOM     10  C   UNL     1       0.002  -0.004   0.002  0.00  0.00    -0.008 A 
ATOM     11  C   UNL     1       0.006  -0.686  -1.197  0.00  0.00    +0.017 A 
ATOM     12  C   UNL     1       0.025  -2.081  -1.204  0.00  0.00    +0.004 A 
ATOM     13  C   UNL     1       0.041  -2.781   0.003  0.00  0.00    +0.014 A 
ATOM     14  C   UNL     1       0.037  -2.092   1.198  0.00  0.00    +0.046 A 
ATOM     15  C   UNL     1       0.023  -0.704   1.200  0.00  0.00    +0.123 A 
BRANCH  15  16
ATOM     16  O   UNL     1       0.025  -0.028   2.380  0.00  0.00    -0.495 OA
ATOM     17  C   UNL     1       0.047  -0.810   3.576  0.00  0.00    +0.277 C 
ENDBRANCH  15  16
ENDBRANCH   1  12
BRANCH   4  18
ATOM     18  C   UNL     1       1.593  -6.472  -4.488  0.00  0.00    +0.152 A 
ATOM     19  C   UNL     1       2.842  -6.762  -4.949  0.00  0.00    +0.051 A 
ATOM     20  C   UNL     1       3.281  -7.900  -4.243  0.00  0.00    +0.042 A 
ATOM     21  C   UNL     1       2.293  -8.246  -3.396  0.00  0.00    +0.196 A 
ATOM     22  O   UNL     1       1.276  -7.378  -3.542  0.00  0.00    -0.461 OA
ENDBRANCH   4  18
BRANCH   2  23
ATOM     23  N   UNL     1       1.444  -4.718  -1.830  0.00  0.00    -0.342 N 
ATOM     24  H   UNL     1       1.563  -4.392  -0.924  0.00  0.00    +0.144 HD
ATOM     25  H   UNL     1       1.863  -5.548  -2.105  0.00  0.00    +0.144 HD
ENDBRANCH   2  23
TORSDOF 4
