REMARK  Name = ZINC67612664
REMARK  5 active torsions:
REMARK  status: ('A' for Active; 'I' for Inactive)
REMARK    1  A    between atoms: C_4  and  C_7
REMARK    2  A    between atoms: C_10  and  N_12
REMARK    3  A    between atoms: N_15  and  N_16
REMARK    4  A    between atoms: C_17  and  C_19
REMARK    5  A    between atoms: C_19  and  C_20
REMARK                            x       y       z     vdW  Elec       q    Type
REMARK                         _______ _______ _______ _____ _____    ______ ____
ROOT
ATOM      1  N   UNL     1       2.945  -1.750  -2.248  0.00  0.00    -0.295 N 
ATOM      2  C   UNL     1       3.276  -2.112  -3.503  0.00  0.00    +0.316 C 
ATOM      3  O   UNL     1       4.435  -2.348  -3.782  0.00  0.00    -0.251 OA
ATOM      4  N   UNL     1       2.321  -2.213  -4.449  0.00  0.00    -0.218 N 
ATOM      5  H   UNL     1       2.020  -1.561  -2.025  0.00  0.00    +0.151 HD
ATOM      6  H   UNL     1       2.559  -2.474  -5.352  0.00  0.00    +0.174 HD
ENDROOT
BRANCH   4   7
ATOM      7  N   UNL     1       0.985  -1.941  -4.127  0.00  0.00    -0.233 N 
ATOM      8  C   UNL     1       0.030  -2.042  -5.073  0.00  0.00    +0.234 C 
ATOM      9  O   UNL     1       0.327  -2.368  -6.202  0.00  0.00    -0.274 OA
ATOM     10  H   UNL     1       0.747  -1.680  -3.223  0.00  0.00    +0.173 HD
BRANCH   8  11
ATOM     11  C   UNL     1      -1.407  -1.749  -4.727  0.00  0.00    +0.134 C 
BRANCH  11  12
ATOM     12  C   UNL     1      -2.266  -1.934  -5.951  0.00  0.00    -0.014 A 
ATOM     13  C   UNL     1      -2.645  -0.976  -6.812  0.00  0.00    +0.087 A 
ATOM     14  N   UNL     1      -3.420  -1.518  -7.801  0.00  0.00    -0.360 N 
ATOM     15  H   UNL     1      -3.811  -1.023  -8.537  0.00  0.00    +0.165 HD
ATOM     16  C   UNL     1      -3.563  -2.872  -7.595  0.00  0.00    +0.047 A 
ATOM     17  C   UNL     1      -2.841  -3.193  -6.430  0.00  0.00    +0.003 A 
ATOM     18  C   UNL     1      -2.802  -4.512  -5.976  0.00  0.00    +0.010 A 
ATOM     19  C   UNL     1      -3.463  -5.488  -6.668  0.00  0.00    +0.001 A 
ATOM     20  C   UNL     1      -4.173  -5.177  -7.820  0.00  0.00    +0.002 A 
ATOM     21  C   UNL     1      -4.233  -3.880  -8.280  0.00  0.00    +0.026 A 
ENDBRANCH  11  12
ENDBRANCH   8  11
ENDBRANCH   4   7
BRANCH   1  24
ATOM     22  C   UNL     1       3.711  -0.707  -0.038  0.00  0.00    +0.041 C 
ATOM     23  C   UNL     1       3.675  -2.224   0.162  0.00  0.00    +0.033 C 
ATOM     24  C   UNL     1       3.983  -1.640  -1.219  0.00  0.00    +0.083 C 
BRANCH  22  28
ATOM     25  C   UNL     1      -0.017   1.378   0.010  0.00  0.00    +0.000 A 
ATOM     26  C   UNL     1       1.171   2.086   0.002  0.00  0.00    +0.000 A 
ATOM     27  C   UNL     1       2.377   1.411  -0.013  0.00  0.00    +0.004 A 
ATOM     28  C   UNL     1       2.396   0.029  -0.020  0.00  0.00    -0.042 A 
ATOM     29  C   UNL     1       1.208  -0.679  -0.012  0.00  0.00    +0.004 A 
ATOM     30  C   UNL     1       0.002  -0.004   0.002  0.00  0.00    +0.000 A 
ENDBRANCH  22  28
ENDBRANCH   1  24
TORSDOF 5
