REMARK  Name = ZINC04973619
REMARK  5 active torsions:
REMARK  status: ('A' for Active; 'I' for Inactive)
REMARK    1  A    between atoms: C_1  and  C_2
REMARK    2  A    between atoms: C_2  and  O_3
REMARK    3  A    between atoms: O_3  and  C_4
REMARK    4  A    between atoms: C_7  and  C_10
REMARK    5  A    between atoms: C_15  and  C_25
REMARK                            x       y       z     vdW  Elec       q    Type
REMARK                         _______ _______ _______ _____ _____    ______ ____
ROOT
ATOM      1  C   UNL     1      -2.370   1.355  -0.713  0.00  0.00    +0.032 C 
ATOM      2  C   UNL     1      -1.297   2.124   0.056  0.00  0.00    +0.059 C 
ATOM      3  C   UNL     1       0.015   1.356   0.016  0.00  0.00    +0.017 C 
ATOM      4  C   UNL     1       0.014   0.013   0.010  0.00  0.00    +0.036 C 
ATOM      5  C   UNL     1       1.237  -0.874   0.007  0.00  0.00    +0.137 C 
ATOM      6  N   UNL     1       2.479  -0.179  -0.256  0.00  0.00    -0.331 N 
ATOM      7  C   UNL     1       2.969   0.780   0.629  0.00  0.00    +0.049 A 
ATOM      8  C   UNL     1       4.154   0.587   1.323  0.00  0.00    +0.025 A 
ATOM      9  C   UNL     1       4.578   1.547   2.225  0.00  0.00    +0.002 A 
ATOM     10  C   UNL     1       3.827   2.689   2.437  0.00  0.00    +0.002 A 
ATOM     11  C   UNL     1       2.651   2.892   1.733  0.00  0.00    +0.025 A 
ATOM     12  C   UNL     1       2.237   1.943   0.815  0.00  0.00    +0.052 A 
ATOM     13  N   UNL     1       1.127   2.134   0.001  0.00  0.00    -0.316 N 
ATOM     14  C   UNL     1      -1.208  -0.699  -0.006  0.00  0.00    +0.163 C 
ATOM     15  O   UNL     1      -1.178  -1.914   0.006  0.00  0.00    -0.292 OA
ATOM     16  C   UNL     1      -2.540  -0.011  -0.038  0.00  0.00    +0.088 C 
ATOM     17  H   UNL     1       2.979  -0.385  -1.061  0.00  0.00    +0.147 HD
ATOM     18  H   UNL     1       1.149   2.876  -0.623  0.00  0.00    +0.152 HD
ENDROOT
BRANCH   1  22
ATOM     19  C   UNL     1      -6.062   3.503  -0.584  0.00  0.00    +0.121 A 
ATOM     20  C   UNL     1      -5.479   3.197  -1.805  0.00  0.00    +0.046 A 
ATOM     21  C   UNL     1      -4.285   2.502  -1.844  0.00  0.00    +0.007 A 
ATOM     22  C   UNL     1      -3.672   2.112  -0.668  0.00  0.00    -0.043 A 
ATOM     23  C   UNL     1      -4.254   2.411   0.550  0.00  0.00    +0.007 A 
ATOM     24  C   UNL     1      -5.445   3.110   0.595  0.00  0.00    +0.046 A 
BRANCH  19  25
ATOM     25  O   UNL     1      -7.236   4.186  -0.542  0.00  0.00    -0.492 OA
BRANCH  25  27
ATOM     26  C   UNL     1      -9.092   5.236   0.595  0.00  0.00    +0.048 C 
ATOM     27  C   UNL     1      -7.779   4.466   0.750  0.00  0.00    +0.225 C 
ENDBRANCH  25  27
ENDBRANCH  19  25
ENDBRANCH   1  22
BRANCH   5  28
ATOM     28  C   UNL     1       1.341  -1.549   1.350  0.00  0.00    -0.005 A 
ATOM     29  C   UNL     1       1.557  -0.800   2.497  0.00  0.00    +0.009 A 
ATOM     30  C   UNL     1       1.641  -1.463   3.712  0.00  0.00    +0.020 A 
ATOM     31  C   UNL     1       1.519  -2.839   3.738  0.00  0.00    +0.111 A 
ATOM     32  N   UNL     1       1.320  -3.520   2.626  0.00  0.00    -0.263 NA
ATOM     33  C   UNL     1       1.229  -2.922   1.454  0.00  0.00    +0.116 A 
ENDBRANCH   5  28
TORSDOF 4
