REMARK  Name = ZINC18272200
REMARK  7 active torsions:
REMARK  status: ('A' for Active; 'I' for Inactive)
REMARK    1  A    between atoms: C_1  and  C_2
REMARK    2  A    between atoms: C_3  and  C_28
REMARK    3  A    between atoms: C_4  and  N_27
REMARK    4  A    between atoms: C_9  and  C_10
REMARK    5  A    between atoms: C_13  and  C_15
REMARK    6  A    between atoms: C_22  and  C_26
REMARK    7  A    between atoms: C_23  and  C_24
REMARK                            x       y       z     vdW  Elec       q    Type
REMARK                         _______ _______ _______ _____ _____    ______ ____
ROOT
ATOM      1  C   UNL     1       4.515   2.063  -0.304  0.00  0.00    +0.046 C 
ATOM      2  C   UNL     1       3.650   0.841  -0.478  0.00  0.00    -0.020 A 
ATOM      3  C   UNL     1       4.220  -0.428  -0.622  0.00  0.00    +0.095 A 
ATOM      4  C   UNL     1       3.376  -1.545  -0.782  0.00  0.00    +0.135 A 
ATOM      5  N   UNL     1       2.063  -1.409  -0.797  0.00  0.00    -0.230 NA
ATOM      6  C   UNL     1       1.481  -0.219  -0.663  0.00  0.00    +0.092 A 
ATOM      7  C   UNL     1       2.264   0.945  -0.498  0.00  0.00    +0.013 A 
ATOM      8  C   UNL     1       1.332   2.082  -0.379  0.00  0.00    -0.008 C 
ATOM      9  C   UNL     1       1.686   3.418  -0.204  0.00  0.00    +0.055 C 
ATOM     10  C   UNL     1       0.023   1.577  -0.473  0.00  0.00    -0.023 C 
ATOM     11  C   UNL     1       0.072   0.204  -0.644  0.00  0.00    +0.081 C 
ATOM     12  C   UNL     1      -1.237   2.403  -0.406  0.00  0.00    +0.046 C 
ENDROOT
BRANCH   9  13
ATOM     13  C   UNL     1       2.806   3.751   0.569  0.00  0.00    +0.129 A 
ATOM     14  C   UNL     1       3.663   4.821   0.344  0.00  0.00    +0.050 A 
ATOM     15  C   UNL     1       4.631   4.778   1.344  0.00  0.00    +0.050 A 
ATOM     16  C   UNL     1       4.340   3.692   2.144  0.00  0.00    +0.136 A 
ATOM     17  O   UNL     1       3.237   3.090   1.665  0.00  0.00    -0.455 OA
BRANCH  16  18
ATOM     18  C   UNL     1       5.107   3.265   3.329  0.00  0.00    +0.019 A 
ATOM     19  C   UNL     1       4.771   2.083   3.994  0.00  0.00    +0.011 A 
ATOM     20  C   UNL     1       5.493   1.689   5.102  0.00  0.00    +0.002 A 
ATOM     21  C   UNL     1       6.548   2.462   5.555  0.00  0.00    +0.020 A 
ATOM     22  C   UNL     1       6.886   3.635   4.902  0.00  0.00    +0.042 A 
ATOM     23  C   UNL     1       6.176   4.039   3.789  0.00  0.00    +0.031 A 
ATOM     24 CL   UNL     1       8.212   4.596   5.479  0.00  0.00    -0.084 Cl
ENDBRANCH  16  18
ENDBRANCH   9  13
BRANCH   4  25
ATOM     25  N   UNL     1       3.932  -2.805  -0.925  0.00  0.00    -0.342 N 
ATOM     26  H   UNL     1       4.896  -2.914  -0.915  0.00  0.00    +0.144 HD
ATOM     27  H   UNL     1       3.358  -3.579  -1.036  0.00  0.00    +0.144 HD
ENDBRANCH   4  25
BRANCH  11  28
ATOM     28  C   UNL     1      -1.060  -0.661  -0.780  0.00  0.00    +0.102 C 
ATOM     29  N   UNL     1      -1.959  -1.347  -0.888  0.00  0.00    -0.191 NA
ENDBRANCH  11  28
BRANCH   3  30
ATOM     30  C   UNL     1       5.643  -0.590  -0.608  0.00  0.00    +0.103 C 
ATOM     31  N   UNL     1       6.771  -0.719  -0.597  0.00  0.00    -0.191 NA
ENDBRANCH   3  30
TORSDOF 5
