REMARK  Name = ZINC38702237
REMARK  12 active torsions:
REMARK  status: ('A' for Active; 'I' for Inactive)
REMARK    1  A    between atoms: C_1  and  C_2
REMARK    2  A    between atoms: C_4  and  C_10
REMARK    3  A    between atoms: C_5  and  O_9
REMARK    4  A    between atoms: C_7  and  C_8
REMARK    5  A    between atoms: N_18  and  C_33
REMARK    6  A    between atoms: C_19  and  C_21
REMARK    7  A    between atoms: C_23  and  O_31
REMARK    8  A    between atoms: C_24  and  O_29
REMARK    9  A    between atoms: C_25  and  O_27
REMARK   10  A    between atoms: O_27  and  C_28
REMARK   11  A    between atoms: O_29  and  C_30
REMARK   12  A    between atoms: O_31  and  C_32
REMARK                            x       y       z     vdW  Elec       q    Type
REMARK                         _______ _______ _______ _____ _____    ______ ____
ROOT
ATOM      1  C   UNL     1      -0.231  -2.947  -2.881  0.00  0.00    +0.102 A 
ATOM      2  C   UNL     1       0.032  -4.321  -2.847  0.00  0.00    +0.035 A 
ATOM      3  C   UNL     1       0.065  -4.731  -4.166  0.00  0.00    +0.126 A 
ATOM      4  N   UNL     1      -0.173  -3.615  -4.917  0.00  0.00    -0.272 N 
ATOM      5  H   UNL     1      -0.210  -3.594  -5.886  0.00  0.00    +0.189 HD
ATOM      6  N   UNL     1      -0.345  -2.599  -4.148  0.00  0.00    -0.173 NA
ATOM      7  C   UNL     1       0.338  -6.173  -4.199  0.00  0.00    +0.266 C 
ATOM      8  O   UNL     1       0.430  -6.838  -5.213  0.00  0.00    -0.268 OA
ATOM      9  N   UNL     1       0.471  -6.653  -2.950  0.00  0.00    -0.280 N 
ATOM     10  C   UNL     1       0.292  -5.541  -2.007  0.00  0.00    +0.142 C 
ENDROOT
BRANCH   1  14
ATOM     11  C   UNL     1       1.462  -1.315   1.522  0.00  0.00    +0.044 C 
ATOM     12  C   UNL     1       0.448  -1.260   0.409  0.00  0.00    -0.047 A 
ATOM     13  C   UNL     1       0.574  -2.099  -0.680  0.00  0.00    +0.017 A 
ATOM     14  C   UNL     1      -0.363  -2.048  -1.708  0.00  0.00    +0.044 A 
ATOM     15  C   UNL     1      -1.428  -1.147  -1.631  0.00  0.00    +0.126 A 
ATOM     16  C   UNL     1      -1.544  -0.310  -0.532  0.00  0.00    +0.049 A 
ATOM     17  C   UNL     1      -0.611  -0.372   0.486  0.00  0.00    -0.044 A 
ATOM     18  C   UNL     1      -0.745   0.534   1.682  0.00  0.00    +0.044 C 
BRANCH  15  19
ATOM     19  O   UNL     1      -2.347  -1.090  -2.630  0.00  0.00    -0.506 OA
ATOM     20  H   UNL     1      -3.137  -1.625  -2.469  0.00  0.00    +0.292 HD
ENDBRANCH  15  19
ENDBRANCH   1  14
BRANCH   9  21
ATOM     21  C   UNL     1       0.747  -8.047  -2.591  0.00  0.00    +0.100 C 
ATOM     22  C   UNL     1       2.069  -8.496  -3.235  0.00  0.00    +0.047 C 
ATOM     23  C   UNL     1       2.209 -10.034  -3.134  0.00  0.00    +0.168 C 
ATOM     24  S   UNL     1       0.459 -10.598  -3.110  0.00  0.00    -0.029 S 
ATOM     25  O   UNL     1       0.197 -11.240  -1.869  0.00  0.00    -0.174 OA
ATOM     26  O   UNL     1       0.176 -11.281  -4.323  0.00  0.00    -0.174 OA
ATOM     27  C   UNL     1      -0.389  -8.963  -3.129  0.00  0.00    +0.188 C 
ENDBRANCH   9  21
BRANCH  10  28
ATOM     28  C   UNL     1      -0.884  -5.811  -1.105  0.00  0.00    -0.015 A 
ATOM     29  C   UNL     1      -2.054  -6.326  -1.633  0.00  0.00    +0.055 A 
ATOM     30  C   UNL     1      -3.139  -6.575  -0.806  0.00  0.00    +0.165 A 
ATOM     31  C   UNL     1      -3.049  -6.307   0.555  0.00  0.00    +0.204 A 
ATOM     32  C   UNL     1      -1.871  -5.790   1.082  0.00  0.00    +0.165 A 
ATOM     33  C   UNL     1      -0.789  -5.549   0.249  0.00  0.00    +0.055 A 
BRANCH  32  34
ATOM     34  O   UNL     1      -1.779  -5.527   2.413  0.00  0.00    -0.491 OA
ATOM     35  C   UNL     1      -0.538  -4.997   2.884  0.00  0.00    +0.277 C 
ENDBRANCH  32  34
BRANCH  31  36
ATOM     36  O   UNL     1      -4.112  -6.550   1.369  0.00  0.00    -0.488 OA
ATOM     37  C   UNL     1      -4.192  -7.848   1.962  0.00  0.00    +0.277 C 
ENDBRANCH  31  36
BRANCH  30  38
ATOM     38  O   UNL     1      -4.289  -7.080  -1.326  0.00  0.00    -0.491 OA
ATOM     39  C   UNL     1      -4.310  -7.330  -2.733  0.00  0.00    +0.277 C 
ENDBRANCH  30  38
ENDBRANCH  10  28
TORSDOF 7
