REMARK  Name = ZINC29232003
REMARK  13 active torsions:
REMARK  status: ('A' for Active; 'I' for Inactive)
REMARK    1  A    between atoms: N_3  and  C_14
REMARK    2  A    between atoms: N_7  and  C_8
REMARK    3  A    between atoms: C_14  and  C_15
REMARK    4  A    between atoms: C_15  and  C_16
REMARK    5  A    between atoms: C_16  and  C_17
REMARK    6  A    between atoms: C_17  and  C_18
REMARK    7  A    between atoms: C_18  and  C_19
REMARK    8  A    between atoms: C_19  and  C_20
REMARK    9  A    between atoms: C_20  and  C_21
REMARK   10  A    between atoms: C_21  and  C_22
REMARK   11  A    between atoms: C_22  and  C_23
REMARK   12  A    between atoms: C_23  and  N_24
REMARK   13  A    between atoms: N_28  and  C_29
REMARK                            x       y       z     vdW  Elec       q    Type
REMARK                         _______ _______ _______ _____ _____    ______ ____
ROOT
ATOM      1  C   UNL     1     -10.439   4.334  -0.050  0.00  0.00    +0.000 C 
ENDROOT
BRANCH   1   2
ATOM      2  C   UNL     1      -9.121   3.572  -0.205  0.00  0.00    +0.000 C 
BRANCH   2   3
ATOM      3  C   UNL     1      -7.963   4.569  -0.291  0.00  0.00    +0.002 C 
BRANCH   3   4
ATOM      4  C   UNL     1      -6.645   3.807  -0.445  0.00  0.00    +0.021 C 
BRANCH   4   5
ATOM      5  C   UNL     1      -5.487   4.804  -0.531  0.00  0.00    +0.121 C 
BRANCH   5   8
ATOM      6  C   UNL     1      -2.384   3.039   0.368  0.00  0.00    +0.043 A 
ATOM      7  C   UNL     1      -3.547   3.715   0.442  0.00  0.00    +0.087 A 
ATOM      8  N   UNL     1      -4.226   4.074  -0.679  0.00  0.00    -0.353 N 
ATOM      9  C   UNL     1      -3.784   3.786  -1.932  0.00  0.00    +0.087 A 
ATOM     10  C   UNL     1      -2.631   3.118  -2.130  0.00  0.00    +0.043 A 
ATOM     11  C   UNL     1      -1.851   2.702  -0.958  0.00  0.00    +0.038 A 
ATOM     12  N   UNL     1      -0.712   2.044  -1.091  0.00  0.00    -0.382 N 
ATOM     13  H   UNL     1      -0.286   1.879  -2.092  0.00  0.00    +0.160 HD
BRANCH  12  14
ATOM     14  C   UNL     1      -0.018   1.533   0.093  0.00  0.00    +0.079 C 
ATOM     15  C   UNL     1       1.418   2.058   0.109  0.00  0.00    +0.024 C 
ATOM     16  C   UNL     1       2.143   1.524   1.347  0.00  0.00    +0.002 C 
ATOM     17  C   UNL     1       2.160  -0.005   1.308  0.00  0.00    +0.000 C 
ATOM     18  C   UNL     1       0.723  -0.530   1.292  0.00  0.00    +0.002 C 
ATOM     19  C   UNL     1      -0.002   0.003   0.055  0.00  0.00    +0.024 C 
ENDBRANCH  12  14
ENDBRANCH   5   8
ENDBRANCH   4   5
ENDBRANCH   3   4
ENDBRANCH   2   3
ENDBRANCH   1   2
BRANCH   1  20
ATOM     20  C   UNL     1     -11.597   3.338   0.036  0.00  0.00    +0.000 C 
BRANCH  20  21
ATOM     21  C   UNL     1     -12.915   4.099   0.191  0.00  0.00    +0.000 C 
BRANCH  21  22
ATOM     22  C   UNL     1     -14.072   3.103   0.277  0.00  0.00    +0.002 C 
BRANCH  22  23
ATOM     23  C   UNL     1     -15.390   3.865   0.431  0.00  0.00    +0.021 C 
BRANCH  23  24
ATOM     24  C   UNL     1     -16.548   2.868   0.517  0.00  0.00    +0.121 C 
BRANCH  24  25
ATOM     25  N   UNL     1     -17.810   3.598   0.665  0.00  0.00    -0.353 N 
ATOM     26  C   UNL     1     -18.255   3.881   1.918  0.00  0.00    +0.087 A 
ATOM     27  C   UNL     1     -19.405   4.553   2.116  0.00  0.00    +0.043 A 
ATOM     28  C   UNL     1     -20.185   4.969   0.944  0.00  0.00    +0.038 A 
ATOM     29  N   UNL     1     -21.324   5.626   1.077  0.00  0.00    -0.382 N 
ATOM     30  C   UNL     1     -19.654   4.628  -0.382  0.00  0.00    +0.043 A 
ATOM     31  C   UNL     1     -18.489   3.957  -0.456  0.00  0.00    +0.087 A 
ATOM     32  H   UNL     1     -21.940   5.845   0.192  0.00  0.00    +0.160 HD
BRANCH  29  33
ATOM     33  C   UNL     1     -21.767   6.064   2.404  0.00  0.00    +0.079 C 
ATOM     34  C   UNL     1     -23.174   5.528   2.675  0.00  0.00    +0.024 C 
ATOM     35  C   UNL     1     -23.636   5.984   4.060  0.00  0.00    +0.002 C 
ATOM     36  C   UNL     1     -23.653   7.513   4.113  0.00  0.00    +0.000 C 
ATOM     37  C   UNL     1     -22.246   8.049   3.842  0.00  0.00    +0.002 C 
ATOM     38  C   UNL     1     -21.784   7.593   2.457  0.00  0.00    +0.024 C 
ENDBRANCH  29  33
ENDBRANCH  24  25
ENDBRANCH  23  24
ENDBRANCH  22  23
ENDBRANCH  21  22
ENDBRANCH  20  21
ENDBRANCH   1  20
TORSDOF 13
