REMARK  Name = ZINC63490509
REMARK  10 active torsions:
REMARK  status: ('A' for Active; 'I' for Inactive)
REMARK    1  A    between atoms: C_1  and  C_2
REMARK    2  A    between atoms: C_2  and  N_3
REMARK    3  A    between atoms: N_3  and  C_4
REMARK    4  A    between atoms: N_3  and  C_26
REMARK    5  A    between atoms: C_4  and  C_5
REMARK    6  A    between atoms: C_5  and  C_6
REMARK    7  A    between atoms: C_6  and  N_7
REMARK    8  A    between atoms: C_8  and  C_10
REMARK    9  A    between atoms: C_17  and  C_24
REMARK   10  A    between atoms: C_26  and  C_27
REMARK                            x       y       z     vdW  Elec       q    Type
REMARK                         _______ _______ _______ _____ _____    ______ ____
ROOT
ATOM      1  N   UNL     1      -0.167  -3.922   3.417  0.00  0.00    -0.314 N 
ATOM      2  C   UNL     1      -0.094  -5.175   3.907  0.00  0.00    +0.230 C 
ATOM      3  O   UNL     1      -0.555  -6.101   3.275  0.00  0.00    -0.274 OA
ATOM      4  H   UNL     1       0.202  -3.181   3.923  0.00  0.00    +0.149 HD
ENDROOT
BRANCH   2   5
ATOM      5  C   UNL     1       0.562  -5.425   5.241  0.00  0.00    +0.160 C 
ATOM      6  C   UNL     1       0.000  -6.666   5.897  0.00  0.00    +0.011 C 
ATOM      7  C   UNL     1       0.888  -7.656   6.112  0.00  0.00    +0.049 C 
ATOM      8  C   UNL     1       2.278  -7.420   5.692  0.00  0.00    +0.030 C 
ATOM      9  C   UNL     1       3.246  -8.419   5.892  0.00  0.00    +0.011 A 
ATOM     10  C   UNL     1       4.579  -8.222   5.502  0.00  0.00    +0.014 A 
ATOM     11  C   UNL     1       5.500  -9.206   5.707  0.00  0.00    -0.050 A 
ATOM     12  C   UNL     1       5.132 -10.409   6.302  0.00  0.00    +0.005 A 
ATOM     13  C   UNL     1       3.846 -10.633   6.693  0.00  0.00    +0.024 A 
ATOM     14  C   UNL     1       2.869  -9.644   6.499  0.00  0.00    +0.042 A 
ATOM     15  N   UNL     1       1.605  -9.864   6.884  0.00  0.00    -0.281 N 
ATOM     16  C   UNL     1       0.628  -8.991   6.738  0.00  0.00    +0.249 C 
ATOM     17  O   UNL     1      -0.498  -9.273   7.118  0.00  0.00    -0.270 OA
ATOM     18  C   UNL     1       6.930  -8.989   5.286  0.00  0.00    +0.044 C 
ATOM     19  S   UNL     1       2.327  -5.886   5.030  0.00  0.00    -0.107 S 
ATOM     20  H   UNL     1       1.396 -10.717   7.295  0.00  0.00    +0.155 HD
ENDBRANCH   2   5
BRANCH   1  21
ATOM     21  C   UNL     1      -0.805  -3.678   2.121  0.00  0.00    +0.102 C 
BRANCH  21  22
ATOM     22  C   UNL     1      -0.755  -2.183   1.801  0.00  0.00    +0.000 C 
BRANCH  22  23
ATOM     23  C   UNL     1      -1.421  -1.929   0.447  0.00  0.00    -0.077 C 
BRANCH  23  24
ATOM     24  N   UNL     1      -1.373  -0.493   0.139  0.00  0.00    +0.382 N 
ATOM     25  H   UNL     1      -1.790   0.027   0.897  0.00  0.00    -0.081 HD
BRANCH  24  27
ATOM     26  C   UNL     1       0.086   1.443  -0.209  0.00  0.00    -0.017 C 
ATOM     27  C   UNL     1       0.025  -0.075  -0.031  0.00  0.00    -0.082 C 
ENDBRANCH  24  27
BRANCH  24  28
ATOM     28  C   UNL     1      -2.116  -0.233  -1.101  0.00  0.00    -0.043 C 
BRANCH  28  29
ATOM     29  C   UNL     1      -3.577  -0.529  -0.882  0.00  0.00    -0.064 A 
ATOM     30  C   UNL     1      -4.093  -1.762  -1.235  0.00  0.00    +0.002 A 
ATOM     31  C   UNL     1      -5.434  -2.033  -1.034  0.00  0.00    +0.000 A 
ATOM     32  C   UNL     1      -6.258  -1.071  -0.481  0.00  0.00    +0.000 A 
ATOM     33  C   UNL     1      -5.742   0.161  -0.127  0.00  0.00    +0.000 A 
ATOM     34  C   UNL     1      -4.401   0.431  -0.324  0.00  0.00    +0.002 A 
ENDBRANCH  28  29
ENDBRANCH  24  28
ENDBRANCH  23  24
ENDBRANCH  22  23
ENDBRANCH  21  22
ENDBRANCH   1  21
TORSDOF 8
