REMARK  Name = ZINC12306100
REMARK  18 active torsions:
REMARK  status: ('A' for Active; 'I' for Inactive)
REMARK    1  A    between atoms: C_1  and  C_2
REMARK    2  A    between atoms: C_2  and  N_67
REMARK    3  A    between atoms: C_3  and  C_4
REMARK    4  A    between atoms: C_3  and  N_67
REMARK    5  A    between atoms: C_5  and  C_6
REMARK    6  A    between atoms: C_5  and  N_67
REMARK    7  A    between atoms: C_6  and  C_8
REMARK    8  A    between atoms: C_6  and  O_31
REMARK    9  A    between atoms: C_8  and  O_9
REMARK   10  A    between atoms: O_9  and  C_10
REMARK   11  A    between atoms: C_12  and  C_18
REMARK   12  A    between atoms: C_15  and  O_16
REMARK   13  A    between atoms: O_16  and  C_17
REMARK   14  A    between atoms: C_18  and  N_69
REMARK   15  A    between atoms: C_19  and  N_69
REMARK   16  A    between atoms: C_20  and  C_21
REMARK   17  A    between atoms: C_20  and  N_69
REMARK   18  A    between atoms: C_22  and  C_30
REMARK                            x       y       z     vdW  Elec       q    Type
REMARK                         _______ _______ _______ _____ _____    ______ ____
ROOT
ATOM      1  C   UNL     1       4.101   3.938  -1.990  0.00  0.00    +0.162 A 
ATOM      2  C   UNL     1       2.737   3.707  -1.912  0.00  0.00    +0.051 A 
ATOM      3  C   UNL     1       2.118   3.637  -0.678  0.00  0.00    -0.060 A 
ATOM      4  C   UNL     1       2.856   3.801   0.479  0.00  0.00    +0.005 A 
ATOM      5  C   UNL     1       4.218   4.026   0.408  0.00  0.00    +0.049 A 
ATOM      6  C   UNL     1       4.845   4.098  -0.825  0.00  0.00    +0.162 A 
ENDROOT
BRANCH   6   7
ATOM      7  O   UNL     1       6.184   4.324  -0.897  0.00  0.00    -0.491 OA
ATOM      8  C   UNL     1       6.883   4.479   0.340  0.00  0.00    +0.277 C 
ENDBRANCH   6   7
BRANCH   1   9
ATOM      9  O   UNL     1       4.712   4.007  -3.204  0.00  0.00    -0.486 OA
BRANCH   9  10
ATOM     10  C   UNL     1       3.887   3.833  -4.357  0.00  0.00    +0.258 C 
BRANCH  10  11
ATOM     11  C   UNL     1       4.744   3.942  -5.619  0.00  0.00    +0.135 C 
BRANCH  11  12
ATOM     12  O   UNL     1       5.267   5.268  -5.726  0.00  0.00    -0.390 OA
ATOM     13  H   UNL     1       4.589   5.955  -5.781  0.00  0.00    +0.210 HD
ENDBRANCH  11  12
BRANCH  11  14
ATOM     14  C   UNL     1       3.885   3.633  -6.847  0.00  0.00    -0.044 C 
BRANCH  14  15
ATOM     15  N   UNL     1       4.753   3.627  -8.044  0.00  0.00    +0.381 N 
ATOM     16  H   UNL     1       5.610   3.102  -7.831  0.00  0.00    -0.082 HD
BRANCH  15  18
ATOM     17  C   UNL     1       5.080   2.642 -10.258  0.00  0.00    -0.017 C 
ATOM     18  C   UNL     1       4.056   2.971  -9.170  0.00  0.00    -0.082 C 
ENDBRANCH  15  18
BRANCH  15  19
ATOM     19  C   UNL     1       5.117   5.011  -8.411  0.00  0.00    -0.082 C 
ATOM     20  C   UNL     1       3.861   5.870  -8.575  0.00  0.00    -0.017 C 
ENDBRANCH  15  19
ENDBRANCH  14  15
ENDBRANCH  11  14
ENDBRANCH  10  11
ENDBRANCH   9  10
ENDBRANCH   1   9
BRANCH   3  21
ATOM     21  C   UNL     1       0.634   3.386  -0.595  0.00  0.00    -0.043 C 
BRANCH  21  23
ATOM     22  C   UNL     1       0.906   1.372   0.722  0.00  0.00    -0.095 C 
ATOM     23  N   UNL     1       0.399   1.927  -0.551  0.00  0.00    +0.384 N 
ATOM     24  H   UNL     1       0.900   1.485  -1.331  0.00  0.00    -0.081 HD
BRANCH  23  25
ATOM     25  C   UNL     1      -1.045   1.645  -0.685  0.00  0.00    -0.022 C 
BRANCH  25  26
ATOM     26  C   UNL     1      -1.236   0.160  -0.859  0.00  0.00    +0.030 A 
ATOM     27  C   UNL     1      -1.249  -0.516  -2.029  0.00  0.00    +0.058 A 
ATOM     28  N   UNL     1      -1.439  -1.812  -1.770  0.00  0.00    -0.233 NA
ATOM     29  C   UNL     1      -1.558  -1.982  -0.461  0.00  0.00    +0.138 A 
ATOM     30  N   UNL     1      -1.434  -0.756   0.139  0.00  0.00    -0.305 N 
ATOM     31  C   UNL     1      -1.518  -0.639   1.496  0.00  0.00    +0.093 A 
ATOM     32  C   UNL     1      -1.723  -1.726   2.268  0.00  0.00    +0.018 A 
ATOM     33  C   UNL     1      -1.855  -2.996   1.683  0.00  0.00    +0.005 A 
ATOM     34  C   UNL     1      -1.773  -3.127   0.332  0.00  0.00    +0.047 A 
ATOM     35  C   UNL     1      -1.074   0.091  -3.397  0.00  0.00    +0.067 C 
ENDBRANCH  25  26
ENDBRANCH  23  25
ENDBRANCH  21  23
ENDBRANCH   3  21
TORSDOF 13
