REMARK  Name = ZINC39911614
REMARK  17 active torsions:
REMARK  status: ('A' for Active; 'I' for Inactive)
REMARK    1  A    between atoms: C_1  and  C_2
REMARK    2  A    between atoms: C_4  and  C_38
REMARK    3  A    between atoms: C_5  and  O_37
REMARK    4  A    between atoms: C_6  and  C_8
REMARK    5  A    between atoms: N_16  and  C_33
REMARK    6  A    between atoms: C_17  and  C_19
REMARK    7  A    between atoms: C_22  and  O_27
REMARK    8  A    between atoms: C_23  and  O_25
REMARK    9  A    between atoms: O_25  and  C_26
REMARK   10  A    between atoms: O_27  and  C_28
REMARK   11  A    between atoms: C_28  and  C_29
REMARK   12  A    between atoms: C_29  and  C_30
REMARK   13  A    between atoms: C_30  and  C_31
REMARK   14  A    between atoms: C_30  and  C_32
REMARK   15  A    between atoms: C_33  and  C_34
REMARK   16  A    between atoms: C_34  and  O_35
REMARK   17  A    between atoms: O_35  and  C_36
REMARK                            x       y       z     vdW  Elec       q    Type
REMARK                         _______ _______ _______ _____ _____    ______ ____
ROOT
ATOM      1  C   UNL     1      -0.600  -2.334   2.643  0.00  0.00    +0.102 A 
ATOM      2  C   UNL     1      -0.424  -1.610   3.828  0.00  0.00    +0.035 A 
ATOM      3  C   UNL     1      -0.027  -2.532   4.777  0.00  0.00    +0.126 A 
ATOM      4  N   UNL     1       0.017  -3.739   4.139  0.00  0.00    -0.272 N 
ATOM      5  H   UNL     1       0.265  -4.580   4.554  0.00  0.00    +0.189 HD
ATOM      6  N   UNL     1      -0.324  -3.596   2.907  0.00  0.00    -0.173 NA
ATOM      7  C   UNL     1       0.175  -1.833   6.051  0.00  0.00    +0.266 C 
ATOM      8  O   UNL     1       0.528  -2.364   7.086  0.00  0.00    -0.268 OA
ATOM      9  N   UNL     1      -0.084  -0.520   5.911  0.00  0.00    -0.283 N 
ATOM     10  C   UNL     1      -0.478  -0.274   4.518  0.00  0.00    +0.141 C 
ENDROOT
BRANCH   1  16
ATOM     11  C   UNL     1      -1.998   1.552  -0.161  0.00  0.00    +0.044 C 
ATOM     12  C   UNL     1      -1.699   0.082  -0.020  0.00  0.00    -0.049 A 
ATOM     13  C   UNL     1      -1.822  -0.755  -1.115  0.00  0.00    +0.010 A 
ATOM     14  C   UNL     1      -1.550  -2.104  -0.995  0.00  0.00    -0.008 A 
ATOM     15  C   UNL     1      -1.151  -2.626   0.225  0.00  0.00    +0.129 A 
ATOM     16  C   UNL     1      -1.026  -1.783   1.332  0.00  0.00    +0.044 A 
ATOM     17  C   UNL     1      -1.297  -0.424   1.199  0.00  0.00    +0.017 A 
ATOM     18  C   UNL     1      -1.687  -3.009  -2.193  0.00  0.00    +0.047 C 
BRANCH  15  19
ATOM     19  O   UNL     1      -0.884  -3.953   0.344  0.00  0.00    -0.506 OA
ATOM     20  H   UNL     1       0.037  -4.186   0.167  0.00  0.00    +0.292 HD
ENDBRANCH  15  19
ENDBRANCH   1  16
BRANCH  10  21
ATOM     21  C   UNL     1       0.486   0.684   3.868  0.00  0.00    -0.019 A 
ATOM     22  C   UNL     1       1.810   0.323   3.699  0.00  0.00    +0.009 A 
ATOM     23  C   UNL     1       2.698   1.198   3.103  0.00  0.00    +0.050 A 
ATOM     24  C   UNL     1       2.262   2.442   2.673  0.00  0.00    +0.162 A 
ATOM     25  C   UNL     1       0.930   2.805   2.843  0.00  0.00    +0.162 A 
ATOM     26  C   UNL     1       0.044   1.921   3.437  0.00  0.00    +0.055 A 
BRANCH  25  27
ATOM     27  O   UNL     1       0.498   4.025   2.423  0.00  0.00    -0.491 OA
ATOM     28  C   UNL     1      -0.891   4.314   2.592  0.00  0.00    +0.277 C 
ENDBRANCH  25  27
BRANCH  24  29
ATOM     29  O   UNL     1       3.135   3.305   2.088  0.00  0.00    -0.488 OA
BRANCH  29  30
ATOM     30  C   UNL     1       4.487   2.864   1.947  0.00  0.00    +0.229 C 
BRANCH  30  31
ATOM     31  C   UNL     1       5.313   3.961   1.272  0.00  0.00    +0.044 C 
BRANCH  31  32
ATOM     32  C   UNL     1       6.761   3.489   1.121  0.00  0.00    -0.014 C 
ATOM     33  C   UNL     1       7.558   4.532   0.336  0.00  0.00    +0.007 C 
ATOM     34  C   UNL     1       7.385   3.307   2.506  0.00  0.00    +0.007 C 
ENDBRANCH  31  32
ENDBRANCH  30  31
ENDBRANCH  29  30
ENDBRANCH  24  29
ENDBRANCH  10  21
BRANCH   9  35
ATOM     35  C   UNL     1       0.011   0.491   6.967  0.00  0.00    +0.137 C 
BRANCH  35  36
ATOM     36  C   UNL     1       1.464   0.950   7.105  0.00  0.00    +0.178 C 
BRANCH  36  37
ATOM     37  O   UNL     1       1.848   1.674   5.934  0.00  0.00    -0.381 OA
ATOM     38  C   UNL     1       3.149   2.260   6.014  0.00  0.00    +0.194 C 
ENDBRANCH  36  37
ENDBRANCH  35  36
ENDBRANCH   9  35
TORSDOF 11
