REMARK  Name = ZINC39464475
REMARK  7 active torsions:
REMARK  status: ('A' for Active; 'I' for Inactive)
REMARK    1  A    between atoms: C_1  and  C_2
REMARK    2  A    between atoms: C_2  and  O_3
REMARK    3  A    between atoms: O_3  and  C_4
REMARK    4  A    between atoms: C_9  and  C_10
REMARK    5  A    between atoms: C_10  and  C_11
REMARK    6  A    between atoms: P_21  and  C_27
REMARK    7  A    between atoms: C_32  and  O_33
REMARK                            x       y       z     vdW  Elec       q    Type
REMARK                         _______ _______ _______ _____ _____    ______ ____
ROOT
ATOM      1  C   UNL     1       0.777  -1.810  -1.336  0.00  0.00    +0.124 A 
ATOM      2  C   UNL     1       0.244  -2.670  -0.389  0.00  0.00    +0.050 A 
ATOM      3  C   UNL     1       0.351  -4.041  -0.552  0.00  0.00    -0.038 A 
ATOM      4  C   UNL     1       0.989  -4.557  -1.660  0.00  0.00    -0.023 A 
ATOM      5  C   UNL     1       1.522  -3.696  -2.609  0.00  0.00    +0.013 A 
ATOM      6  C   UNL     1       1.413  -2.329  -2.454  0.00  0.00    -0.001 A 
ATOM      7  C   UNL     1       1.130  -6.039  -1.885  0.00  0.00    +0.129 C 
ATOM      8  C   UNL     1       2.546  -6.335  -2.389  0.00  0.00    +0.194 C 
ATOM      9  O   UNL     1       2.636  -7.737  -2.713  0.00  0.00    -0.311 OA
ATOM     10  P   UNL     1       2.128  -8.818  -1.609  0.00  0.00    +0.318 P 
ATOM     11  O   UNL     1       3.178  -9.042  -0.592  0.00  0.00    -0.266 OA
ATOM     12  N   UNL     1       0.790  -8.143  -0.910  0.00  0.00    -0.175 NA
ATOM     13  N   UNL     1       0.860  -6.788  -0.658  0.00  0.00    -0.225 NA
ATOM     14  C   UNL     1      -0.400  -6.347  -0.040  0.00  0.00    +0.108 C 
ATOM     15  C   UNL     1      -0.240  -4.940   0.504  0.00  0.00    +0.052 C 
ATOM     16  H   UNL     1       0.010  -8.674  -0.685  0.00  0.00    +0.151 HD
ENDROOT
BRANCH  10  17
ATOM     17  C   UNL     1       1.695 -10.383  -2.418  0.00  0.00    +0.094 A 
ATOM     18  C   UNL     1       0.408 -10.593  -2.873  0.00  0.00    +0.018 A 
ATOM     19  C   UNL     1       0.077 -11.786  -3.489  0.00  0.00    +0.001 A 
ATOM     20  C   UNL     1       1.034 -12.771  -3.651  0.00  0.00    +0.004 A 
ATOM     21  C   UNL     1       2.322 -12.566  -3.198  0.00  0.00    +0.046 A 
ATOM     22  C   UNL     1       2.658 -11.367  -2.585  0.00  0.00    +0.131 A 
BRANCH  22  23
ATOM     23  O   UNL     1       3.926 -11.160  -2.143  0.00  0.00    -0.506 OA
ATOM     24  H   UNL     1       4.077 -11.445  -1.232  0.00  0.00    +0.292 HD
ENDBRANCH  22  23
ENDBRANCH  10  17
BRANCH   1  25
ATOM     25  O   UNL     1       0.671  -0.465  -1.174  0.00  0.00    -0.492 OA
BRANCH  25  27
ATOM     26  C   UNL     1      -0.019   1.526   0.010  0.00  0.00    +0.048 C 
ATOM     27  C   UNL     1       0.002  -0.004   0.002  0.00  0.00    +0.225 C 
ENDBRANCH  25  27
ENDBRANCH   1  25
BRANCH   6  28
ATOM     28  C   UNL     1       1.991  -1.403  -3.493  0.00  0.00    +0.074 C 
BRANCH  28  29
ATOM     29  C   UNL     1       0.889  -0.912  -4.396  0.00  0.00    -0.043 A 
ATOM     30  C   UNL     1       0.562  -1.621  -5.537  0.00  0.00    +0.004 A 
ATOM     31  C   UNL     1      -0.449  -1.171  -6.365  0.00  0.00    +0.000 A 
ATOM     32  C   UNL     1      -1.133  -0.012  -6.053  0.00  0.00    +0.000 A 
ATOM     33  C   UNL     1      -0.807   0.697  -4.912  0.00  0.00    +0.000 A 
ATOM     34  C   UNL     1       0.201   0.245  -4.081  0.00  0.00    +0.004 A 
ENDBRANCH  28  29
ENDBRANCH   6  28
TORSDOF 6
