REMARK  Name = ZINC43769732
REMARK  3 active torsions:
REMARK  status: ('A' for Active; 'I' for Inactive)
REMARK    1  A    between atoms: C_4  and  C_27
REMARK    2  A    between atoms: C_5  and  C_7
REMARK    3  A    between atoms: C_20  and  C_23
REMARK                            x       y       z     vdW  Elec       q    Type
REMARK                         _______ _______ _______ _____ _____    ______ ____
ROOT
ATOM      1  C   UNL     1       1.560  -2.138   0.072  0.00  0.00    +0.105 C 
ATOM      2  C   UNL     1       1.683  -2.587   1.516  0.00  0.00    +0.029 C 
ATOM      3  C   UNL     1       2.939  -2.153   2.283  0.00  0.00    +0.033 C 
ATOM      4  C   UNL     1       3.099  -3.299   3.284  0.00  0.00    -0.030 C 
ATOM      5  C   UNL     1       2.542  -4.404   2.803  0.00  0.00    -0.023 C 
ATOM      6  C   UNL     1       1.971  -4.117   1.451  0.00  0.00    +0.049 C 
ATOM      7  C   UNL     1       0.758  -4.784   0.930  0.00  0.00    -0.018 A 
ATOM      8  C   UNL     1       0.357  -6.029   1.360  0.00  0.00    +0.021 A 
ATOM      9  C   UNL     1      -0.781  -6.626   0.837  0.00  0.00    +0.019 A 
ATOM     10  C   UNL     1      -1.525  -5.977  -0.124  0.00  0.00    +0.032 A 
ATOM     11  C   UNL     1      -1.137  -4.710  -0.570  0.00  0.00    +0.085 A 
ATOM     12  C   UNL     1       0.010  -4.098  -0.034  0.00  0.00    +0.046 A 
ATOM     13  N   UNL     1       0.362  -2.821  -0.461  0.00  0.00    -0.336 N 
ATOM     14 BR   UNL     1      -1.313  -8.335   1.446  0.00  0.00    -0.050 Br
ATOM     15  H   UNL     1      -0.189  -2.370  -1.119  0.00  0.00    +0.147 HD
ENDROOT
BRANCH   1  20
ATOM     16  C   UNL     1       0.868   1.434   1.081  0.00  0.00    +0.000 A 
ATOM     17  C   UNL     1       1.046   2.099  -0.118  0.00  0.00    +0.001 A 
ATOM     18  C   UNL     1       1.390   1.393  -1.255  0.00  0.00    +0.013 A 
ATOM     19  C   UNL     1       1.557   0.021  -1.194  0.00  0.00    +0.060 A 
ATOM     20  C   UNL     1       1.380  -0.643   0.005  0.00  0.00    -0.015 A 
ATOM     21  C   UNL     1       1.034   0.063   1.143  0.00  0.00    +0.006 A 
BRANCH  19  22
ATOM     22  C   UNL     1       1.931  -0.748  -2.434  0.00  0.00    +0.418 C 
ATOM     23  F   UNL     1       2.113   0.141  -3.498  0.00  0.00    -0.166 F 
ATOM     24  F   UNL     1       3.119  -1.451  -2.206  0.00  0.00    -0.166 F 
ATOM     25  F   UNL     1       0.909  -1.650  -2.749  0.00  0.00    -0.166 F 
ENDBRANCH  19  22
ENDBRANCH   1  20
BRANCH  11  26
ATOM     26  C   UNL     1      -1.927  -4.018  -1.599  0.00  0.00    +0.388 C 
ATOM     27  O   UNL     1      -3.127  -3.841  -1.433  0.00  0.00    -0.241 OA
ATOM     28  O   UNL     1      -1.386  -3.620  -2.621  0.00  0.00    -0.241 OA
ENDBRANCH  11  26
TORSDOF 3
