REMARK  Name = ZINC39164385
REMARK  5 active torsions:
REMARK  status: ('A' for Active; 'I' for Inactive)
REMARK    1  A    between atoms: C_6  and  C_10
REMARK    2  A    between atoms: C_13  and  C_16
REMARK    3  A    between atoms: C_23  and  C_25
REMARK    4  A    between atoms: C_25  and  C_26
REMARK    5  A    between atoms: C_26  and  C_27
REMARK                            x       y       z     vdW  Elec       q    Type
REMARK                         _______ _______ _______ _____ _____    ______ ____
ROOT
ATOM      1  C   UNL     1       3.534  -2.776  -1.283  0.00  0.00    +0.081 C 
ATOM      2  N   UNL     1       4.615  -2.535  -1.904  0.00  0.00    -0.182 NA
ATOM      3  N   UNL     1       4.825  -3.330  -3.029  0.00  0.00    -0.185 N 
ATOM      4  C   UNL     1       3.686  -4.252  -3.174  0.00  0.00    +0.137 C 
ATOM      5  C   UNL     1       2.784  -3.891  -1.975  0.00  0.00    +0.086 C 
ATOM      6  C   UNL     1       5.892  -3.265  -3.849  0.00  0.00    +0.236 C 
ATOM      7  O   UNL     1       5.970  -4.009  -4.804  0.00  0.00    -0.274 OA
ENDROOT
BRANCH   1  13
ATOM      8  C   UNL     1      -0.016   1.344   0.009  0.00  0.00    +0.002 A 
ATOM      9  C   UNL     1       1.158   2.118   0.002  0.00  0.00    +0.002 A 
ATOM     10  C   UNL     1       2.389   1.570  -0.013  0.00  0.00    +0.027 A 
ATOM     11  C   UNL     1       2.533   0.108  -0.022  0.00  0.00    +0.060 A 
ATOM     12  N   UNL     1       3.569  -0.680  -0.036  0.00  0.00    -0.359 N 
ATOM     13  C   UNL     1       3.071  -2.062  -0.039  0.00  0.00    +0.222 C 
ATOM     14  N   UNL     1       1.606  -1.974  -0.024  0.00  0.00    -0.359 N 
ATOM     15  C   UNL     1       1.290  -0.712  -0.014  0.00  0.00    +0.060 A 
ATOM     16  C   UNL     1       0.002  -0.004   0.002  0.00  0.00    +0.027 A 
ATOM     17  H   UNL     1       4.499  -0.405  -0.045  0.00  0.00    +0.162 HD
ATOM     18  H   UNL     1       0.987  -2.721  -0.022  0.00  0.00    +0.162 HD
ENDBRANCH   1  13
BRANCH   4  19
ATOM     19  C   UNL     1       4.146  -5.684  -3.080  0.00  0.00    -0.025 A 
ATOM     20  C   UNL     1       5.129  -6.036  -2.174  0.00  0.00    +0.006 A 
ATOM     21  C   UNL     1       5.551  -7.349  -2.087  0.00  0.00    +0.015 A 
ATOM     22  C   UNL     1       4.989  -8.311  -2.907  0.00  0.00    +0.018 A 
ATOM     23  C   UNL     1       4.005  -7.958  -3.813  0.00  0.00    +0.015 A 
ATOM     24  C   UNL     1       3.580  -6.646  -3.896  0.00  0.00    +0.006 A 
ATOM     25 BR   UNL     1       5.566 -10.108  -2.789  0.00  0.00    -0.050 Br
ENDBRANCH   4  19
BRANCH   6  26
ATOM     26  C   UNL     1       6.990  -2.268  -3.579  0.00  0.00    +0.109 C 
BRANCH  26  27
ATOM     27  C   UNL     1       8.074  -2.402  -4.651  0.00  0.00    +0.134 C 
BRANCH  27  28
ATOM     28  C   UNL     1       9.172  -1.405  -4.381  0.00  0.00    +0.356 C 
ATOM     29  O   UNL     1       9.095  -0.657  -3.421  0.00  0.00    -0.246 OA
ATOM     30  O   UNL     1      10.138  -1.347  -5.123  0.00  0.00    -0.246 OA
ENDBRANCH  27  28
ENDBRANCH  26  27
ENDBRANCH   6  26
TORSDOF 5
