REMARK  Name = ZINC00801078
REMARK  7 active torsions:
REMARK  status: ('A' for Active; 'I' for Inactive)
REMARK    1  A    between atoms: C_1  and  C_2
REMARK    2  A    between atoms: C_2  and  C_3
REMARK    3  A    between atoms: C_2  and  C_4
REMARK    4  A    between atoms: N_6  and  C_7
REMARK    5  A    between atoms: C_7  and  C_9
REMARK    6  A    between atoms: C_7  and  C_18
REMARK    7  A    between atoms: C_27  and  O_28
REMARK                            x       y       z     vdW  Elec       q    Type
REMARK                         _______ _______ _______ _____ _____    ______ ____
ROOT
ATOM      1  C   UNL     1      -2.412   1.062   0.108  0.00  0.00    +0.137 C 
ENDROOT
BRANCH   1   2
ATOM      2  C   UNL     1      -2.375   0.149   1.306  0.00  0.00    +0.022 A 
ATOM      3  C   UNL     1      -1.148  -0.194   1.869  0.00  0.00    +0.030 A 
ATOM      4  C   UNL     1      -1.081  -1.017   2.953  0.00  0.00    +0.051 A 
ATOM      5  C   UNL     1      -2.264  -1.530   3.513  0.00  0.00    +0.022 A 
ATOM      6  C   UNL     1      -2.235  -2.383   4.632  0.00  0.00    +0.013 A 
ATOM      7  C   UNL     1      -3.424  -2.842   5.123  0.00  0.00    +0.020 A 
ATOM      8  C   UNL     1      -4.619  -2.464   4.516  0.00  0.00    +0.111 A 
ATOM      9  N   UNL     1      -4.642  -1.669   3.474  0.00  0.00    -0.251 NA
ATOM     10  C   UNL     1      -3.514  -1.185   2.945  0.00  0.00    +0.114 A 
ATOM     11  C   UNL     1      -3.545  -0.326   1.826  0.00  0.00    +0.148 A 
ATOM     12 CL   UNL     1       0.459  -1.431   3.639  0.00  0.00    -0.083 Cl
BRANCH  11  13
ATOM     13  O   UNL     1      -4.732   0.024   1.267  0.00  0.00    -0.504 OA
ATOM     14  H   UNL     1      -5.030  -0.575   0.569  0.00  0.00    +0.292 HD
ENDBRANCH  11  13
ENDBRANCH   1   2
BRANCH   1  15
ATOM     15  C   UNL     1      -2.425   0.237  -1.152  0.00  0.00    -0.019 A 
ATOM     16  C   UNL     1      -1.273  -0.404  -1.569  0.00  0.00    +0.009 A 
ATOM     17  C   UNL     1      -1.281  -1.166  -2.723  0.00  0.00    +0.050 A 
ATOM     18  C   UNL     1      -2.442  -1.280  -3.470  0.00  0.00    +0.166 A 
ATOM     19  C   UNL     1      -3.601  -0.630  -3.053  0.00  0.00    +0.167 A 
ATOM     20  C   UNL     1      -3.587   0.127  -1.893  0.00  0.00    +0.055 A 
ATOM     21  O   UNL     1      -4.597  -0.896  -3.948  0.00  0.00    -0.453 OA
ATOM     22  C   UNL     1      -4.147  -2.042  -4.694  0.00  0.00    +0.466 C 
ATOM     23  O   UNL     1      -2.712  -1.953  -4.627  0.00  0.00    -0.453 OA
ENDBRANCH   1  15
BRANCH   1  26
ATOM     24  C   UNL     1      -1.212   3.043   0.868  0.00  0.00    +0.216 C 
ATOM     25  O   UNL     1      -2.209   3.382   1.470  0.00  0.00    -0.276 OA
ATOM     26  N   UNL     1      -1.228   1.925   0.115  0.00  0.00    -0.304 N 
ATOM     27  H   UNL     1      -0.455   1.692  -0.422  0.00  0.00    +0.150 HD
BRANCH  24  29
ATOM     28  C   UNL     1       0.442   4.361  -0.426  0.00  0.00    +0.017 C 
ATOM     29  C   UNL     1       0.045   3.868   0.967  0.00  0.00    +0.069 C 
ATOM     30  C   UNL     1      -0.204   5.069   1.882  0.00  0.00    +0.017 C 
ENDBRANCH  24  29
ENDBRANCH   1  26
TORSDOF 5
