REMARK  Name = ZINC13395701
REMARK  5 active torsions:
REMARK  status: ('A' for Active; 'I' for Inactive)
REMARK    1  A    between atoms: C_1  and  C_2
REMARK    2  A    between atoms: N_4  and  C_18
REMARK    3  A    between atoms: C_7  and  C_9
REMARK    4  A    between atoms: N_10  and  C_11
REMARK    5  A    between atoms: C_16  and  O_17
REMARK                            x       y       z     vdW  Elec       q    Type
REMARK                         _______ _______ _______ _____ _____    ______ ____
ROOT
ATOM      1  C   UNL     1       0.523   1.323   0.142  0.00  0.00    +0.063 C 
ATOM      2  C   UNL     1       0.247  -0.158   0.084  0.00  0.00    +0.052 C 
ATOM      3  N   UNL     1       0.171  -0.873  -0.970  0.00  0.00    -0.181 NA
ATOM      4  N   UNL     1      -0.096  -2.213  -0.704  0.00  0.00    -0.160 N 
ATOM      5  C   UNL     1      -0.210  -2.432   0.623  0.00  0.00    +0.253 C 
ATOM      6  O   UNL     1      -0.438  -3.484   1.181  0.00  0.00    -0.272 OA
ATOM      7  C   UNL     1       0.015  -1.076   1.265  0.00  0.00    +0.164 C 
ENDROOT
BRANCH   4   8
ATOM      8  C   UNL     1      -0.228  -3.204  -1.684  0.00  0.00    +0.060 A 
ATOM      9  C   UNL     1      -0.501  -4.514  -1.315  0.00  0.00    +0.025 A 
ATOM     10  C   UNL     1      -0.632  -5.490  -2.285  0.00  0.00    +0.002 A 
ATOM     11  C   UNL     1      -0.490  -5.162  -3.621  0.00  0.00    +0.000 A 
ATOM     12  C   UNL     1      -0.218  -3.857  -3.991  0.00  0.00    +0.002 A 
ATOM     13  C   UNL     1      -0.093  -2.876  -3.027  0.00  0.00    +0.025 A 
ENDBRANCH   4   8
BRANCH   7  14
ATOM     14  C   UNL     1      -1.206  -0.648   2.038  0.00  0.00    +0.103 C 
ATOM     15  N   UNL     1      -1.099  -0.314   3.280  0.00  0.00    -0.255 NA
BRANCH  15  16
ATOM     16  C   UNL     1      -2.224  -0.029   4.013  0.00  0.00    +0.105 A 
ATOM     17  C   UNL     1      -3.321  -0.889   3.977  0.00  0.00    +0.031 A 
ATOM     18  C   UNL     1      -4.449  -0.597   4.715  0.00  0.00    +0.002 A 
ATOM     19  C   UNL     1      -4.497   0.548   5.492  0.00  0.00    +0.004 A 
ATOM     20  C   UNL     1      -3.416   1.408   5.536  0.00  0.00    +0.047 A 
ATOM     21  C   UNL     1      -2.274   1.125   4.805  0.00  0.00    +0.142 A 
BRANCH  21  22
ATOM     22  O   UNL     1      -1.208   1.966   4.851  0.00  0.00    -0.505 OA
ATOM     23  H   UNL     1      -1.229   2.664   4.182  0.00  0.00    +0.292 HD
ENDBRANCH  21  22
ENDBRANCH  15  16
ENDBRANCH   7  14
TORSDOF 4
