REMARK  Name = ZINC42334304
REMARK  2 active torsions:
REMARK  status: ('A' for Active; 'I' for Inactive)
REMARK    1  A    between atoms: N_5  and  C_9
REMARK    2  A    between atoms: C_9  and  C_17
REMARK                            x       y       z     vdW  Elec       q    Type
REMARK                         _______ _______ _______ _____ _____    ______ ____
ROOT
ATOM      1  C   UNL     1       3.618  -0.709  -0.037  0.00  0.00    +0.170 C 
ATOM      2  C   UNL     1       4.362  -0.409  -1.335  0.00  0.00    +0.064 C 
ATOM      3  C   UNL     1       3.421  -0.589  -2.530  0.00  0.00    +0.169 C 
ATOM      4  S   UNL     1       2.897  -2.327  -2.609  0.00  0.00    -0.031 S 
ATOM      5  O   UNL     1       4.049  -3.139  -2.789  0.00  0.00    -0.174 OA
ATOM      6  O   UNL     1       1.823  -2.433  -3.533  0.00  0.00    -0.174 OA
ATOM      7  C   UNL     1       2.251  -2.604  -0.933  0.00  0.00    +0.169 C 
ATOM      8  C   UNL     1       3.322  -2.200   0.084  0.00  0.00    +0.064 C 
ENDROOT
BRANCH   1  13
ATOM      9  C   UNL     1      -0.017   1.404   0.017  0.00  0.00    +0.079 A 
ATOM     10  C   UNL     1       1.135   2.067  -0.273  0.00  0.00    +0.077 A 
ATOM     11  C   UNL     1       2.353   1.357  -0.291  0.00  0.00    +0.268 A 
ATOM     12  O   UNL     1       3.397   1.935  -0.549  0.00  0.00    -0.266 OA
ATOM     13  N   UNL     1       2.357   0.037  -0.020  0.00  0.00    -0.209 N 
ATOM     14  N   UNL     1       1.160  -0.625   0.276  0.00  0.00    -0.125 NA
ATOM     15  C   UNL     1       0.023   0.025   0.295  0.00  0.00    +0.287 A 
ATOM     16  O   UNL     1      -1.127  -0.638   0.585  0.00  0.00    -0.264 OA
ENDBRANCH   1  13
BRANCH   1  17
ATOM     17  C   UNL     1       4.466  -0.275   1.131  0.00  0.00    +0.383 C 
ATOM     18  O   UNL     1       4.054   0.575   1.902  0.00  0.00    -0.244 OA
ATOM     19  O   UNL     1       5.565  -0.774   1.306  0.00  0.00    -0.244 OA
ENDBRANCH   1  17
TORSDOF 2
