REMARK  Name = ZINC64074575
REMARK  5 active torsions:
REMARK  status: ('A' for Active; 'I' for Inactive)
REMARK    1  A    between atoms: C_1  and  C_2
REMARK    2  A    between atoms: C_10  and  C_12
REMARK    3  A    between atoms: C_21  and  C_23
REMARK    4  A    between atoms: N_25  and  C_26
REMARK    5  A    between atoms: C_26  and  C_27
REMARK                            x       y       z     vdW  Elec       q    Type
REMARK                         _______ _______ _______ _____ _____    ______ ____
ROOT
ATOM      1  C   UNL     1       1.434  -0.659   1.890  0.00  0.00    +0.242 C 
ATOM      2  O   UNL     1       2.403  -1.340   1.629  0.00  0.00    -0.273 OA
ATOM      3  N   UNL     1       1.528   0.323   2.808  0.00  0.00    -0.299 N 
ATOM      4  C   UNL     1       0.336   1.079   3.211  0.00  0.00    +0.108 C 
ATOM      5  C   UNL     1       0.588   2.571   2.961  0.00  0.00    +0.026 C 
ATOM      6  C   UNL     1       1.918   2.962   3.613  0.00  0.00    -0.015 C 
ATOM      7  C   UNL     1       3.127   2.132   3.170  0.00  0.00    +0.026 C 
ATOM      8  C   UNL     1       2.823   0.645   3.421  0.00  0.00    +0.108 C 
ATOM      9  C   UNL     1       1.882   3.447   5.062  0.00  0.00    +0.021 C 
ATOM     10  C   UNL     1       2.148   4.439   3.928  0.00  0.00    +0.082 C 
ENDROOT
BRANCH   1  20
ATOM     11  C   UNL     1       0.052   1.444  -0.132  0.00  0.00    +0.042 C 
ATOM     12  C   UNL     1       0.029  -0.061  -0.058  0.00  0.00    -0.033 C 
ATOM     13  C   UNL     1      -0.076  -0.925  -1.094  0.00  0.00    +0.001 A 
ATOM     14  C   UNL     1      -0.195  -0.728  -2.544  0.00  0.00    +0.030 A 
ATOM     15  C   UNL     1      -0.285  -1.813  -3.348  0.00  0.00    +0.042 A 
ATOM     16  C   UNL     1      -0.267  -3.117  -2.831  0.00  0.00    +0.022 A 
ATOM     17  C   UNL     1      -0.160  -3.377  -1.511  0.00  0.00    +0.027 A 
ATOM     18  C   UNL     1      -0.059  -2.311  -0.574  0.00  0.00    +0.043 A 
ATOM     19  N   UNL     1       0.052  -2.304   0.732  0.00  0.00    -0.370 N 
ATOM     20  C   UNL     1       0.124  -0.912   1.188  0.00  0.00    +0.193 C 
ATOM     21 CL   UNL     1      -0.427  -1.585  -5.063  0.00  0.00    -0.084 Cl
ATOM     22  H   UNL     1       0.084  -3.089   1.301  0.00  0.00    +0.161 HD
ENDBRANCH   1  20
BRANCH  10  23
ATOM     23  C   UNL     1       3.550   4.972   3.783  0.00  0.00    +0.217 C 
ATOM     24  O   UNL     1       4.280   5.030   4.750  0.00  0.00    -0.275 OA
ATOM     25  N   UNL     1       3.994   5.385   2.579  0.00  0.00    -0.310 N 
ATOM     26  H   UNL     1       3.410   5.339   1.806  0.00  0.00    +0.149 HD
BRANCH  25  27
ATOM     27  C   UNL     1       5.357   5.902   2.439  0.00  0.00    +0.146 C 
BRANCH  27  28
ATOM     28  C   UNL     1       5.601   6.292   1.004  0.00  0.00    +0.007 A 
ATOM     29  C   UNL     1       5.396   7.487   0.397  0.00  0.00    +0.013 A 
ATOM     30  C   UNL     1       5.695   7.616  -0.946  0.00  0.00    +0.008 A 
ATOM     31  C   UNL     1       6.185   6.545  -1.617  0.00  0.00    +0.045 A 
ATOM     32  S   UNL     1       6.242   5.302  -0.337  0.00  0.00    -0.100 S 
ENDBRANCH  27  28
ENDBRANCH  25  27
ENDBRANCH  10  23
TORSDOF 4
