REMARK  Name = ZINC65266042
REMARK  8 active torsions:
REMARK  status: ('A' for Active; 'I' for Inactive)
REMARK    1  A    between atoms: C_1  and  C_2
REMARK    2  A    between atoms: C_3  and  S_8
REMARK    3  A    between atoms: C_4  and  C_7
REMARK    4  A    between atoms: S_8  and  N_11
REMARK    5  A    between atoms: N_26  and  C_27
REMARK    6  A    between atoms: C_27  and  C_28
REMARK    7  A    between atoms: C_27  and  C_29
REMARK    8  A    between atoms: C_27  and  C_30
REMARK                            x       y       z     vdW  Elec       q    Type
REMARK                         _______ _______ _______ _____ _____    ______ ____
ROOT
ATOM      1  N   UNL     1       0.757  -1.942  -3.609  0.00  0.00    -0.174 NA
ATOM      2  C   UNL     1       1.009  -0.493  -3.491  0.00  0.00    +0.112 C 
ATOM      3  C   UNL     1       2.549  -0.364  -3.353  0.00  0.00    +0.048 C 
ATOM      4  C   UNL     1       3.034  -1.496  -4.277  0.00  0.00    +0.089 C 
ATOM      5  C   UNL     1       1.979  -2.593  -4.113  0.00  0.00    +0.139 C 
ATOM      6  C   UNL     1       4.397  -1.972  -3.903  0.00  0.00    +0.095 C 
ATOM      7  N   UNL     1       5.457  -1.346  -4.513  0.00  0.00    -0.303 N 
ATOM      8  C   UNL     1       5.929  -1.847  -5.723  0.00  0.00    +0.037 A 
ATOM      9  C   UNL     1       7.293  -1.995  -5.929  0.00  0.00    +0.023 A 
ATOM     10  C   UNL     1       7.764  -2.478  -7.133  0.00  0.00    +0.002 A 
ATOM     11  C   UNL     1       6.866  -2.810  -8.130  0.00  0.00    +0.000 A 
ATOM     12  C   UNL     1       5.511  -2.667  -7.924  0.00  0.00    +0.007 A 
ATOM     13  C   UNL     1       5.018  -2.190  -6.713  0.00  0.00    -0.012 A 
ATOM     14  C   UNL     1       3.519  -2.107  -6.575  0.00  0.00    +0.119 C 
ATOM     15  N   UNL     1       3.090  -1.025  -5.680  0.00  0.00    -0.299 NA
ATOM     16  N   UNL     1       4.572  -2.925  -3.048  0.00  0.00    -0.370 N 
ATOM     17  H   UNL     1       2.201  -0.647  -5.970  0.00  0.00    +0.123 HD
ATOM     18  H   UNL     1       3.833  -3.508  -2.813  0.00  0.00    +0.161 HD
ATOM     19  H   UNL     1       5.871  -0.568  -4.107  0.00  0.00    +0.153 HD
ENDROOT
BRANCH  16  20
ATOM     20  C   UNL     1       5.887  -3.126  -2.433  0.00  0.00    +0.031 C 
ATOM     21  C   UNL     1       6.355  -1.818  -1.792  0.00  0.00    +0.033 C 
ATOM     22  C   UNL     1       5.788  -4.213  -1.361  0.00  0.00    +0.033 C 
ATOM     23  C   UNL     1       6.891  -3.557  -3.505  0.00  0.00    +0.033 C 
ENDBRANCH  16  20
BRANCH   1  24
ATOM     24  S   UNL     1      -0.661  -2.709  -3.232  0.00  0.00    +0.066 S 
ATOM     25  O   UNL     1      -0.679  -3.919  -3.978  0.00  0.00    -0.153 OA
ATOM     26  O   UNL     1      -1.690  -1.735  -3.337  0.00  0.00    -0.153 OA
BRANCH  24  29
ATOM     27  C   UNL     1      -1.596  -1.004  -0.527  0.00  0.00    +0.071 C 
ATOM     28  C   UNL     1      -0.991  -2.381  -0.444  0.00  0.00    +0.107 A 
ATOM     29  C   UNL     1      -0.571  -3.166  -1.533  0.00  0.00    +0.170 A 
ATOM     30  C   UNL     1      -0.088  -4.327  -1.051  0.00  0.00    +0.161 A 
ATOM     31  O   UNL     1      -0.190  -4.296   0.286  0.00  0.00    -0.358 OA
ATOM     32  N   UNL     1      -0.760  -3.051   0.650  0.00  0.00    -0.081 NA
ATOM     33  C   UNL     1       0.469  -5.463  -1.870  0.00  0.00    +0.091 C 
ENDBRANCH  24  29
ENDBRANCH   1  24
TORSDOF 3
