REMARK  Name = ZINC39503401
REMARK  6 active torsions:
REMARK  status: ('A' for Active; 'I' for Inactive)
REMARK    1  A    between atoms: C_4  and  C_7
REMARK    2  A    between atoms: C_7  and  C_8
REMARK    3  A    between atoms: C_15  and  C_26
REMARK    4  A    between atoms: N_18  and  C_19
REMARK    5  A    between atoms: C_24  and  O_25
REMARK    6  A    between atoms: C_31  and  O_32
REMARK                            x       y       z     vdW  Elec       q    Type
REMARK                         _______ _______ _______ _____ _____    ______ ____
ROOT
ATOM      1  C   UNL     1       4.171  -0.963   1.399  0.00  0.00    -0.005 C 
ATOM      2  C   UNL     1       3.238  -1.979   2.091  0.00  0.00    +0.006 C 
ATOM      3  C   UNL     1       4.135  -2.869   2.973  0.00  0.00    +0.026 C 
ATOM      4  C   UNL     1       5.572  -2.372   2.770  0.00  0.00    +0.036 C 
ATOM      5  C   UNL     1       5.562  -1.648   1.409  0.00  0.00    +0.029 C 
ATOM      6  C   UNL     1       6.557  -3.549   2.744  0.00  0.00    +0.035 C 
ATOM      7  C   UNL     1       7.808  -2.963   3.456  0.00  0.00    +0.042 C 
ATOM      8  C   UNL     1       7.160  -2.033   4.513  0.00  0.00    +0.114 C 
ATOM      9  N   UNL     1       5.976  -1.462   3.840  0.00  0.00    -0.321 N 
ENDROOT
BRANCH   9  10
ATOM     10  C   UNL     1       5.348  -0.256   4.171  0.00  0.00    +0.072 A 
ATOM     11  C   UNL     1       4.324  -0.239   5.106  0.00  0.00    +0.027 A 
ATOM     12  C   UNL     1       3.705   0.954   5.431  0.00  0.00    +0.002 A 
ATOM     13  C   UNL     1       4.105   2.131   4.827  0.00  0.00    +0.004 A 
ATOM     14  C   UNL     1       5.126   2.122   3.894  0.00  0.00    +0.047 A 
ATOM     15  C   UNL     1       5.754   0.932   3.566  0.00  0.00    +0.138 A 
BRANCH  15  16
ATOM     16  O   UNL     1       6.762   0.922   2.653  0.00  0.00    -0.505 OA
ATOM     17  H   UNL     1       6.465   0.791   1.742  0.00  0.00    +0.292 HD
ENDBRANCH  15  16
ENDBRANCH   9  10
BRANCH   7  18
ATOM     18  C   UNL     1       8.613  -4.053   4.115  0.00  0.00    -0.001 A 
ATOM     19  C   UNL     1       8.038  -4.844   5.091  0.00  0.00    +0.007 A 
ATOM     20  C   UNL     1       8.776  -5.844   5.697  0.00  0.00    +0.001 A 
ATOM     21  C   UNL     1      10.092  -6.054   5.328  0.00  0.00    +0.004 A 
ATOM     22  C   UNL     1      10.672  -5.266   4.354  0.00  0.00    +0.046 A 
ATOM     23  C   UNL     1       9.932  -4.266   3.740  0.00  0.00    +0.120 A 
BRANCH  23  24
ATOM     24  O   UNL     1      10.498  -3.492   2.777  0.00  0.00    -0.506 OA
ATOM     25  H   UNL     1      10.931  -2.696   3.115  0.00  0.00    +0.292 HD
ENDBRANCH  23  24
ENDBRANCH   7  18
BRANCH   1  26
ATOM     26  C   UNL     1       3.711  -0.707  -0.038  0.00  0.00    +0.038 C 
BRANCH  26  30
ATOM     27  C   UNL     1      -0.017   1.378   0.010  0.00  0.00    +0.000 A 
ATOM     28  C   UNL     1       1.171   2.086   0.002  0.00  0.00    +0.000 A 
ATOM     29  C   UNL     1       2.377   1.411  -0.013  0.00  0.00    +0.003 A 
ATOM     30  C   UNL     1       2.396   0.029  -0.020  0.00  0.00    -0.047 A 
ATOM     31  C   UNL     1       1.208  -0.679  -0.012  0.00  0.00    +0.003 A 
ATOM     32  C   UNL     1       0.002  -0.004   0.002  0.00  0.00    +0.000 A 
ENDBRANCH  26  30
ENDBRANCH   1  26
TORSDOF 6
