REMARK  Name = ZINC19294393
REMARK  19 active torsions:
REMARK  status: ('A' for Active; 'I' for Inactive)
REMARK    1  A    between atoms: C_1  and  C_2
REMARK    2  A    between atoms: C_3  and  C_34
REMARK    3  A    between atoms: N_4  and  C_30
REMARK    4  A    between atoms: C_5  and  S_7
REMARK    5  A    between atoms: S_7  and  C_8
REMARK    6  A    between atoms: C_8  and  C_9
REMARK    7  A    between atoms: N_11  and  C_12
REMARK    8  A    between atoms: N_11  and  C_16
REMARK    9  A    between atoms: C_12  and  C_13
REMARK   10  A    between atoms: C_13  and  C_14
REMARK   11  A    between atoms: C_13  and  C_15
REMARK   12  A    between atoms: C_17  and  N_29
REMARK   13  A    between atoms: N_18  and  C_25
REMARK   14  A    between atoms: C_25  and  C_26
REMARK   15  A    between atoms: C_26  and  C_27
REMARK   16  A    between atoms: C_26  and  C_28
REMARK   17  A    between atoms: C_30  and  C_31
REMARK   18  A    between atoms: C_31  and  C_32
REMARK   19  A    between atoms: C_31  and  C_33
REMARK                            x       y       z     vdW  Elec       q    Type
REMARK                         _______ _______ _______ _____ _____    ______ ____
ROOT
ATOM      1  C   UNL     1       0.922  -3.641   4.666  0.00  0.00    +0.230 C 
ATOM      2  O   UNL     1       1.274  -4.768   4.389  0.00  0.00    -0.274 OA
ATOM      3  N   UNL     1       0.657  -3.312   5.948  0.00  0.00    -0.263 N 
ENDROOT
BRANCH   3   4
ATOM      4  C   UNL     1       0.698  -4.302   6.952  0.00  0.00    +0.140 A 
ATOM      5  C   UNL     1      -0.137  -5.398   6.892  0.00  0.00    +0.127 A 
ATOM      6  N   UNL     1      -0.073  -6.346   7.887  0.00  0.00    -0.280 N 
ATOM      7  C   UNL     1       0.794  -6.206   8.906  0.00  0.00    +0.331 A 
ATOM      8  O   UNL     1       0.835  -7.056   9.775  0.00  0.00    -0.246 OA
ATOM      9  N   UNL     1       1.615  -5.145   8.981  0.00  0.00    -0.273 N 
ATOM     10  H   UNL     1       2.232  -5.067   9.726  0.00  0.00    +0.173 HD
ATOM     11  C   UNL     1       1.596  -4.190   8.030  0.00  0.00    +0.277 A 
ATOM     12  O   UNL     1       2.349  -3.233   8.106  0.00  0.00    -0.266 OA
BRANCH   5  13
ATOM     13  N   UNL     1      -1.023  -5.541   5.851  0.00  0.00    -0.343 N 
ATOM     14  H   UNL     1      -1.099  -4.845   5.180  0.00  0.00    +0.144 HD
ATOM     15  H   UNL     1      -1.573  -6.338   5.788  0.00  0.00    +0.144 HD
ENDBRANCH   5  13
BRANCH   6  16
ATOM     16  C   UNL     1      -0.955  -7.516   7.836  0.00  0.00    +0.131 C 
BRANCH  16  17
ATOM     17  C   UNL     1      -0.263  -8.643   7.067  0.00  0.00    +0.003 C 
ATOM     18  C   UNL     1       0.975  -9.102   7.840  0.00  0.00    +0.009 C 
ATOM     19  C   UNL     1      -1.229  -9.818   6.906  0.00  0.00    +0.009 C 
ENDBRANCH  16  17
ENDBRANCH   6  16
ENDBRANCH   3   4
BRANCH   1  20
ATOM     20  C   UNL     1       0.779  -2.607   3.578  0.00  0.00    +0.173 C 
BRANCH  20  21
ATOM     21  S   UNL     1       1.203  -3.350   1.979  0.00  0.00    -0.080 S 
BRANCH  21  26
ATOM     22  C   UNL     1       0.163   1.370  -0.100  0.00  0.00    +0.065 C 
ATOM     23  C   UNL     1       0.556  -0.082  -0.007  0.00  0.00    +0.034 A 
ATOM     24  C   UNL     1       0.915  -0.867  -1.037  0.00  0.00    +0.037 A 
ATOM     25  N   UNL     1       1.193  -2.111  -0.516  0.00  0.00    -0.324 N 
ATOM     26  C   UNL     1       0.990  -2.034   0.827  0.00  0.00    +0.148 A 
ATOM     27  N   UNL     1       0.614  -0.811   1.120  0.00  0.00    -0.338 N 
ATOM     28  C   UNL     1       0.997  -0.463  -2.487  0.00  0.00    +0.065 C 
ATOM     29  H   UNL     1       0.407  -0.485   2.010  0.00  0.00    +0.168 HD
BRANCH  25  30
ATOM     30  C   UNL     1       1.625  -3.293  -1.266  0.00  0.00    +0.127 C 
BRANCH  30  31
ATOM     31  C   UNL     1       3.153  -3.319  -1.342  0.00  0.00    +0.003 C 
ATOM     32  C   UNL     1       3.730  -3.498   0.064  0.00  0.00    +0.009 C 
ATOM     33  C   UNL     1       3.600  -4.483  -2.229  0.00  0.00    +0.009 C 
ENDBRANCH  30  31
ENDBRANCH  25  30
ENDBRANCH  21  26
ENDBRANCH  20  21
ENDBRANCH   1  20
BRANCH   3  34
ATOM     34  C   UNL     1       0.326  -1.928   6.296  0.00  0.00    +0.117 C 
BRANCH  34  35
ATOM     35  C   UNL     1      -1.175  -1.700   6.108  0.00  0.00    +0.001 C 
ATOM     36  C   UNL     1      -1.951  -2.558   7.110  0.00  0.00    +0.009 C 
ATOM     37  C   UNL     1      -1.500  -0.223   6.343  0.00  0.00    +0.009 C 
ENDBRANCH  34  35
ENDBRANCH   3  34
TORSDOF 11
