REMARK  Name = ZINC34367700
REMARK  8 active torsions:
REMARK  status: ('A' for Active; 'I' for Inactive)
REMARK    1  A    between atoms: C_1  and  C_2
REMARK    2  A    between atoms: C_4  and  O_10
REMARK    3  A    between atoms: C_6  and  C_9
REMARK    4  A    between atoms: O_10  and  C_11
REMARK    5  A    between atoms: C_11  and  C_12
REMARK    6  A    between atoms: N_14  and  C_15
REMARK    7  A    between atoms: C_15  and  C_16
REMARK    8  A    between atoms: C_18  and  N_20
REMARK                            x       y       z     vdW  Elec       q    Type
REMARK                         _______ _______ _______ _____ _____    ______ ____
ROOT
ATOM      1  C   UNL     1       0.049  -4.176  -2.317  0.00  0.00    +0.324 C 
ENDROOT
BRANCH   1   2
ATOM      2  C   UNL     1       0.049  -4.746  -3.712  0.00  0.00    +0.251 C 
ATOM      3  O   UNL     1       0.034  -4.004  -4.671  0.00  0.00    -0.272 OA
ATOM      4  N   UNL     1       0.067  -6.082  -3.895  0.00  0.00    -0.309 N 
ATOM      5  H   UNL     1       0.079  -6.676  -3.128  0.00  0.00    +0.149 HD
BRANCH   4   6
ATOM      6  C   UNL     1       0.067  -6.636  -5.251  0.00  0.00    +0.137 C 
BRANCH   6   7
ATOM      7  C   UNL     1       0.089  -8.141  -5.178  0.00  0.00    +0.058 C 
ATOM      8  C   UNL     1      -0.847  -8.849  -5.801  0.00  0.00    +0.232 C 
ATOM      9  O   UNL     1      -1.822  -8.217  -6.501  0.00  0.00    -0.271 OA
BRANCH   8  10
ATOM     10  N   UNL     1      -0.827 -10.236  -5.734  0.00  0.00    -0.326 N 
ATOM     11  H   UNL     1      -0.130 -10.688  -5.233  0.00  0.00    +0.145 HD
ATOM     12  H   UNL     1      -1.511 -10.753  -6.189  0.00  0.00    +0.145 HD
ENDBRANCH   8  10
ENDBRANCH   6   7
ENDBRANCH   4   6
ENDBRANCH   1   2
BRANCH   1  13
ATOM     13  O   UNL     1       0.028  -2.749  -2.386  0.00  0.00    -0.483 OA
BRANCH  13  17
ATOM     14  C   UNL     1      -0.018   1.503   0.010  0.00  0.00    +0.045 C 
ATOM     15  C   UNL     1       0.002  -0.004   0.002  0.00  0.00    -0.028 A 
ATOM     16  C   UNL     1       0.006  -0.688  -1.198  0.00  0.00    +0.050 A 
ATOM     17  C   UNL     1       0.025  -2.075  -1.206  0.00  0.00    +0.122 A 
ATOM     18  C   UNL     1       0.041  -2.773  -0.007  0.00  0.00    +0.050 A 
ATOM     19  C   UNL     1       0.037  -2.085   1.192  0.00  0.00    -0.028 A 
ATOM     20  C   UNL     1       0.023  -0.702   1.197  0.00  0.00    +0.047 A 
ATOM     21 CL   UNL     1       0.025   0.160   2.704  0.00  0.00    -0.083 Cl
ATOM     22  C   UNL     1       0.054  -2.843   2.494  0.00  0.00    +0.045 C 
ENDBRANCH  13  17
ENDBRANCH   1  13
TORSDOF 6
