REMARK  Name = ZINC63182693
REMARK  8 active torsions:
REMARK  status: ('A' for Active; 'I' for Inactive)
REMARK    1  A    between atoms: C_7  and  C_10
REMARK    2  A    between atoms: C_10  and  C_12
REMARK    3  A    between atoms: C_10  and  C_27
REMARK    4  A    between atoms: C_12  and  N_13
REMARK    5  A    between atoms: N_13  and  S_14
REMARK    6  A    between atoms: S_14  and  C_17
REMARK    7  A    between atoms: C_20  and  S_23
REMARK    8  A    between atoms: S_23  and  N_26
REMARK                            x       y       z     vdW  Elec       q    Type
REMARK                         _______ _______ _______ _____ _____    ______ ____
ROOT
ATOM      1  C   UNL     1       0.947  -4.042   1.218  0.00  0.00    +0.119 C 
ENDROOT
BRANCH   1   2
ATOM      2  N   UNL     1      -0.044  -5.118   1.282  0.00  0.00    -0.189 NA
ATOM      3  H   UNL     1      -0.843  -5.075   0.734  0.00  0.00    +0.148 HD
BRANCH   2   4
ATOM      4  S   UNL     1       0.198  -6.409   2.291  0.00  0.00    +0.058 S 
ATOM      5  O   UNL     1      -0.935  -7.254   2.149  0.00  0.00    -0.153 OA
ATOM      6  O   UNL     1       1.524  -6.864   2.057  0.00  0.00    -0.153 OA
BRANCH   4   7
ATOM      7  C   UNL     1       0.162  -5.793   3.942  0.00  0.00    +0.105 A 
ATOM      8  C   UNL     1       1.329  -5.359   4.543  0.00  0.00    +0.030 A 
ATOM      9  C   UNL     1       1.301  -4.875   5.838  0.00  0.00    +0.030 A 
ATOM     10  C   UNL     1       0.106  -4.826   6.531  0.00  0.00    +0.105 A 
ATOM     11  C   UNL     1      -1.060  -5.260   5.930  0.00  0.00    +0.030 A 
ATOM     12  C   UNL     1      -1.033  -5.739   4.634  0.00  0.00    +0.030 A 
BRANCH  10  13
ATOM     13  S   UNL     1       0.071  -4.211   8.182  0.00  0.00    +0.056 S 
ATOM     14  O   UNL     1      -1.076  -4.778   8.802  0.00  0.00    -0.153 OA
ATOM     15  O   UNL     1       1.381  -4.379   8.706  0.00  0.00    -0.153 OA
BRANCH  13  16
ATOM     16  N   UNL     1      -0.198  -2.580   8.092  0.00  0.00    -0.204 NA
ATOM     17  H   UNL     1      -0.670  -2.126   8.807  0.00  0.00    +0.144 HD
ATOM     18  H   UNL     1       0.116  -2.079   7.323  0.00  0.00    +0.144 HD
ENDBRANCH  13  16
ENDBRANCH  10  13
ENDBRANCH   4   7
ENDBRANCH   2   4
ENDBRANCH   1   2
BRANCH   1  19
ATOM     19  C   UNL     1       0.691  -3.186  -0.024  0.00  0.00    +0.069 C 
BRANCH  19  26
ATOM     20  C   UNL     1      -0.016   1.348   0.009  0.00  0.00    +0.001 A 
ATOM     21  C   UNL     1       1.166   2.101   0.002  0.00  0.00    +0.002 A 
ATOM     22  C   UNL     1       2.391   1.535  -0.013  0.00  0.00    +0.026 A 
ATOM     23  C   UNL     1       2.529   0.120  -0.022  0.00  0.00    +0.043 A 
ATOM     24  N   UNL     1       3.587  -0.654  -0.037  0.00  0.00    -0.380 N 
ATOM     25  C   UNL     1       3.143  -2.053  -0.041  0.00  0.00    +0.145 C 
ATOM     26  C   UNL     1       1.631  -2.008  -0.025  0.00  0.00    -0.032 C 
ATOM     27  C   UNL     1       1.295  -0.698  -0.014  0.00  0.00    -0.000 A 
ATOM     28  C   UNL     1       0.002  -0.004   0.002  0.00  0.00    +0.010 A 
ATOM     29  H   UNL     1       4.509  -0.353  -0.045  0.00  0.00    +0.160 HD
ENDBRANCH  19  26
BRANCH  19  30
ATOM     30  C   UNL     1       0.920  -4.014  -1.262  0.00  0.00    -0.002 A 
ATOM     31  C   UNL     1       0.053  -4.316  -2.259  0.00  0.00    +0.012 A 
ATOM     32  C   UNL     1       0.488  -5.102  -3.310  0.00  0.00    +0.008 A 
ATOM     33  C   UNL     1       1.769  -5.546  -3.312  0.00  0.00    +0.045 A 
ATOM     34  S   UNL     1       2.406  -4.845  -1.799  0.00  0.00    -0.101 S 
ENDBRANCH  19  30
ENDBRANCH   1  19
TORSDOF 8
