REMARK  Name = ZINC08831577
REMARK  14 active torsions:
REMARK  status: ('A' for Active; 'I' for Inactive)
REMARK    1  A    between atoms: C_1  and  C_2
REMARK    2  A    between atoms: C_2  and  C_3
REMARK    3  A    between atoms: C_2  and  C_4
REMARK    4  A    between atoms: C_4  and  O_5
REMARK    5  A    between atoms: O_5  and  C_6
REMARK    6  A    between atoms: C_10  and  C_12
REMARK    7  A    between atoms: N_14  and  C_15
REMARK    8  A    between atoms: C_15  and  N_17
REMARK    9  A    between atoms: N_17  and  C_18
REMARK   10  A    between atoms: C_19  and  C_32
REMARK   11  A    between atoms: C_24  and  C_28
REMARK   12  A    between atoms: C_28  and  C_29
REMARK   13  A    between atoms: C_28  and  C_30
REMARK   14  A    between atoms: C_28  and  C_31
REMARK                            x       y       z     vdW  Elec       q    Type
REMARK                         _______ _______ _______ _____ _____    ______ ____
ROOT
ATOM      1  C   UNL     1       1.081   7.360   0.033  0.00  0.00    +0.141 C 
ATOM      2  S   UNL     1      -0.410   8.200   0.051  0.00  0.00    -0.018 S 
ENDROOT
BRANCH   1   5
ATOM      3  C   UNL     1      -0.064   5.326   0.032  0.00  0.00    +0.250 C 
ATOM      4  O   UNL     1      -1.123   5.923   0.045  0.00  0.00    -0.270 OA
ATOM      5  N   UNL     1       1.096   6.012   0.025  0.00  0.00    -0.264 N 
ATOM      6  H   UNL     1       1.941   5.536   0.014  0.00  0.00    +0.157 HD
BRANCH   3  11
ATOM      7  C   UNL     1      -1.226   1.751   0.017  0.00  0.00    +0.121 A 
ATOM      8  C   UNL     1      -0.013   1.076   0.008  0.00  0.00    +0.046 A 
ATOM      9  C   UNL     1       1.177   1.781   0.000  0.00  0.00    +0.004 A 
ATOM     10  C   UNL     1       1.166   3.161   0.008  0.00  0.00    +0.013 A 
ATOM     11  C   UNL     1      -0.049   3.848   0.023  0.00  0.00    +0.041 A 
ATOM     12  C   UNL     1      -1.248   3.135   0.031  0.00  0.00    +0.058 A 
BRANCH   7  13
ATOM     13  O   UNL     1      -2.392   1.053   0.019  0.00  0.00    -0.492 OA
BRANCH  13  14
ATOM     14  C   UNL     1      -2.294  -0.373   0.011  0.00  0.00    +0.232 C 
BRANCH  14  16
ATOM     15  C   UNL     1      -3.597  -2.501  -0.120  0.00  0.00    +0.010 C 
ATOM     16  C   UNL     1      -3.699  -0.980   0.014  0.00  0.00    +0.020 C 
ATOM     17  C   UNL     1      -4.402  -0.630   1.327  0.00  0.00    +0.010 C 
ENDBRANCH  14  16
ENDBRANCH  13  14
ENDBRANCH   7  13
ENDBRANCH   3  11
ENDBRANCH   1   5
BRANCH   1  18
ATOM     18  N   UNL     1       2.241   8.046   0.026  0.00  0.00    -0.290 N 
ATOM     19  H   UNL     1       3.087   7.570   0.015  0.00  0.00    +0.154 HD
BRANCH  18  20
ATOM     20  C   UNL     1       2.227   9.433   0.034  0.00  0.00    +0.089 A 
ATOM     21  C   UNL     1       3.305  10.306   0.034  0.00  0.00    +0.084 A 
ATOM     22  C   UNL     1       3.016  11.730   0.039  0.00  0.00    -0.018 A 
ATOM     23  C   UNL     1       1.703  12.051   0.054  0.00  0.00    -0.004 A 
ATOM     24  S   UNL     1       0.858  10.495   0.053  0.00  0.00    -0.077 S 
ATOM     25  C   UNL     1       1.110  13.425   0.067  0.00  0.00    +0.047 C 
ATOM     26  C   UNL     1       2.207  14.430  -0.316  0.00  0.00    -0.000 C 
ATOM     27  C   UNL     1       3.462  14.127   0.507  0.00  0.00    +0.009 C 
ATOM     28  C   UNL     1       4.088  12.813   0.036  0.00  0.00    +0.037 C 
BRANCH  26  29
ATOM     29  C   UNL     1       1.727  15.851  -0.016  0.00  0.00    -0.035 C 
ATOM     30  C   UNL     1       1.418  15.981   1.477  0.00  0.00    +0.011 C 
ATOM     31  C   UNL     1       2.822  16.850  -0.398  0.00  0.00    +0.011 C 
ATOM     32  C   UNL     1       0.463  16.145  -0.826  0.00  0.00    +0.011 C 
ENDBRANCH  26  29
BRANCH  21  33
ATOM     33  C   UNL     1       4.652   9.822   0.026  0.00  0.00    +0.102 C 
ATOM     34  N   UNL     1       5.721   9.438   0.019  0.00  0.00    -0.191 NA
ENDBRANCH  21  33
ENDBRANCH  18  20
ENDBRANCH   1  18
TORSDOF 9
