REMARK  Name = ZINC12448358
REMARK  13 active torsions:
REMARK  status: ('A' for Active; 'I' for Inactive)
REMARK    1  A    between atoms: C_1  and  N_69
REMARK    2  A    between atoms: C_2  and  C_3
REMARK    3  A    between atoms: C_2  and  N_69
REMARK    4  A    between atoms: C_7  and  O_9
REMARK    5  A    between atoms: O_9  and  C_10
REMARK    6  A    between atoms: C_10  and  C_11
REMARK    7  A    between atoms: C_11  and  C_13
REMARK    8  A    between atoms: C_11  and  O_21
REMARK    9  A    between atoms: C_13  and  N_71
REMARK   10  A    between atoms: C_14  and  N_71
REMARK   11  A    between atoms: C_15  and  N_71
REMARK   12  A    between atoms: C_22  and  C_23
REMARK   13  A    between atoms: C_22  and  N_69
REMARK                            x       y       z     vdW  Elec       q    Type
REMARK                         _______ _______ _______ _____ _____    ______ ____
ROOT
ATOM      1  C   UNL     1       2.111   5.967  -2.719  0.00  0.00    -0.060 A 
ATOM      2  C   UNL     1       1.191   6.359  -3.674  0.00  0.00    +0.002 A 
ATOM      3  C   UNL     1       1.619   6.755  -4.928  0.00  0.00    +0.004 A 
ATOM      4  C   UNL     1       2.968   6.760  -5.229  0.00  0.00    +0.045 A 
ATOM      5  C   UNL     1       3.892   6.367  -4.272  0.00  0.00    +0.121 A 
ATOM      6  C   UNL     1       3.460   5.975  -3.013  0.00  0.00    +0.047 A 
ENDROOT
BRANCH   1   7
ATOM      7  C   UNL     1       1.640   5.537  -1.353  0.00  0.00    -0.043 C 
BRANCH   7   9
ATOM      8  C   UNL     1       0.267   3.748  -2.234  0.00  0.00    -0.095 C 
ATOM      9  N   UNL     1       1.416   4.076  -1.364  0.00  0.00    +0.383 N 
ATOM     10  H   UNL     1       2.256   3.613  -1.731  0.00  0.00    -0.081 HD
BRANCH   9  11
ATOM     11  C   UNL     1       1.163   3.594   0.010  0.00  0.00    -0.042 C 
BRANCH  11  12
ATOM     12  C   UNL     1       1.158   2.087   0.002  0.00  0.00    -0.053 A 
ATOM     13  C   UNL     1      -0.017   1.389   0.010  0.00  0.00    +0.022 A 
ATOM     14  C   UNL     1       0.002  -0.004   0.002  0.00  0.00    +0.111 A 
ATOM     15  N   UNL     1       1.126  -0.679  -0.012  0.00  0.00    -0.255 NA
ATOM     16  C   UNL     1       2.309  -0.057  -0.020  0.00  0.00    +0.071 A 
ATOM     17  C   UNL     1       2.362   1.359  -0.013  0.00  0.00    +0.002 A 
ATOM     18  C   UNL     1       3.608   2.007  -0.022  0.00  0.00    +0.010 A 
ATOM     19  C   UNL     1       4.751   1.267  -0.037  0.00  0.00    +0.001 A 
ATOM     20  C   UNL     1       4.701  -0.125  -0.044  0.00  0.00    +0.002 A 
ATOM     21  C   UNL     1       3.512  -0.786  -0.036  0.00  0.00    +0.028 A 
ENDBRANCH  11  12
ENDBRANCH   9  11
ENDBRANCH   7   9
ENDBRANCH   1   7
BRANCH   5  22
ATOM     22  O   UNL     1       5.219   6.372  -4.565  0.00  0.00    -0.489 OA
BRANCH  22  23
ATOM     23  C   UNL     1       5.591   6.793  -5.879  0.00  0.00    +0.258 C 
BRANCH  23  24
ATOM     24  C   UNL     1       7.114   6.733  -6.022  0.00  0.00    +0.135 C 
BRANCH  24  25
ATOM     25  O   UNL     1       7.713   7.681  -5.136  0.00  0.00    -0.390 OA
ATOM     26  H   UNL     1       7.447   8.596  -5.301  0.00  0.00    +0.210 HD
ENDBRANCH  24  25
BRANCH  24  27
ATOM     27  C   UNL     1       7.504   7.064  -7.463  0.00  0.00    -0.044 C 
BRANCH  27  29
ATOM     28  C   UNL     1       9.334   5.478  -7.480  0.00  0.00    -0.096 C 
ATOM     29  N   UNL     1       8.966   6.904  -7.610  0.00  0.00    +0.381 N 
ATOM     30  H   UNL     1       9.436   7.438  -6.869  0.00  0.00    -0.082 HD
BRANCH  29  31
ATOM     31  C   UNL     1       9.402   7.420  -8.924  0.00  0.00    -0.069 C 
ATOM     32  C   UNL     1       8.781   6.599 -10.056  0.00  0.00    -0.015 C 
ATOM     33  C   UNL     1       9.248   7.152 -11.404  0.00  0.00    -0.002 C 
ATOM     34  C   UNL     1      10.773   7.067 -11.489  0.00  0.00    -0.000 C 
ATOM     35  C   UNL     1      11.394   7.888 -10.358  0.00  0.00    -0.002 C 
ATOM     36  C   UNL     1      10.927   7.335  -9.010  0.00  0.00    -0.015 C 
ENDBRANCH  29  31
ENDBRANCH  27  29
ENDBRANCH  24  27
ENDBRANCH  23  24
ENDBRANCH  22  23
ENDBRANCH   5  22
TORSDOF 11
