REMARK  Name = ZINC65202660
REMARK  5 active torsions:
REMARK  status: ('A' for Active; 'I' for Inactive)
REMARK    1  A    between atoms: C_3  and  C_6
REMARK    2  A    between atoms: C_6  and  C_7
REMARK    3  A    between atoms: C_7  and  N_8
REMARK    4  A    between atoms: N_11  and  N_12
REMARK    5  A    between atoms: C_13  and  C_15
REMARK                            x       y       z     vdW  Elec       q    Type
REMARK                         _______ _______ _______ _____ _____    ______ ____
ROOT
ATOM      1  N   UNL     1       8.195   3.427   1.337  0.00  0.00    -0.227 N 
ATOM      2  C   UNL     1       9.463   3.883   1.327  0.00  0.00    +0.295 C 
ATOM      3  O   UNL     1      10.046   4.083   2.376  0.00  0.00    -0.265 OA
ATOM      4  H   UNL     1       7.730   3.267   0.501  0.00  0.00    +0.173 HD
ENDROOT
BRANCH   2   5
ATOM      5  C   UNL     1      10.142   4.138   0.049  0.00  0.00    +0.192 A 
ATOM      6  C   UNL     1      11.416   4.591  -0.083  0.00  0.00    +0.063 A 
ATOM      7  C   UNL     1      11.662   4.694  -1.521  0.00  0.00    +0.022 A 
ATOM      8  C   UNL     1      12.756   5.091  -2.295  0.00  0.00    +0.031 A 
ATOM      9  C   UNL     1      12.662   5.073  -3.659  0.00  0.00    +0.042 A 
ATOM     10  C   UNL     1      11.487   4.663  -4.278  0.00  0.00    +0.023 A 
ATOM     11  C   UNL     1      10.398   4.269  -3.531  0.00  0.00    +0.048 A 
ATOM     12  C   UNL     1      10.471   4.278  -2.143  0.00  0.00    +0.136 A 
ATOM     13  O   UNL     1       9.596   3.951  -1.171  0.00  0.00    -0.450 OA
ATOM     14 CL   UNL     1      14.019   5.566  -4.623  0.00  0.00    -0.084 Cl
ENDBRANCH   2   5
BRANCH   1  18
ATOM     15  N   UNL     1       5.633   2.506   1.403  0.00  0.00    -0.298 N 
ATOM     16  C   UNL     1       6.279   2.728   2.565  0.00  0.00    +0.316 C 
ATOM     17  O   UNL     1       5.717   2.517   3.623  0.00  0.00    -0.251 OA
ATOM     18  N   UNL     1       7.547   3.184   2.555  0.00  0.00    -0.218 N 
ATOM     19  H   UNL     1       6.082   2.674   0.560  0.00  0.00    +0.150 HD
ATOM     20  H   UNL     1       8.012   3.344   3.392  0.00  0.00    +0.174 HD
BRANCH  15  21
ATOM     21  C   UNL     1       4.255   2.011   1.414  0.00  0.00    +0.111 C 
BRANCH  21  22
ATOM     22  C   UNL     1       3.761   1.845  -0.024  0.00  0.00    +0.061 C 
BRANCH  22  25
ATOM     23  C   UNL     1      -0.016   1.351   0.009  0.00  0.00    +0.008 A 
ATOM     24  C   UNL     1       1.183   2.038   0.002  0.00  0.00    +0.011 A 
ATOM     25  C   UNL     1       2.343   1.336  -0.013  0.00  0.00    -0.009 A 
ATOM     26  S   UNL     1       1.754  -0.349  -0.017  0.00  0.00    -0.102 S 
ATOM     27  C   UNL     1       0.002  -0.004   0.002  0.00  0.00    +0.045 A 
ENDBRANCH  22  25
ENDBRANCH  21  22
ENDBRANCH  15  21
ENDBRANCH   1  18
TORSDOF 5
