REMARK  Name = ZINC52567788
REMARK  4 active torsions:
REMARK  status: ('A' for Active; 'I' for Inactive)
REMARK    1  A    between atoms: C_1  and  C_2
REMARK    2  A    between atoms: C_2  and  C_3
REMARK    3  A    between atoms: C_13  and  C_15
REMARK    4  A    between atoms: C_15  and  N_16
REMARK                            x       y       z     vdW  Elec       q    Type
REMARK                         _______ _______ _______ _____ _____    ______ ____
ROOT
ATOM      1  C   UNL     1       0.718  -0.497  -1.257  0.00  0.00    +0.107 C 
ATOM      2  C   UNL     1       0.835  -2.020  -1.222  0.00  0.00    -0.017 A 
ATOM      3  C   UNL     1       1.720  -2.699  -0.385  0.00  0.00    +0.013 A 
ATOM      4  C   UNL     1       1.767  -4.051  -0.405  0.00  0.00    +0.046 A 
ATOM      5  S   UNL     1       0.535  -4.444  -1.637  0.00  0.00    -0.101 S 
ATOM      6  C   UNL     1       0.054  -2.784  -2.033  0.00  0.00    -0.004 A 
ATOM      7  C   UNL     1      -0.964  -2.324  -3.026  0.00  0.00    +0.061 C 
ATOM      8  C   UNL     1      -1.311  -0.856  -2.731  0.00  0.00    +0.113 C 
ATOM      9  N   UNL     1      -0.061  -0.133  -2.448  0.00  0.00    -0.293 N 
ATOM     10  C   UNL     1       0.363   0.848  -3.268  0.00  0.00    +0.234 C 
ATOM     11  O   UNL     1       1.395   1.438  -3.026  0.00  0.00    -0.274 OA
ENDROOT
BRANCH   1  13
ATOM     12  C   UNL     1      -0.019   1.526   0.010  0.00  0.00    +0.006 C 
ATOM     13  C   UNL     1       0.002  -0.004   0.002  0.00  0.00    +0.024 C 
ENDBRANCH   1  13
BRANCH  10  14
ATOM     14  C   UNL     1      -0.444   1.214  -4.487  0.00  0.00    +0.213 C 
BRANCH  14  15
ATOM     15  N   UNL     1       0.224   2.300  -5.208  0.00  0.00    -0.215 N 
ATOM     16  C   UNL     1       0.005   3.612  -4.976  0.00  0.00    +0.247 C 
ATOM     17  O   UNL     1      -0.752   4.099  -4.164  0.00  0.00    -0.273 OA
ATOM     18  C   UNL     1       0.902   4.342  -5.942  0.00  0.00    +0.113 C 
ATOM     19  C   UNL     1       1.902   5.237  -5.198  0.00  0.00    +0.035 C 
ATOM     20  C   UNL     1       2.061   6.471  -6.123  0.00  0.00    +0.003 C 
ATOM     21  C   UNL     1       0.628   6.674  -6.676  0.00  0.00    +0.003 C 
ATOM     22  C   UNL     1       0.094   5.239  -6.883  0.00  0.00    +0.035 C 
ATOM     23  N   UNL     1       1.590   3.279  -6.678  0.00  0.00    -0.285 N 
ATOM     24  C   UNL     1       1.132   2.115  -6.175  0.00  0.00    +0.310 C 
ATOM     25  O   UNL     1       1.499   1.022  -6.558  0.00  0.00    -0.252 OA
ATOM     26  H   UNL     1       2.246   3.390  -7.384  0.00  0.00    +0.151 HD
ENDBRANCH  14  15
ENDBRANCH  10  14
TORSDOF 3
