REMARK  Name = ZINC22101813
REMARK  9 active torsions:
REMARK  status: ('A' for Active; 'I' for Inactive)
REMARK    1  A    between atoms: C_1  and  C_2
REMARK    2  A    between atoms: C_3  and  C_34
REMARK    3  A    between atoms: N_9  and  C_29
REMARK    4  A    between atoms: C_10  and  S_12
REMARK    5  A    between atoms: S_12  and  C_13
REMARK    6  A    between atoms: C_13  and  C_15
REMARK    7  A    between atoms: C_13  and  C_16
REMARK    8  A    between atoms: N_18  and  C_19
REMARK    9  A    between atoms: C_23  and  N_25
REMARK                            x       y       z     vdW  Elec       q    Type
REMARK                         _______ _______ _______ _____ _____    ______ ____
ROOT
ATOM      1  C   UNL     1      10.653   9.035  -1.940  0.00  0.00    +0.045 C 
ATOM      2  C   UNL     1      10.179   7.703  -1.418  0.00  0.00    -0.026 A 
ATOM      3  C   UNL     1      11.063   6.784  -1.004  0.00  0.00    -0.008 A 
ATOM      4  S   UNL     1      10.034   5.421  -0.493  0.00  0.00    -0.073 S 
ATOM      5  C   UNL     1       8.445   6.125  -0.851  0.00  0.00    +0.117 A 
ATOM      6  C   UNL     1       8.760   7.401  -1.357  0.00  0.00    +0.075 A 
ATOM      7  C   UNL     1       7.644   8.212  -1.737  0.00  0.00    +0.263 A 
ATOM      8  O   UNL     1       7.819   9.331  -2.186  0.00  0.00    -0.267 OA
ATOM      9  N   UNL     1       6.399   7.721  -1.597  0.00  0.00    -0.284 N 
ATOM     10  C   UNL     1       6.184   6.471  -1.090  0.00  0.00    +0.174 A 
ATOM     11  N   UNL     1       7.193   5.703  -0.733  0.00  0.00    -0.216 NA
ATOM     12  C   UNL     1      12.567   6.880  -0.977  0.00  0.00    +0.052 C 
ENDROOT
BRANCH   9  13
ATOM     13  C   UNL     1       5.253   8.544  -1.989  0.00  0.00    +0.093 C 
ATOM     14  C   UNL     1       5.370   8.938  -3.476  0.00  0.00    +0.025 C 
ATOM     15  C   UNL     1       4.825  10.388  -3.529  0.00  0.00    +0.002 C 
ATOM     16  C   UNL     1       5.361  11.002  -2.212  0.00  0.00    +0.002 C 
ATOM     17  C   UNL     1       5.247   9.856  -1.185  0.00  0.00    +0.025 C 
ENDBRANCH   9  13
BRANCH  10  18
ATOM     18  S   UNL     1       4.534   5.876  -0.919  0.00  0.00    -0.075 S 
BRANCH  18  19
ATOM     19  C   UNL     1       4.863   4.233  -0.234  0.00  0.00    +0.137 C 
ATOM     20  C   UNL     1       5.502   4.375   1.149  0.00  0.00    +0.029 C 
BRANCH  19  21
ATOM     21  C   UNL     1       3.569   3.470  -0.113  0.00  0.00    +0.230 C 
ATOM     22  O   UNL     1       2.513   4.067  -0.101  0.00  0.00    -0.274 OA
ATOM     23  N   UNL     1       3.585   2.126  -0.019  0.00  0.00    -0.285 N 
ATOM     24  H   UNL     1       4.543   1.591   0.056  0.00  0.00    +0.155 HD
BRANCH  23  25
ATOM     25  C   UNL     1       2.381   1.410  -0.018  0.00  0.00    +0.036 A 
ATOM     26  C   UNL     1       2.269   0.239   0.720  0.00  0.00    +0.026 A 
ATOM     27  C   UNL     1       1.082  -0.466   0.719  0.00  0.00    +0.042 A 
ATOM     28  C   UNL     1       0.003  -0.006  -0.018  0.00  0.00    +0.154 A 
ATOM     29  C   UNL     1       0.112   1.161  -0.754  0.00  0.00    +0.163 A 
ATOM     30  C   UNL     1       1.298   1.869  -0.756  0.00  0.00    +0.059 A 
ATOM     31  F   UNL     1      -1.158  -0.697  -0.017  0.00  0.00    -0.203 F 
BRANCH  29  32
ATOM     32  N   UNL     1      -1.042   1.651  -1.540  0.00  0.00    +0.059 N 
ATOM     33  O   UNL     1      -0.947   2.678  -2.188  0.00  0.00    -0.126 OA
ATOM     34  O   UNL     1      -2.088   1.026  -1.539  0.00  0.00    -0.126 OA
ENDBRANCH  29  32
ENDBRANCH  23  25
ENDBRANCH  19  21
ENDBRANCH  18  19
ENDBRANCH  10  18
TORSDOF 6
