REMARK  Name = ZINC39920370
REMARK  6 active torsions:
REMARK  status: ('A' for Active; 'I' for Inactive)
REMARK    1  A    between atoms: C_1  and  C_2
REMARK    2  A    between atoms: N_13  and  N_14
REMARK    3  A    between atoms: C_15  and  C_17
REMARK    4  A    between atoms: C_17  and  C_19
REMARK    5  A    between atoms: C_17  and  O_20
REMARK    6  A    between atoms: O_20  and  C_21
REMARK                            x       y       z     vdW  Elec       q    Type
REMARK                         _______ _______ _______ _____ _____    ______ ____
ROOT
ATOM      1  N   UNL     1       1.974  -0.337   0.943  0.00  0.00    -0.227 N 
ATOM      2  C   UNL     1       2.893   0.376   1.623  0.00  0.00    +0.270 C 
ATOM      3  O   UNL     1       2.540   1.258   2.378  0.00  0.00    -0.270 OA
ATOM      4  H   UNL     1       2.256  -1.042   0.339  0.00  0.00    +0.173 HD
ENDROOT
BRANCH   1  16
ATOM      5  C   UNL     1      -0.042   2.160   0.325  0.00  0.00    +0.051 C 
ATOM      6  C   UNL     1      -0.109   0.656   0.053  0.00  0.00    +0.177 C 
ATOM      7  N   UNL     1      -1.514   0.230   0.022  0.00  0.00    -0.324 N 
ATOM      8  C   UNL     1      -2.197   0.105   1.227  0.00  0.00    +0.041 A 
ATOM      9  C   UNL     1      -3.563   0.309   1.319  0.00  0.00    +0.025 A 
ATOM     10  C   UNL     1      -4.194   0.175   2.541  0.00  0.00    +0.017 A 
ATOM     11  C   UNL     1      -3.469  -0.160   3.675  0.00  0.00    +0.019 A 
ATOM     12  C   UNL     1      -2.107  -0.367   3.600  0.00  0.00    +0.030 A 
ATOM     13  C   UNL     1      -1.460  -0.238   2.373  0.00  0.00    +0.060 A 
ATOM     14  C   UNL     1      -0.008  -0.457   2.235  0.00  0.00    +0.266 C 
ATOM     15  O   UNL     1       0.621  -0.990   3.128  0.00  0.00    -0.268 OA
ATOM     16  N   UNL     1       0.610  -0.059   1.107  0.00  0.00    -0.196 N 
ATOM     17 BR   UNL     1      -4.354  -0.334   5.337  0.00  0.00    -0.050 Br
ATOM     18  H   UNL     1      -1.956   0.041  -0.821  0.00  0.00    +0.148 HD
ENDBRANCH   1  16
BRANCH   2  19
ATOM     19  C   UNL     1       4.360   0.078   1.446  0.00  0.00    +0.257 C 
ATOM     20  C   UNL     1       4.661  -1.327   1.970  0.00  0.00    +0.062 C 
BRANCH  19  21
ATOM     21  O   UNL     1       5.131   1.034   2.175  0.00  0.00    -0.480 OA
BRANCH  21  22
ATOM     22  C   UNL     1       6.402   1.257   1.748  0.00  0.00    +0.122 A 
ATOM     23  C   UNL     1       6.926   0.481   0.709  0.00  0.00    +0.046 A 
ATOM     24  C   UNL     1       8.194   0.680   0.259  0.00  0.00    +0.012 A 
ATOM     25  C   UNL     1       8.992   1.679   0.844  0.00  0.00    -0.018 A 
ATOM     26  C   UNL     1      10.306   1.911   0.403  0.00  0.00    +0.008 A 
ATOM     27  C   UNL     1      11.052   2.887   0.992  0.00  0.00    +0.001 A 
ATOM     28  C   UNL     1      10.531   3.661   2.027  0.00  0.00    +0.001 A 
ATOM     29  C   UNL     1       9.263   3.465   2.480  0.00  0.00    +0.008 A 
ATOM     30  C   UNL     1       8.463   2.466   1.897  0.00  0.00    -0.014 A 
ATOM     31  C   UNL     1       7.148   2.239   2.335  0.00  0.00    +0.054 A 
ENDBRANCH  21  22
ENDBRANCH  19  21
ENDBRANCH   2  19
TORSDOF 4
