REMARK  Name = ZINC21223396
REMARK  6 active torsions:
REMARK  status: ('A' for Active; 'I' for Inactive)
REMARK    1  A    between atoms: C_1  and  C_2
REMARK    2  A    between atoms: C_2  and  N_3
REMARK    3  A    between atoms: C_14  and  C_16
REMARK    4  A    between atoms: C_21  and  C_26
REMARK    5  A    between atoms: C_31  and  O_32
REMARK    6  A    between atoms: O_32  and  C_33
REMARK                            x       y       z     vdW  Elec       q    Type
REMARK                         _______ _______ _______ _____ _____    ______ ____
ROOT
ATOM      1  C   UNL     1      -0.770   8.923   0.053  0.00  0.00    +0.136 C 
ATOM      2  C   UNL     1      -0.791   9.502  -1.341  0.00  0.00    +0.036 C 
ATOM      3  C   UNL     1      -0.186  10.636  -1.733  0.00  0.00    +0.017 C 
ATOM      4  C   UNL     1      -0.268  11.091  -3.181  0.00  0.00    +0.060 C 
ATOM      5  C   UNL     1      -1.609  10.675  -3.782  0.00  0.00    +0.035 C 
ATOM      6  C   UNL     1      -1.704   9.147  -3.699  0.00  0.00    +0.088 C 
ATOM      7  C   UNL     1      -1.537   8.735  -2.267  0.00  0.00    +0.163 C 
ATOM      8  O   UNL     1      -2.061   7.706  -1.889  0.00  0.00    -0.292 OA
ATOM      9  N   UNL     1       0.532  11.454  -0.922  0.00  0.00    -0.316 N 
ATOM     10  C   UNL     1       1.500  11.026  -0.021  0.00  0.00    +0.052 A 
ATOM     11  C   UNL     1       2.835  11.367  -0.153  0.00  0.00    +0.025 A 
ATOM     12  C   UNL     1       3.741  10.945   0.805  0.00  0.00    +0.002 A 
ATOM     13  C   UNL     1       3.315  10.194   1.886  0.00  0.00    +0.002 A 
ATOM     14  C   UNL     1       1.984   9.838   2.010  0.00  0.00    +0.025 A 
ATOM     15  C   UNL     1       1.078  10.240   1.041  0.00  0.00    +0.049 A 
ATOM     16  N   UNL     1      -0.247   9.819   1.063  0.00  0.00    -0.331 N 
ATOM     17  H   UNL     1       0.364  12.540  -0.949  0.00  0.00    +0.152 HD
ATOM     18  H   UNL     1      -0.903  10.180   1.870  0.00  0.00    +0.147 HD
ENDROOT
BRANCH   1  30
ATOM     19  N   UNL     1       2.187   4.110   0.064  0.00  0.00    -0.340 N 
ATOM     20  C   UNL     1       1.208   3.192   0.402  0.00  0.00    +0.050 A 
ATOM     21  C   UNL     1       1.240   1.813   0.582  0.00  0.00    +0.026 A 
ATOM     22  C   UNL     1       0.090   1.135   0.924  0.00  0.00    +0.002 A 
ATOM     23  C   UNL     1      -1.107   1.815   1.087  0.00  0.00    +0.001 A 
ATOM     24  C   UNL     1      -1.158   3.182   0.918  0.00  0.00    +0.010 A 
ATOM     25  C   UNL     1      -0.003   3.879   0.572  0.00  0.00    +0.008 A 
ATOM     26  C   UNL     1       0.284   5.303   0.316  0.00  0.00    +0.008 A 
ATOM     27  C   UNL     1       1.650   5.384   0.008  0.00  0.00    +0.050 A 
ATOM     28  C   UNL     1       2.210   6.624  -0.282  0.00  0.00    +0.027 A 
ATOM     29  C   UNL     1       1.424   7.757  -0.265  0.00  0.00    +0.008 A 
ATOM     30  C   UNL     1       0.074   7.674   0.039  0.00  0.00    -0.022 A 
ATOM     31  C   UNL     1      -0.498   6.455   0.329  0.00  0.00    +0.016 A 
BRANCH  19  33
ATOM     32  C   UNL     1       3.775   3.477  -1.684  0.00  0.00    +0.027 C 
ATOM     33  C   UNL     1       3.590   3.780  -0.196  0.00  0.00    +0.119 C 
ENDBRANCH  19  33
ENDBRANCH   1  30
BRANCH   5  34
ATOM     34  C   UNL     1      -1.681  11.114  -5.222  0.00  0.00    -0.002 A 
ATOM     35  C   UNL     1      -0.729  10.681  -6.125  0.00  0.00    +0.007 A 
ATOM     36  C   UNL     1      -0.797  11.079  -7.447  0.00  0.00    +0.001 A 
ATOM     37  C   UNL     1      -1.812  11.920  -7.867  0.00  0.00    +0.004 A 
ATOM     38  C   UNL     1      -2.763  12.360  -6.967  0.00  0.00    +0.046 A 
ATOM     39  C   UNL     1      -2.700  11.957  -5.641  0.00  0.00    +0.124 A 
BRANCH  39  40
ATOM     40  O   UNL     1      -3.634  12.388  -4.753  0.00  0.00    -0.495 OA
ATOM     41  C   UNL     1      -4.654  13.255  -5.255  0.00  0.00    +0.277 C 
ENDBRANCH  39  40
ENDBRANCH   5  34
TORSDOF 4
