REMARK  Name = ZINC20778218
REMARK  3 active torsions:
REMARK  status: ('A' for Active; 'I' for Inactive)
REMARK    1  A    between atoms: C_3  and  C_8
REMARK    2  A    between atoms: N_16  and  C_18
REMARK    3  A    between atoms: C_18  and  C_19
REMARK                            x       y       z     vdW  Elec       q    Type
REMARK                         _______ _______ _______ _____ _____    ______ ____
ROOT
ATOM      1  C   UNL     1       0.002  -0.004   0.002  0.00  0.00    +0.097 A 
ATOM      2  C   UNL     1      -0.904  -0.846   0.660  0.00  0.00    +0.015 A 
ATOM      3  C   UNL     1      -0.543  -2.129   0.405  0.00  0.00    +0.042 A 
ATOM      4  N   UNL     1       0.548  -2.108  -0.377  0.00  0.00    -0.281 N 
ATOM      5  H   UNL     1       1.009  -3.051  -0.703  0.00  0.00    +0.189 HD
ATOM      6  N   UNL     1       0.880  -0.766  -0.621  0.00  0.00    -0.173 NA
ATOM      7  C   UNL     1      -1.290  -3.320   0.953  0.00  0.00    +0.070 C 
ATOM      8  C   UNL     1      -2.196  -2.825   2.089  0.00  0.00    +0.091 C 
ATOM      9  N   UNL     1      -2.961  -1.655   1.636  0.00  0.00    -0.293 NA
ATOM     10  C   UNL     1      -2.099  -0.469   1.499  0.00  0.00    +0.124 C 
ENDROOT
BRANCH   1  13
ATOM     11  C   UNL     1      -1.247   3.543   0.032  0.00  0.00    +0.003 A 
ATOM     12  C   UNL     1      -1.233   2.162   0.020  0.00  0.00    +0.010 A 
ATOM     13  C   UNL     1      -0.018   1.480   0.010  0.00  0.00    +0.005 A 
ATOM     14  C   UNL     1       1.177   2.195   0.003  0.00  0.00    +0.048 A 
ATOM     15  C   UNL     1       1.153   3.577   0.010  0.00  0.00    +0.124 A 
ATOM     16  C   UNL     1      -0.059   4.250   0.024  0.00  0.00    +0.038 A 
ATOM     17  F   UNL     1       2.311   4.273   0.003  0.00  0.00    -0.205 F 
ENDBRANCH   1  13
BRANCH   9  18
ATOM     18  C   UNL     1      -4.090  -1.384   2.536  0.00  0.00    +0.123 C 
BRANCH  18  19
ATOM     19  C   UNL     1      -3.568  -0.970   3.887  0.00  0.00    +0.012 A 
ATOM     20  C   UNL     1      -3.520  -1.887   4.920  0.00  0.00    +0.009 A 
ATOM     21  C   UNL     1      -3.041  -1.511   6.161  0.00  0.00    +0.004 A 
ATOM     22  C   UNL     1      -2.607  -0.216   6.374  0.00  0.00    +0.049 A 
ATOM     23  C   UNL     1      -2.652   0.709   5.344  0.00  0.00    +0.167 A 
ATOM     24  C   UNL     1      -3.131   0.328   4.092  0.00  0.00    +0.171 A 
ATOM     25  O   UNL     1      -3.077   1.408   3.258  0.00  0.00    -0.452 OA
ATOM     26  C   UNL     1      -2.937   2.554   4.119  0.00  0.00    +0.466 C 
ATOM     27  O   UNL     1      -2.291   2.024   5.292  0.00  0.00    -0.453 OA
ENDBRANCH  18  19
ENDBRANCH   9  18
TORSDOF 3
