REMARK  Name = ZINC36313793
REMARK  20 active torsions:
REMARK  status: ('A' for Active; 'I' for Inactive)
REMARK    1  A    between atoms: C_1  and  C_2
REMARK    2  A    between atoms: C_2  and  C_3
REMARK    3  A    between atoms: C_3  and  C_4
REMARK    4  A    between atoms: C_4  and  O_5
REMARK    5  A    between atoms: O_5  and  C_6
REMARK    6  A    between atoms: C_6  and  C_7
REMARK    7  A    between atoms: C_7  and  C_9
REMARK    8  A    between atoms: C_7  and  O_36
REMARK    9  A    between atoms: C_9  and  N_10
REMARK   10  A    between atoms: N_10  and  C_11
REMARK   11  A    between atoms: N_10  and  C_14
REMARK   12  A    between atoms: C_11  and  C_12
REMARK   13  A    between atoms: C_12  and  C_13
REMARK   14  A    between atoms: C_14  and  C_15
REMARK   15  A    between atoms: C_16  and  C_30
REMARK   16  A    between atoms: N_18  and  C_29
REMARK   17  A    between atoms: C_19  and  O_20
REMARK   18  A    between atoms: O_20  and  C_21
REMARK   19  A    between atoms: C_26  and  O_27
REMARK   20  A    between atoms: O_27  and  C_28
REMARK                            x       y       z     vdW  Elec       q    Type
REMARK                         _______ _______ _______ _____ _____    ______ ____
ROOT
ATOM      1  C   UNL     1       4.288  -8.404  -6.790  0.00  0.00    +0.025 A 
ATOM      2  C   UNL     1       3.901  -8.883  -8.056  0.00  0.00    +0.098 A 
ATOM      3  N   UNL     1       4.981  -9.284  -8.690  0.00  0.00    -0.168 NA
ATOM      4  N   UNL     1       6.085  -9.075  -7.854  0.00  0.00    -0.235 N 
ATOM      5  C   UNL     1       5.637  -8.528  -6.694  0.00  0.00    +0.221 A 
ATOM      6  C   UNL     1       7.480  -9.386  -8.175  0.00  0.00    +0.176 C 
ENDROOT
BRANCH   2   7
ATOM      7  C   UNL     1       2.514  -8.928  -8.583  0.00  0.00    +0.002 A 
ATOM      8  C   UNL     1       1.470  -9.360  -7.767  0.00  0.00    +0.010 A 
ATOM      9  C   UNL     1       0.182  -9.399  -8.262  0.00  0.00    +0.001 A 
ATOM     10  C   UNL     1      -0.073  -9.012  -9.566  0.00  0.00    +0.000 A 
ATOM     11  C   UNL     1       0.960  -8.583 -10.380  0.00  0.00    +0.001 A 
ATOM     12  C   UNL     1       2.251  -8.534  -9.893  0.00  0.00    +0.010 A 
ENDBRANCH   2   7
BRANCH   5  13
ATOM     13  O   UNL     1       6.400  -8.173  -5.630  0.00  0.00    -0.434 OA
BRANCH  13  14
ATOM     14  C   UNL     1       6.702  -9.130  -4.712  0.00  0.00    +0.172 A 
ATOM     15  C   UNL     1       6.325 -10.446  -4.932  0.00  0.00    +0.050 A 
ATOM     16  C   UNL     1       6.633 -11.418  -3.999  0.00  0.00    +0.004 A 
ATOM     17  C   UNL     1       7.317 -11.081  -2.845  0.00  0.00    +0.004 A 
ATOM     18  C   UNL     1       7.696  -9.771  -2.620  0.00  0.00    +0.049 A 
ATOM     19  C   UNL     1       7.395  -8.792  -3.554  0.00  0.00    +0.162 A 
BRANCH  19  20
ATOM     20  O   UNL     1       7.772  -7.504  -3.336  0.00  0.00    -0.491 OA
ATOM     21  C   UNL     1       8.480  -7.230  -2.126  0.00  0.00    +0.277 C 
ENDBRANCH  19  20
ENDBRANCH  13  14
ENDBRANCH   5  13
BRANCH   1  22
ATOM     22  C   UNL     1       3.371  -7.846  -5.733  0.00  0.00    -0.035 C 
BRANCH  22  23
ATOM     23  N   UNL     1       3.356  -6.380  -5.821  0.00  0.00    +0.384 N 
ATOM     24  H   UNL     1       4.302  -6.030  -5.773  0.00  0.00    -0.081 HD
BRANCH  23  25
ATOM     25  C   UNL     1       2.574  -5.830  -4.706  0.00  0.00    -0.079 C 
BRANCH  25  26
ATOM     26  C   UNL     1       3.282  -6.139  -3.385  0.00  0.00    -0.022 C 
ATOM     27  C   UNL     1       2.436  -5.622  -2.220  0.00  0.00    +0.002 C 
ENDBRANCH  25  26
ENDBRANCH  23  25
BRANCH  23  28
ATOM     28  C   UNL     1       2.748  -5.972  -7.094  0.00  0.00    -0.044 C 
BRANCH  28  29
ATOM     29  C   UNL     1       2.845  -4.452  -7.242  0.00  0.00    +0.124 C 
BRANCH  29  30
ATOM     30  O   UNL     1       4.218  -4.070  -7.340  0.00  0.00    -0.391 OA
ATOM     31  H   UNL     1       4.682  -4.460  -8.093  0.00  0.00    +0.210 HD
ENDBRANCH  29  30
BRANCH  29  32
ATOM     32  C   UNL     1       2.102  -4.014  -8.506  0.00  0.00    +0.189 C 
BRANCH  32  33
ATOM     33  O   UNL     1       2.093  -2.587  -8.583  0.00  0.00    -0.377 OA
BRANCH  33  34
ATOM     34  C   UNL     1       1.420  -2.071  -9.733  0.00  0.00    +0.160 C 
BRANCH  34  35
ATOM     35  C   UNL     1       1.472  -0.542  -9.712  0.00  0.00    +0.028 C 
BRANCH  35  37
ATOM     36  C   UNL     1       0.804   1.539 -10.922  0.00  0.00    +0.004 C 
ATOM     37  C   UNL     1       0.752   0.010 -10.943  0.00  0.00    -0.001 C 
ENDBRANCH  35  37
ENDBRANCH  34  35
ENDBRANCH  33  34
ENDBRANCH  32  33
ENDBRANCH  29  32
ENDBRANCH  28  29
ENDBRANCH  23  28
ENDBRANCH  22  23
ENDBRANCH   1  22
TORSDOF 16
