REMARK  Name = ZINC37423028
REMARK  8 active torsions:
REMARK  status: ('A' for Active; 'I' for Inactive)
REMARK    1  A    between atoms: C_1  and  C_2
REMARK    2  A    between atoms: C_2  and  C_3
REMARK    3  A    between atoms: C_2  and  C_4
REMARK    4  A    between atoms: C_4  and  N_5
REMARK    5  A    between atoms: C_6  and  C_8
REMARK    6  A    between atoms: C_11  and  C_13
REMARK    7  A    between atoms: C_13  and  N_14
REMARK    8  A    between atoms: C_22  and  C_24
REMARK                            x       y       z     vdW  Elec       q    Type
REMARK                         _______ _______ _______ _____ _____    ______ ____
ROOT
ATOM      1  N   UNL     1      -0.633  -7.634  -2.024  0.00  0.00    +0.394 N 
ATOM      2  C   UNL     1      -1.884  -8.043  -2.677  0.00  0.00    -0.055 C 
ATOM      3  C   UNL     1      -1.710  -8.013  -4.201  0.00  0.00    +0.103 C 
ATOM      4  N   UNL     1      -0.495  -8.767  -4.534  0.00  0.00    -0.353 N 
ATOM      5  C   UNL     1      -0.115  -9.255  -5.741  0.00  0.00    +0.086 A 
ATOM      6  C   UNL     1       1.069  -9.888  -5.585  0.00  0.00    +0.019 A 
ATOM      7  C   UNL     1       1.430  -9.782  -4.226  0.00  0.00    +0.021 A 
ATOM      8  C   UNL     1       0.461  -9.092  -3.607  0.00  0.00    +0.009 A 
ATOM      9  C   UNL     1       0.373  -8.701  -2.152  0.00  0.00    +0.011 C 
ATOM     10  H   UNL     1      -0.288  -6.793  -2.462  0.00  0.00    -0.080 HD
ENDROOT
BRANCH   9  11
ATOM     11  C   UNL     1       1.712  -8.197  -1.680  0.00  0.00    -0.052 A 
ATOM     12  C   UNL     1       2.111  -6.908  -1.984  0.00  0.00    +0.006 A 
ATOM     13  C   UNL     1       3.339  -6.442  -1.554  0.00  0.00    +0.049 A 
ATOM     14  C   UNL     1       4.175  -7.267  -0.814  0.00  0.00    +0.162 A 
ATOM     15  C   UNL     1       3.773  -8.561  -0.506  0.00  0.00    +0.162 A 
ATOM     16  C   UNL     1       2.537  -9.021  -0.938  0.00  0.00    +0.051 A 
ATOM     17  O   UNL     1       4.574  -9.383   0.225  0.00  0.00    -0.485 OA
ATOM     18  C   UNL     1       5.954  -9.015   0.326  0.00  0.00    +0.270 C 
ATOM     19  C   UNL     1       6.029  -7.518   0.653  0.00  0.00    +0.270 C 
ATOM     20  O   UNL     1       5.383  -6.795  -0.401  0.00  0.00    -0.485 OA
ENDBRANCH   9  11
BRANCH   1  21
ATOM     21  C   UNL     1      -0.889  -7.373  -0.601  0.00  0.00    -0.002 C 
BRANCH  21  25
ATOM     22  C   UNL     1      -2.558  -4.143  -0.258  0.00  0.00    +0.189 A 
ATOM     23  C   UNL     1      -3.653  -4.958  -0.291  0.00  0.00    +0.055 A 
ATOM     24  C   UNL     1      -3.174  -6.271  -0.424  0.00  0.00    +0.043 A 
ATOM     25  C   UNL     1      -1.825  -6.200  -0.465  0.00  0.00    +0.090 A 
ATOM     26  O   UNL     1      -1.458  -4.916  -0.370  0.00  0.00    -0.457 OA
BRANCH  22  28
ATOM     27  N   UNL     1      -1.416  -1.993  -0.116  0.00  0.00    -0.309 N 
ATOM     28  C   UNL     1      -2.575  -2.682  -0.130  0.00  0.00    +0.279 C 
ATOM     29  O   UNL     1      -3.635  -2.091  -0.036  0.00  0.00    -0.267 OA
ATOM     30  H   UNL     1      -0.572  -2.463  -0.190  0.00  0.00    +0.149 HD
BRANCH  27  31
ATOM     31  C   UNL     1      -1.433  -0.534   0.013  0.00  0.00    +0.107 C 
BRANCH  31  33
ATOM     32  C   UNL     1      -0.019   1.526   0.010  0.00  0.00    +0.009 C 
ATOM     33  C   UNL     1       0.002  -0.004   0.002  0.00  0.00    -0.000 C 
ATOM     34  C   UNL     1       0.742  -0.511   1.242  0.00  0.00    +0.009 C 
ENDBRANCH  31  33
ENDBRANCH  27  31
ENDBRANCH  22  28
ENDBRANCH  21  25
ENDBRANCH   1  21
TORSDOF 6
