REMARK  Name = ZINC38564949
REMARK  8 active torsions:
REMARK  status: ('A' for Active; 'I' for Inactive)
REMARK    1  A    between atoms: C_1  and  C_2
REMARK    2  A    between atoms: C_5  and  N_8
REMARK    3  A    between atoms: C_9  and  O_42
REMARK    4  A    between atoms: C_11  and  C_25
REMARK    5  A    between atoms: N_15  and  C_18
REMARK    6  A    between atoms: C_21  and  C_24
REMARK    7  A    between atoms: C_32  and  O_37
REMARK    8  A    between atoms: O_37  and  C_38
REMARK                            x       y       z     vdW  Elec       q    Type
REMARK                         _______ _______ _______ _____ _____    ______ ____
ROOT
ATOM      1  N   UNL     1      -0.221  -4.282  -0.044  0.00  0.00    -0.228 N 
ATOM      2  C   UNL     1       0.182  -4.875   1.232  0.00  0.00    +0.225 C 
ATOM      3  C   UNL     1      -0.409  -6.281   1.353  0.00  0.00    +0.146 C 
ATOM      4  C   UNL     1      -0.174  -7.029   0.065  0.00  0.00    +0.236 C 
ATOM      5  O   UNL     1       0.033  -8.224   0.087  0.00  0.00    -0.274 OA
ATOM      6  N   UNL     1      -0.195  -6.371  -1.108  0.00  0.00    -0.193 N 
ATOM      7  C   UNL     1      -0.340  -5.037  -1.149  0.00  0.00    +0.322 C 
ATOM      8  O   UNL     1      -0.580  -4.499  -2.212  0.00  0.00    -0.251 OA
ENDROOT
BRANCH   3   9
ATOM      9  C   UNL     1      -1.912  -6.182   1.622  0.00  0.00    +0.117 C 
ATOM     10  C   UNL     1      -2.478  -7.563   1.853  0.00  0.00    +0.038 A 
ATOM     11  H   UNL     1      -1.101  -8.501   3.105  0.00  0.00    +0.166 HD
ATOM     12  C   UNL     1      -3.642  -7.984   1.308  0.00  0.00    -0.016 A 
ATOM     13  C   UNL     1      -3.854  -9.345   1.748  0.00  0.00    +0.007 A 
ATOM     14  C   UNL     1      -4.872 -10.273   1.506  0.00  0.00    +0.056 A 
ATOM     15  C   UNL     1      -4.741 -11.515   2.110  0.00  0.00    +0.121 A 
ATOM     16  C   UNL     1      -3.654 -11.826   2.916  0.00  0.00    +0.047 A 
ATOM     17  C   UNL     1      -2.638 -10.921   3.167  0.00  0.00    +0.030 A 
ATOM     18  C   UNL     1      -2.745  -9.666   2.573  0.00  0.00    +0.047 A 
ATOM     19  N   UNL     1      -1.935  -8.564   2.612  0.00  0.00    -0.356 N 
ATOM     20  C   UNL     1      -4.502  -7.123   0.417  0.00  0.00    +0.052 C 
ATOM     21  C   UNL     1      -4.048  -5.666   0.583  0.00  0.00    +0.086 C 
ATOM     22  N   UNL     1      -2.585  -5.587   0.456  0.00  0.00    -0.307 NA
ATOM     23  H   UNL     1      -2.282  -4.636   0.310  0.00  0.00    +0.123 HD
BRANCH  15  24
ATOM     24  O   UNL     1      -5.704 -12.453   1.906  0.00  0.00    -0.495 OA
ATOM     25  C   UNL     1      -5.525 -13.717   2.550  0.00  0.00    +0.277 C 
ENDBRANCH  15  24
ENDBRANCH   3   9
BRANCH   1  30
ATOM     26  C   UNL     1      -1.323   1.276  -0.325  0.00  0.00    +0.044 C 
ATOM     27  C   UNL     1      -1.030  -0.200  -0.250  0.00  0.00    -0.050 A 
ATOM     28  C   UNL     1       0.240  -0.636   0.079  0.00  0.00    +0.005 A 
ATOM     29  C   UNL     1       0.511  -1.989   0.148  0.00  0.00    +0.024 A 
ATOM     30  C   UNL     1      -0.493  -2.911  -0.113  0.00  0.00    +0.040 A 
ATOM     31  C   UNL     1      -1.768  -2.470  -0.443  0.00  0.00    +0.024 A 
ATOM     32  C   UNL     1      -2.034  -1.116  -0.506  0.00  0.00    +0.005 A 
ENDBRANCH   1  30
BRANCH   6  33
ATOM     33  C   UNL     1      -0.069  -7.090  -2.306  0.00  0.00    +0.045 A 
ATOM     34  C   UNL     1       1.064  -6.937  -3.093  0.00  0.00    +0.024 A 
ATOM     35  C   UNL     1       1.185  -7.646  -4.272  0.00  0.00    +0.005 A 
ATOM     36  C   UNL     1       0.179  -8.507  -4.669  0.00  0.00    -0.050 A 
ATOM     37  C   UNL     1      -0.951  -8.662  -3.887  0.00  0.00    +0.005 A 
ATOM     38  C   UNL     1      -1.075  -7.960  -2.704  0.00  0.00    +0.024 A 
ATOM     39  C   UNL     1       0.315  -9.279  -5.956  0.00  0.00    +0.044 C 
ENDBRANCH   6  33
BRANCH   2  40
ATOM     40  O   UNL     1      -0.296  -4.063   2.307  0.00  0.00    -0.373 OA
ATOM     41  H   UNL     1       0.110  -3.186   2.348  0.00  0.00    +0.212 HD
ENDBRANCH   2  40
TORSDOF 5
