REMARK  Name = ZINC39939576
REMARK  5 active torsions:
REMARK  status: ('A' for Active; 'I' for Inactive)
REMARK    1  A    between atoms: C_11  and  C_13
REMARK    2  A    between atoms: C_13  and  S_14
REMARK    3  A    between atoms: S_14  and  C_15
REMARK    4  A    between atoms: C_19  and  C_24
REMARK    5  A    between atoms: N_20  and  C_21
REMARK                            x       y       z     vdW  Elec       q    Type
REMARK                         _______ _______ _______ _____ _____    ______ ____
ROOT
ATOM      1  C   UNL     1       6.098   3.770  -1.681  0.00  0.00    +0.237 C 
ATOM      2  N   UNL     1       5.520   4.508  -0.545  0.00  0.00    -0.237 N 
ATOM      3  N   UNL     1       4.294   5.019  -0.987  0.00  0.00    -0.169 NA
ATOM      4  C   UNL     1       4.061   4.688  -2.229  0.00  0.00    +0.147 C 
ATOM      5  N   UNL     1       5.106   3.920  -2.757  0.00  0.00    -0.282 N 
ATOM      6  H   UNL     1       5.911   4.617   0.335  0.00  0.00    +0.171 HD
ENDROOT
BRANCH   4   7
ATOM      7  C   UNL     1       2.910   5.056  -2.944  0.00  0.00    +0.022 C 
ATOM      8  C   UNL     1       1.884   5.898  -2.514  0.00  0.00    +0.006 A 
ATOM      9  C   UNL     1       1.673   6.608  -1.313  0.00  0.00    +0.010 A 
ATOM     10  C   UNL     1       0.558   7.369  -1.167  0.00  0.00    +0.001 A 
ATOM     11  C   UNL     1      -0.396   7.471  -2.182  0.00  0.00    +0.002 A 
ATOM     12  C   UNL     1      -0.258   6.816  -3.362  0.00  0.00    +0.026 A 
ATOM     13  C   UNL     1       0.882   6.002  -3.587  0.00  0.00    +0.043 A 
ATOM     14  N   UNL     1       1.244   5.277  -4.628  0.00  0.00    -0.380 N 
ATOM     15  C   UNL     1       2.527   4.628  -4.343  0.00  0.00    +0.152 C 
ATOM     16  H   UNL     1       0.742   5.190  -5.453  0.00  0.00    +0.160 HD
ENDBRANCH   4   7
BRANCH   5  17
ATOM     17  C   UNL     1       5.195   3.373  -4.113  0.00  0.00    +0.078 C 
ATOM     18  C   UNL     1       6.410   2.504  -4.446  0.00  0.00    +0.024 C 
ATOM     19  C   UNL     1       6.298   3.916  -5.024  0.00  0.00    +0.024 C 
ENDBRANCH   5  17
BRANCH   1  20
ATOM     20  S   UNL     1       6.314   2.020  -1.256  0.00  0.00    -0.109 S 
BRANCH  20  21
ATOM     21  C   UNL     1       4.651   1.476  -0.778  0.00  0.00    +0.168 C 
BRANCH  21  32
ATOM     22  C   UNL     1       3.612  -4.743   0.578  0.00  0.00    +0.000 A 
ATOM     23  C   UNL     1       4.704  -4.116   0.006  0.00  0.00    +0.002 A 
ATOM     24  C   UNL     1       4.676  -2.754  -0.218  0.00  0.00    +0.024 A 
ATOM     25  C   UNL     1       3.552  -2.014   0.130  0.00  0.00    +0.039 A 
ATOM     26  C   UNL     1       2.457  -2.643   0.700  0.00  0.00    -0.026 A 
ATOM     27  C   UNL     1       2.493  -4.009   0.924  0.00  0.00    +0.005 A 
ATOM     28  C   UNL     1       1.218  -1.875   1.079  0.00  0.00    +0.038 C 
ATOM     29  C   UNL     1       1.537  -0.389   1.236  0.00  0.00    +0.024 C 
ATOM     30  C   UNL     1       2.273   0.097  -0.019  0.00  0.00    +0.114 C 
ATOM     31  N   UNL     1       3.546  -0.632  -0.102  0.00  0.00    -0.270 N 
ATOM     32  C   UNL     1       4.690   0.018  -0.396  0.00  0.00    +0.230 C 
ATOM     33  O   UNL     1       5.750  -0.569  -0.353  0.00  0.00    -0.274 OA
ENDBRANCH  21  32
ENDBRANCH  20  21
ENDBRANCH   1  20
TORSDOF 5
