REMARK  Name = ZINC22017522
REMARK  8 active torsions:
REMARK  status: ('A' for Active; 'I' for Inactive)
REMARK    1  A    between atoms: C_1  and  O_2
REMARK    2  A    between atoms: O_2  and  C_3
REMARK    3  A    between atoms: C_5  and  C_13
REMARK    4  A    between atoms: C_7  and  O_11
REMARK    5  A    between atoms: C_8  and  O_9
REMARK    6  A    between atoms: O_9  and  C_10
REMARK    7  A    between atoms: O_11  and  C_12
REMARK    8  A    between atoms: N_31  and  C_34
REMARK                            x       y       z     vdW  Elec       q    Type
REMARK                         _______ _______ _______ _____ _____    ______ ____
ROOT
ATOM      1  C   UNL     1       1.691   3.310  -0.013  0.00  0.00    +0.153 C 
ATOM      2  C   UNL     1       1.518   1.808   0.105  0.00  0.00    +0.046 A 
ATOM      3  C   UNL     1       0.317   1.191   0.102  0.00  0.00    -0.015 A 
ATOM      4  C   UNL     1       0.579  -0.232   0.215  0.00  0.00    +0.003 A 
ATOM      5  C   UNL     1      -0.264  -1.347   0.258  0.00  0.00    +0.010 A 
ATOM      6  C   UNL     1       0.338  -2.575   0.374  0.00  0.00    +0.001 A 
ATOM      7  C   UNL     1       1.715  -2.716   0.448  0.00  0.00    +0.002 A 
ATOM      8  C   UNL     1       2.572  -1.629   0.408  0.00  0.00    +0.026 A 
ATOM      9  C   UNL     1       1.988  -0.370   0.289  0.00  0.00    +0.047 A 
ATOM     10  N   UNL     1       2.522   0.884   0.220  0.00  0.00    -0.356 N 
ATOM     11  H   UNL     1       3.571   1.213   0.244  0.00  0.00    +0.166 HD
ATOM     12  C   UNL     1      -1.025   1.872   0.008  0.00  0.00    +0.069 C 
ATOM     13  C   UNL     1      -0.842   3.281  -0.568  0.00  0.00    +0.167 C 
ATOM     14  N   UNL     1       0.344   3.887   0.076  0.00  0.00    -0.288 N 
ATOM     15  C   UNL     1      -0.068   4.984   0.714  0.00  0.00    +0.144 C 
ATOM     16  S   UNL     1       0.978   6.061   1.537  0.00  0.00    -0.018 S 
ATOM     17  N   UNL     1      -1.397   5.145   0.636  0.00  0.00    -0.249 N 
ATOM     18  C   UNL     1      -1.974   4.173  -0.100  0.00  0.00    +0.242 C 
ATOM     19  O   UNL     1      -3.156   4.040  -0.338  0.00  0.00    -0.273 OA
ENDROOT
BRANCH   1  22
ATOM     20  C   UNL     1       4.165   4.527  -2.596  0.00  0.00    +0.165 A 
ATOM     21  C   UNL     1       3.585   4.207  -1.378  0.00  0.00    +0.055 A 
ATOM     22  C   UNL     1       2.318   3.655  -1.338  0.00  0.00    -0.014 A 
ATOM     23  C   UNL     1       1.627   3.415  -2.511  0.00  0.00    +0.055 A 
ATOM     24  C   UNL     1       2.199   3.737  -3.733  0.00  0.00    +0.165 A 
ATOM     25  C   UNL     1       3.472   4.292  -3.778  0.00  0.00    +0.204 A 
BRANCH  20  27
ATOM     26  C   UNL     1       6.065   5.284  -1.382  0.00  0.00    +0.277 C 
ATOM     27  O   UNL     1       5.412   5.070  -2.635  0.00  0.00    -0.491 OA
ENDBRANCH  20  27
BRANCH  25  28
ATOM     28  O   UNL     1       4.038   4.606  -4.975  0.00  0.00    -0.488 OA
ATOM     29  C   UNL     1       4.815   3.589  -5.611  0.00  0.00    +0.277 C 
ENDBRANCH  25  28
BRANCH  24  30
ATOM     30  O   UNL     1       1.517   3.505  -4.886  0.00  0.00    -0.491 OA
ATOM     31  C   UNL     1       0.213   2.932  -4.765  0.00  0.00    +0.277 C 
ENDBRANCH  24  30
ENDBRANCH   1  22
BRANCH  17  32
ATOM     32  C   UNL     1      -2.132   6.242   1.271  0.00  0.00    +0.083 C 
ATOM     33  C   UNL     1      -1.625   7.579   0.726  0.00  0.00    +0.023 C 
ATOM     34  C   UNL     1      -2.392   8.724   1.389  0.00  0.00    +0.002 C 
ATOM     35  C   UNL     1      -2.174   8.675   2.903  0.00  0.00    +0.000 C 
ATOM     36  C   UNL     1      -2.681   7.338   3.448  0.00  0.00    +0.002 C 
ATOM     37  C   UNL     1      -1.913   6.193   2.785  0.00  0.00    +0.023 C 
ENDBRANCH  17  32
TORSDOF 5
