REMARK  Name = ZINC60040937
REMARK  15 active torsions:
REMARK  status: ('A' for Active; 'I' for Inactive)
REMARK    1  A    between atoms: C_1  and  C_2
REMARK    2  A    between atoms: C_2  and  C_3
REMARK    3  A    between atoms: C_3  and  C_4
REMARK    4  A    between atoms: C_4  and  N_5
REMARK    5  A    between atoms: C_6  and  C_8
REMARK    6  A    between atoms: C_12  and  C_32
REMARK    7  A    between atoms: N_14  and  C_16
REMARK    8  A    between atoms: C_16  and  C_17
REMARK    9  A    between atoms: N_19  and  C_20
REMARK   10  A    between atoms: C_22  and  O_29
REMARK   11  A    between atoms: C_25  and  O_26
REMARK   12  A    between atoms: O_26  and  C_27
REMARK   13  A    between atoms: C_27  and  C_28
REMARK   14  A    between atoms: O_29  and  C_30
REMARK   15  A    between atoms: C_30  and  C_31
REMARK                            x       y       z     vdW  Elec       q    Type
REMARK                         _______ _______ _______ _____ _____    ______ ____
ROOT
ATOM      1  C   UNL     1      -3.600  -7.903   1.167  0.00  0.00    +0.019 C 
ENDROOT
BRANCH   1   6
ATOM      2  C   UNL     1      -4.410  -4.415   0.043  0.00  0.00    +0.058 C 
ATOM      3  C   UNL     1      -5.115  -3.923   1.309  0.00  0.00    +0.009 C 
ATOM      4  C   UNL     1      -4.405  -4.502   2.536  0.00  0.00    -0.015 C 
ATOM      5  C   UNL     1      -4.390  -6.029   2.436  0.00  0.00    -0.071 C 
ATOM      6  N   UNL     1      -3.679  -6.437   1.218  0.00  0.00    +0.388 N 
ATOM      7  C   UNL     1      -4.395  -5.945   0.034  0.00  0.00    -0.065 C 
ATOM      8  C   UNL     1      -3.680  -6.613   3.659  0.00  0.00    -0.013 C 
ATOM      9  H   UNL     1      -2.746  -6.052   1.230  0.00  0.00    -0.081 HD
BRANCH   2  11
ATOM     10  N   UNL     1      -2.761  -2.570   0.028  0.00  0.00    -0.315 N 
ATOM     11  C   UNL     1      -2.994  -3.898   0.022  0.00  0.00    +0.214 C 
ATOM     12  O   UNL     1      -2.064  -4.676   0.001  0.00  0.00    -0.276 OA
ATOM     13  H   UNL     1      -3.505  -1.948   0.044  0.00  0.00    +0.149 HD
BRANCH  10  14
ATOM     14  C   UNL     1      -1.385  -2.068   0.008  0.00  0.00    +0.104 C 
BRANCH  14  15
ATOM     15  C   UNL     1      -1.401  -0.538   0.018  0.00  0.00    +0.018 C 
BRANCH  15  17
ATOM     16  C   UNL     1       0.020   1.517   0.009  0.00  0.00    +0.004 C 
ATOM     17  C   UNL     1       0.036  -0.013  -0.002  0.00  0.00    -0.002 C 
ENDBRANCH  15  17
ENDBRANCH  14  15
ENDBRANCH  10  14
ENDBRANCH   2  11
ENDBRANCH   1   6
BRANCH   1  18
ATOM     18  C   UNL     1      -2.765  -8.319  -0.017  0.00  0.00    +0.201 C 
ATOM     19  O   UNL     1      -2.283  -7.478  -0.746  0.00  0.00    -0.278 OA
ATOM     20  N   UNL     1      -2.554  -9.627  -0.266  0.00  0.00    -0.284 N 
ATOM     21  H   UNL     1      -2.884 -10.298   0.352  0.00  0.00    +0.155 HD
BRANCH  20  22
ATOM     22  C   UNL     1      -1.857 -10.017  -1.417  0.00  0.00    +0.079 A 
ATOM     23  C   UNL     1      -0.819  -9.234  -1.900  0.00  0.00    +0.072 A 
ATOM     24  C   UNL     1      -0.132  -9.623  -3.039  0.00  0.00    +0.122 A 
ATOM     25  C   UNL     1      -0.481 -10.794  -3.696  0.00  0.00    +0.049 A 
ATOM     26  C   UNL     1      -1.516 -11.576  -3.216  0.00  0.00    +0.051 A 
ATOM     27  C   UNL     1      -2.202 -11.196  -2.075  0.00  0.00    +0.142 A 
BRANCH  27  28
ATOM     28  O   UNL     1      -3.216 -11.969  -1.600  0.00  0.00    -0.490 OA
BRANCH  28  29
ATOM     29  C   UNL     1      -3.514 -13.163  -2.326  0.00  0.00    +0.226 C 
ATOM     30  C   UNL     1      -4.674 -13.896  -1.647  0.00  0.00    +0.048 C 
ENDBRANCH  28  29
ENDBRANCH  27  28
BRANCH  24  31
ATOM     31  O   UNL     1       0.885  -8.856  -3.514  0.00  0.00    -0.492 OA
BRANCH  31  32
ATOM     32  C   UNL     1       1.550  -9.316  -4.692  0.00  0.00    +0.225 C 
ATOM     33  C   UNL     1       2.657  -8.330  -5.072  0.00  0.00    +0.048 C 
ENDBRANCH  31  32
ENDBRANCH  24  31
ENDBRANCH  20  22
ENDBRANCH   1  18
TORSDOF 11
