REMARK  Name = ZINC22574793
REMARK  2 active torsions:
REMARK  status: ('A' for Active; 'I' for Inactive)
REMARK    1  A    between atoms: C_7  and  C_11
REMARK    2  A    between atoms: C_16  and  C_21
REMARK                            x       y       z     vdW  Elec       q    Type
REMARK                         _______ _______ _______ _____ _____    ______ ____
ROOT
ATOM      1  C   UNL     1       4.291  -1.687  -0.033  0.00  0.00    +0.158 C 
ATOM      2  C   UNL     1       5.753  -1.593  -0.404  0.00  0.00    +0.039 C 
ATOM      3  C   UNL     1       6.424  -0.422  -0.396  0.00  0.00    +0.020 C 
ATOM      4  C   UNL     1       7.891  -0.366  -0.756  0.00  0.00    +0.060 C 
ATOM      5  C   UNL     1       8.211  -1.456  -1.780  0.00  0.00    +0.032 C 
ATOM      6  C   UNL     1       7.845  -2.814  -1.170  0.00  0.00    +0.088 C 
ATOM      7  C   UNL     1       6.398  -2.792  -0.763  0.00  0.00    +0.164 C 
ATOM      8  O   UNL     1       5.771  -3.832  -0.746  0.00  0.00    -0.292 OA
ATOM      9  N   UNL     1       5.811   0.763  -0.069  0.00  0.00    -0.290 N 
ATOM     10  C   UNL     1       4.428   0.801  -0.042  0.00  0.00    +0.179 A 
ATOM     11  N   UNL     1       3.685  -0.358  -0.032  0.00  0.00    -0.301 N 
ATOM     12  C   UNL     1       2.369   0.007  -0.020  0.00  0.00    +0.069 A 
ATOM     13  C   UNL     1       1.186  -0.723  -0.013  0.00  0.00    +0.028 A 
ATOM     14  C   UNL     1       0.002  -0.004   0.002  0.00  0.00    +0.002 A 
ATOM     15  C   UNL     1      -0.017   1.380   0.010  0.00  0.00    +0.002 A 
ATOM     16  C   UNL     1       1.146   2.129   0.003  0.00  0.00    +0.028 A 
ATOM     17  C   UNL     1       2.355   1.424  -0.013  0.00  0.00    +0.066 A 
ATOM     18  N   UNL     1       3.637   1.839  -0.027  0.00  0.00    -0.327 N 
ATOM     19  H   UNL     1       6.419   1.651   0.163  0.00  0.00    +0.155 HD
ATOM     20  H   UNL     1       4.062   2.854  -0.027  0.00  0.00    +0.169 HD
ENDROOT
BRANCH   1  27
ATOM     21  C   UNL     1       2.223  -5.572   1.580  0.00  0.00    +0.001 A 
ATOM     22  C   UNL     1       2.366  -5.732   2.952  0.00  0.00    +0.002 A 
ATOM     23  C   UNL     1       3.059  -4.804   3.698  0.00  0.00    +0.026 A 
ATOM     24  C   UNL     1       3.620  -3.695   3.074  0.00  0.00    +0.047 A 
ATOM     25  C   UNL     1       3.472  -3.538   1.684  0.00  0.00    +0.005 A 
ATOM     26  C   UNL     1       2.766  -4.490   0.947  0.00  0.00    +0.010 A 
ATOM     27  C   UNL     1       4.165  -2.293   1.341  0.00  0.00    +0.005 A 
ATOM     28  C   UNL     1       4.671  -1.799   2.482  0.00  0.00    +0.089 A 
ATOM     29  N   UNL     1       4.351  -2.620   3.529  0.00  0.00    -0.360 N 
ATOM     30  H   UNL     1       4.589  -2.530   4.599  0.00  0.00    +0.165 HD
ENDBRANCH   1  27
BRANCH   5  31
ATOM     31  C   UNL     1       9.682  -1.427  -2.109  0.00  0.00    -0.043 A 
ATOM     32  C   UNL     1      10.617  -1.621  -1.110  0.00  0.00    +0.005 A 
ATOM     33  C   UNL     1      11.966  -1.600  -1.412  0.00  0.00    +0.020 A 
ATOM     34  C   UNL     1      12.380  -1.374  -2.713  0.00  0.00    +0.041 A 
ATOM     35  C   UNL     1      11.443  -1.175  -3.711  0.00  0.00    +0.020 A 
ATOM     36  C   UNL     1      10.095  -1.202  -3.409  0.00  0.00    +0.005 A 
ATOM     37 CL   UNL     1      14.073  -1.341  -3.092  0.00  0.00    -0.084 Cl
ENDBRANCH   5  31
TORSDOF 2
