REMARK  Name = ZINC22502566
REMARK  4 active torsions:
REMARK  status: ('A' for Active; 'I' for Inactive)
REMARK    1  A    between atoms: C_8  and  C_13
REMARK    2  A    between atoms: C_13  and  C_14
REMARK    3  A    between atoms: C_14  and  C_15
REMARK    4  A    between atoms: N_23  and  C_24
REMARK                            x       y       z     vdW  Elec       q    Type
REMARK                         _______ _______ _______ _____ _____    ______ ____
ROOT
ATOM      1  C   UNL     1      -0.765  -0.602   3.706  0.00  0.00    +0.233 C 
ATOM      2  O   UNL     1       0.243  -1.212   3.988  0.00  0.00    -0.272 OA
ATOM      3  N   UNL     1      -1.712  -0.395   4.643  0.00  0.00    -0.274 N 
ATOM      4  C   UNL     1      -2.850   0.300   4.323  0.00  0.00    +0.096 A 
ATOM      5  C   UNL     1      -3.808   0.510   5.246  0.00  0.00    +0.018 A 
ATOM      6  C   UNL     1      -3.653   0.031   6.560  0.00  0.00    +0.005 A 
ATOM      7  C   UNL     1      -2.533  -0.655   6.901  0.00  0.00    +0.044 A 
ATOM      8  C   UNL     1      -1.532  -0.878   5.924  0.00  0.00    +0.114 A 
ATOM      9  N   UNL     1      -0.440  -1.540   6.234  0.00  0.00    -0.368 N 
ATOM     10  H   UNL     1       0.288  -1.798   5.451  0.00  0.00    +0.161 HD
ENDROOT
BRANCH   9  11
ATOM     11  C   UNL     1      -0.192  -1.934   7.623  0.00  0.00    +0.081 C 
ATOM     12  C   UNL     1       1.043  -1.200   8.149  0.00  0.00    +0.024 C 
ATOM     13  C   UNL     1       1.302  -1.612   9.600  0.00  0.00    +0.002 C 
ATOM     14  C   UNL     1       1.539  -3.122   9.667  0.00  0.00    +0.000 C 
ATOM     15  C   UNL     1       0.305  -3.856   9.141  0.00  0.00    +0.002 C 
ATOM     16  C   UNL     1       0.046  -3.444   7.690  0.00  0.00    +0.024 C 
ENDBRANCH   9  11
BRANCH   1  17
ATOM     17  C   UNL     1      -0.961  -0.075   2.308  0.00  0.00    +0.100 C 
BRANCH  17  18
ATOM     18  C   UNL     1       0.251  -0.444   1.450  0.00  0.00    +0.022 C 
BRANCH  18  26
ATOM     19  C   UNL     1       4.849   0.370  -0.264  0.00  0.00    +0.000 A 
ATOM     20  C   UNL     1       4.796   1.688   0.153  0.00  0.00    +0.002 A 
ATOM     21  C   UNL     1       3.580   2.333   0.255  0.00  0.00    +0.023 A 
ATOM     22  C   UNL     1       2.408   1.657  -0.062  0.00  0.00    +0.037 A 
ATOM     23  C   UNL     1       2.466   0.340  -0.492  0.00  0.00    -0.025 A 
ATOM     24  C   UNL     1       3.686  -0.302  -0.588  0.00  0.00    +0.005 A 
ATOM     25  C   UNL     1       1.200  -0.392  -0.858  0.00  0.00    +0.049 C 
ATOM     26  C   UNL     1       0.053   0.090   0.030  0.00  0.00    +0.080 C 
ATOM     27  C   UNL     1       0.029   1.596   0.060  0.00  0.00    +0.221 C 
ATOM     28  O   UNL     1      -1.035   2.179   0.068  0.00  0.00    -0.275 OA
ATOM     29  N   UNL     1       1.174   2.299   0.074  0.00  0.00    -0.285 N 
ATOM     30  H   UNL     1       1.132   3.392   0.193  0.00  0.00    +0.155 HD
ENDBRANCH  18  26
ENDBRANCH  17  18
ENDBRANCH   1  17
TORSDOF 4
