REMARK  Name = ZINC40222249
REMARK  3 active torsions:
REMARK  status: ('A' for Active; 'I' for Inactive)
REMARK    1  A    between atoms: C_4  and  C_7
REMARK    2  A    between atoms: C_7  and  C_9
REMARK    3  A    between atoms: C_7  and  N_11
REMARK                            x       y       z     vdW  Elec       q    Type
REMARK                         _______ _______ _______ _____ _____    ______ ____
ROOT
ATOM      1  C   UNL     1       2.870  -0.461  -2.526  0.00  0.00    +0.189 C 
ENDROOT
BRANCH   1   2
ATOM      2  N   UNL     1       2.890  -1.926  -2.534  0.00  0.00    -0.225 N 
ATOM      3  C   UNL     1       3.501  -2.544  -1.506  0.00  0.00    +0.223 C 
ATOM      4  O   UNL     1       3.782  -1.914  -0.509  0.00  0.00    -0.275 OA
ATOM      5  C   UNL     1       3.838  -4.009  -1.581  0.00  0.00    +0.096 C 
ATOM      6  C   UNL     1       2.599  -4.848  -1.336  0.00  0.00    +0.010 C 
ATOM      7  C   UNL     1       1.450  -4.487  -2.263  0.00  0.00    +0.010 C 
ATOM      8  C   UNL     1       2.021  -4.013  -3.607  0.00  0.00    +0.096 C 
ATOM      9  C   UNL     1       2.301  -2.538  -3.549  0.00  0.00    +0.223 C 
ATOM     10  O   UNL     1       1.969  -1.863  -4.500  0.00  0.00    -0.275 OA
ENDBRANCH   1   2
BRANCH   1  14
ATOM     11  C   UNL     1      -0.019   1.526   0.010  0.00  0.00    +0.000 C 
ATOM     12  C   UNL     1       1.417   2.055  -0.000  0.00  0.00    +0.000 C 
ATOM     13  C   UNL     1       2.133   1.562  -1.259  0.00  0.00    +0.006 C 
ATOM     14  C   UNL     1       2.154   0.032  -1.268  0.00  0.00    +0.024 C 
ATOM     15  C   UNL     1       0.718  -0.497  -1.257  0.00  0.00    +0.006 C 
ATOM     16  C   UNL     1       0.002  -0.004   0.002  0.00  0.00    +0.000 C 
ENDBRANCH   1  14
BRANCH   1  17
ATOM     17  C   UNL     1       4.251   0.048  -2.537  0.00  0.00    +0.086 C 
ATOM     18  N   UNL     1       5.316   0.441  -2.545  0.00  0.00    -0.195 NA
ENDBRANCH   1  17
TORSDOF 3
