REMARK  Name = ZINC65180540
REMARK  10 active torsions:
REMARK  status: ('A' for Active; 'I' for Inactive)
REMARK    1  A    between atoms: C_1  and  C_2
REMARK    2  A    between atoms: C_3  and  C_16
REMARK    3  A    between atoms: C_4  and  C_15
REMARK    4  A    between atoms: C_16  and  C_17
REMARK    5  A    between atoms: C_17  and  C_18
REMARK    6  A    between atoms: N_20  and  N_21
REMARK    7  A    between atoms: N_24  and  C_25
REMARK    8  A    between atoms: C_25  and  C_26
REMARK    9  A    between atoms: C_26  and  C_27
REMARK   10  A    between atoms: C_26  and  C_28
REMARK                            x       y       z     vdW  Elec       q    Type
REMARK                         _______ _______ _______ _____ _____    ______ ____
ROOT
ATOM      1  C   UNL     1      -2.520   0.009   0.015  0.00  0.00    +0.048 C 
ENDROOT
BRANCH   1   4
ATOM      2  C   UNL     1      -0.018   1.503   0.010  0.00  0.00    +0.066 C 
ATOM      3  C   UNL     1       0.002  -0.004   0.002  0.00  0.00    +0.045 A 
ATOM      4  C   UNL     1      -1.200  -0.719   0.004  0.00  0.00    -0.005 A 
ATOM      5  C   UNL     1      -1.166  -2.077  -0.004  0.00  0.00    +0.047 A 
ATOM      6  N   UNL     1       0.041  -2.711  -0.013  0.00  0.00    -0.217 N 
ATOM      7  C   UNL     1       1.192  -1.977  -0.014  0.00  0.00    +0.164 A 
ATOM      8  N   UNL     1       1.150  -0.645  -0.012  0.00  0.00    -0.232 NA
ATOM      9  C   UNL     1       2.266  -2.894  -0.024  0.00  0.00    +0.046 A 
ATOM     10  C   UNL     1       3.661  -2.747  -0.029  0.00  0.00    +0.014 A 
ATOM     11  C   UNL     1       4.458  -3.851  -0.038  0.00  0.00    +0.001 A 
ATOM     12  C   UNL     1       3.907  -5.131  -0.042  0.00  0.00    +0.002 A 
ATOM     13  C   UNL     1       2.559  -5.315  -0.037  0.00  0.00    +0.030 A 
ATOM     14  C   UNL     1       1.701  -4.196  -0.028  0.00  0.00    +0.095 A 
ATOM     15  N   UNL     1       0.378  -4.070  -0.021  0.00  0.00    -0.165 NA
ATOM     16  C   UNL     1      -2.446  -2.872  -0.001  0.00  0.00    +0.066 C 
ENDBRANCH   1   4
BRANCH   1  17
ATOM     17  C   UNL     1      -2.898   0.357   1.456  0.00  0.00    +0.102 C 
BRANCH  17  18
ATOM     18  C   UNL     1      -4.218   1.086   1.466  0.00  0.00    +0.229 C 
ATOM     19  O   UNL     1      -4.798   1.304   0.424  0.00  0.00    -0.274 OA
ATOM     20  N   UNL     1      -4.753   1.494   2.634  0.00  0.00    -0.233 N 
ATOM     21  H   UNL     1      -4.288   1.319   3.468  0.00  0.00    +0.173 HD
BRANCH  20  22
ATOM     22  N   UNL     1      -5.979   2.171   2.644  0.00  0.00    -0.218 N 
ATOM     23  C   UNL     1      -6.514   2.579   3.812  0.00  0.00    +0.316 C 
ATOM     24  O   UNL     1      -7.579   3.166   3.821  0.00  0.00    -0.251 OA
ATOM     25  N   UNL     1      -5.869   2.335   4.970  0.00  0.00    -0.298 N 
ATOM     26  H   UNL     1      -6.443   2.346   1.811  0.00  0.00    +0.174 HD
ATOM     27  H   UNL     1      -5.020   1.867   4.963  0.00  0.00    +0.150 HD
BRANCH  25  28
ATOM     28  C   UNL     1      -6.451   2.779   6.240  0.00  0.00    +0.108 C 
BRANCH  28  29
ATOM     29  C   UNL     1      -5.526   2.380   7.391  0.00  0.00    -0.000 C 
ATOM     30  C   UNL     1      -4.201   3.137   7.267  0.00  0.00    +0.009 C 
ATOM     31  C   UNL     1      -6.190   2.732   8.724  0.00  0.00    +0.009 C 
ENDBRANCH  28  29
ENDBRANCH  25  28
ENDBRANCH  20  22
ENDBRANCH  17  18
ENDBRANCH   1  17
TORSDOF 6
