REMARK  Name = ZINC40744516
REMARK  10 active torsions:
REMARK  status: ('A' for Active; 'I' for Inactive)
REMARK    1  A    between atoms: C_1  and  C_2
REMARK    2  A    between atoms: C_6  and  C_8
REMARK    3  A    between atoms: C_8  and  O_9
REMARK    4  A    between atoms: O_9  and  C_10
REMARK    5  A    between atoms: C_15  and  C_16
REMARK    6  A    between atoms: C_16  and  N_17
REMARK    7  A    between atoms: N_17  and  C_18
REMARK    8  A    between atoms: C_18  and  C_19
REMARK    9  A    between atoms: C_19  and  N_20
REMARK   10  A    between atoms: C_21  and  C_23
REMARK                            x       y       z     vdW  Elec       q    Type
REMARK                         _______ _______ _______ _____ _____    ______ ____
ROOT
ATOM      1  C   UNL     1       4.072  -3.519   3.709  0.00  0.00    -0.043 C 
ENDROOT
BRANCH   1   7
ATOM      2  C   UNL     1       1.599  -3.745   4.055  0.00  0.00    +0.122 A 
ATOM      3  C   UNL     1       0.509  -4.191   4.788  0.00  0.00    +0.047 A 
ATOM      4  C   UNL     1       0.707  -4.880   5.969  0.00  0.00    +0.019 A 
ATOM      5  C   UNL     1       1.991  -5.125   6.421  0.00  0.00    +0.018 A 
ATOM      6  C   UNL     1       3.080  -4.680   5.692  0.00  0.00    +0.020 A 
ATOM      7  C   UNL     1       2.886  -3.997   4.507  0.00  0.00    -0.022 A 
ATOM      8 BR   UNL     1       2.260  -6.067   8.038  0.00  0.00    -0.050 Br
BRANCH   2   9
ATOM      9  O   UNL     1       1.406  -3.067   2.893  0.00  0.00    -0.487 OA
BRANCH   9  10
ATOM     10  C   UNL     1       0.054  -2.845   2.489  0.00  0.00    +0.264 C 
BRANCH  10  16
ATOM     11  C   UNL     1      -0.018   1.503   0.010  0.00  0.00    +0.044 C 
ATOM     12  C   UNL     1       0.002  -0.004   0.002  0.00  0.00    -0.050 A 
ATOM     13  C   UNL     1       0.006  -0.689  -1.199  0.00  0.00    +0.003 A 
ATOM     14  C   UNL     1       0.025  -2.071  -1.207  0.00  0.00    +0.001 A 
ATOM     15  C   UNL     1       0.040  -2.768  -0.013  0.00  0.00    +0.007 A 
ATOM     16  C   UNL     1       0.037  -2.084   1.188  0.00  0.00    -0.010 A 
ATOM     17  C   UNL     1       0.023  -0.702   1.195  0.00  0.00    +0.010 A 
ENDBRANCH  10  16
ENDBRANCH   9  10
ENDBRANCH   2   9
ENDBRANCH   1   7
BRANCH   1  18
ATOM     18  N   UNL     1       4.298  -2.092   3.974  0.00  0.00    +0.383 N 
ATOM     19  H   UNL     1       3.479  -1.567   3.706  0.00  0.00    -0.085 HD
ATOM     20  H   UNL     1       4.477  -1.956   4.958  0.00  0.00    -0.085 HD
BRANCH  18  21
ATOM     21  C   UNL     1       5.454  -1.626   3.197  0.00  0.00    -0.063 C 
BRANCH  21  22
ATOM     22  C   UNL     1       5.689  -0.140   3.472  0.00  0.00    +0.085 C 
BRANCH  22  23
ATOM     23  N   UNL     1       6.842   0.324   2.697  0.00  0.00    -0.312 N 
ATOM     24  C   UNL     1       7.237   1.610   2.782  0.00  0.00    +0.269 C 
ATOM     25  O   UNL     1       6.638   2.384   3.501  0.00  0.00    -0.268 OA
ATOM     26  H   UNL     1       7.320  -0.293   2.123  0.00  0.00    +0.149 HD
BRANCH  24  27
ATOM     27  C   UNL     1       8.403   2.079   1.998  0.00  0.00    +0.209 A 
ATOM     28  C   UNL     1       8.946   3.442   1.997  0.00  0.00    +0.192 A 
ATOM     29  N   UNL     1       9.970   3.476   1.188  0.00  0.00    -0.033 NA
ATOM     30  O   UNL     1      10.136   2.179   0.642  0.00  0.00    -0.240 OA
ATOM     31  N   UNL     1       9.129   1.349   1.192  0.00  0.00    -0.042 NA
ATOM     32  N   UNL     1       8.455   4.513   2.731  0.00  0.00    -0.339 N 
ATOM     33  H   UNL     1       7.686   4.393   3.309  0.00  0.00    +0.144 HD
ATOM     34  H   UNL     1       8.882   5.382   2.666  0.00  0.00    +0.144 HD
ENDBRANCH  24  27
ENDBRANCH  22  23
ENDBRANCH  21  22
ENDBRANCH  18  21
ENDBRANCH   1  18
TORSDOF 9
