REMARK  Name = ZINC09541650
REMARK  6 active torsions:
REMARK  status: ('A' for Active; 'I' for Inactive)
REMARK    1  A    between atoms: C_1  and  C_2
REMARK    2  A    between atoms: C_2  and  C_3
REMARK    3  A    between atoms: C_6  and  C_9
REMARK    4  A    between atoms: C_11  and  C_24
REMARK    5  A    between atoms: C_13  and  C_16
REMARK    6  A    between atoms: C_21  and  O_22
REMARK                            x       y       z     vdW  Elec       q    Type
REMARK                         _______ _______ _______ _____ _____    ______ ____
ROOT
ATOM      1  C   UNL     1       5.363  -1.862   1.411  0.00  0.00    +0.040 C 
ATOM      2  N   UNL     1       5.595  -2.672   0.448  0.00  0.00    -0.299 NA
ATOM      3  C   UNL     1       4.813  -2.727  -0.781  0.00  0.00    +0.081 C 
ATOM      4  C   UNL     1       3.711  -0.715  -0.037  0.00  0.00    -0.028 C 
ATOM      5  C   UNL     1       4.236  -0.867   1.394  0.00  0.00    +0.044 C 
ATOM      6  N   UNL     1       3.513  -2.064  -0.602  0.00  0.00    +0.401 N 
ATOM      7  H   UNL     1       2.932  -2.619   0.037  0.00  0.00    -0.081 HD
ATOM      8  H   UNL     1       3.042  -1.986  -1.511  0.00  0.00    -0.081 HD
ENDROOT
BRANCH   4   9
ATOM      9  C   UNL     1       2.397   0.023  -0.020  0.00  0.00    -0.018 A 
ATOM     10  C   UNL     1       1.208  -0.681  -0.013  0.00  0.00    +0.025 A 
ATOM     11  C   UNL     1       0.002  -0.004   0.002  0.00  0.00    +0.041 A 
ATOM     12  C   UNL     1      -0.017   1.380   0.010  0.00  0.00    +0.023 A 
ATOM     13  C   UNL     1       1.169   2.087   0.002  0.00  0.00    +0.047 A 
ATOM     14  C   UNL     1       2.380   1.410  -0.013  0.00  0.00    +0.119 A 
ATOM     15 CL   UNL     1      -1.490  -0.891   0.012  0.00  0.00    -0.084 Cl
BRANCH  14  16
ATOM     16  O   UNL     1       3.549   2.105  -0.020  0.00  0.00    -0.507 OA
ATOM     17  H   UNL     1       3.878   2.311  -0.905  0.00  0.00    +0.292 HD
ENDBRANCH  14  16
ENDBRANCH   4   9
BRANCH   3  18
ATOM     18  C   UNL     1       4.582  -4.168  -1.158  0.00  0.00    -0.040 A 
ATOM     19  C   UNL     1       3.435  -4.528  -1.840  0.00  0.00    +0.005 A 
ATOM     20  C   UNL     1       3.225  -5.849  -2.190  0.00  0.00    +0.015 A 
ATOM     21  C   UNL     1       4.159  -6.811  -1.850  0.00  0.00    +0.018 A 
ATOM     22  C   UNL     1       5.304  -6.451  -1.163  0.00  0.00    +0.015 A 
ATOM     23  C   UNL     1       5.516  -5.129  -0.817  0.00  0.00    +0.005 A 
ATOM     24 BR   UNL     1       3.869  -8.619  -2.322  0.00  0.00    -0.050 Br
ENDBRANCH   3  18
BRANCH   1  28
ATOM     25  C   UNL     1       7.894  -1.993   4.818  0.00  0.00    -0.048 A 
ATOM     26  C   UNL     1       8.118  -2.855   3.759  0.00  0.00    +0.004 A 
ATOM     27  C   UNL     1       7.300  -2.818   2.649  0.00  0.00    +0.010 A 
ATOM     28  C   UNL     1       6.243  -1.907   2.596  0.00  0.00    -0.004 A 
ATOM     29  C   UNL     1       6.025  -1.036   3.665  0.00  0.00    +0.010 A 
ATOM     30  C   UNL     1       6.848  -1.088   4.771  0.00  0.00    +0.004 A 
BRANCH  25  32
ATOM     31  C   UNL     1       9.967  -1.081   5.827  0.00  0.00    +0.009 C 
ATOM     32  C   UNL     1       8.792  -2.040   6.027  0.00  0.00    +0.032 C 
ENDBRANCH  25  32
ENDBRANCH   1  28
TORSDOF 5
