REMARK  Name = ZINC45945445
REMARK  13 active torsions:
REMARK  status: ('A' for Active; 'I' for Inactive)
REMARK    1  A    between atoms: C_1  and  C_2
REMARK    2  A    between atoms: C_5  and  C_35
REMARK    3  A    between atoms: N_8  and  C_10
REMARK    4  A    between atoms: C_10  and  C_11
REMARK    5  A    between atoms: C_11  and  N_12
REMARK    6  A    between atoms: N_12  and  C_13
REMARK    7  A    between atoms: N_12  and  S_23
REMARK    8  A    between atoms: C_13  and  C_14
REMARK    9  A    between atoms: C_14  and  C_15
REMARK   10  A    between atoms: S_23  and  C_26
REMARK   11  A    between atoms: C_29  and  C_32
REMARK   12  A    between atoms: C_32  and  C_33
REMARK   13  A    between atoms: C_32  and  C_34
REMARK                            x       y       z     vdW  Elec       q    Type
REMARK                         _______ _______ _______ _____ _____    ______ ____
ROOT
ATOM      1  N   UNL     1       3.766  -2.508   3.387  0.00  0.00    -0.178 NA
ENDROOT
BRANCH   1   2
ATOM      2  S   UNL     1       4.019  -1.516   4.689  0.00  0.00    +0.061 S 
ATOM      3  O   UNL     1       5.192  -1.987   5.337  0.00  0.00    -0.153 OA
ATOM      4  O   UNL     1       3.894  -0.182   4.213  0.00  0.00    -0.153 OA
BRANCH   2   5
ATOM      5  C   UNL     1       2.685  -1.777   5.810  0.00  0.00    +0.105 A 
ATOM      6  C   UNL     1       1.536  -1.016   5.706  0.00  0.00    +0.029 A 
ATOM      7  C   UNL     1       0.489  -1.221   6.586  0.00  0.00    +0.006 A 
ATOM      8  C   UNL     1       0.592  -2.187   7.569  0.00  0.00    -0.045 A 
ATOM      9  C   UNL     1       1.741  -2.948   7.672  0.00  0.00    +0.006 A 
ATOM     10  C   UNL     1       2.786  -2.747   6.790  0.00  0.00    +0.029 A 
BRANCH   8  11
ATOM     11  C   UNL     1      -0.549  -2.409   8.528  0.00  0.00    +0.013 C 
ATOM     12  C   UNL     1      -1.048  -3.850   8.402  0.00  0.00    +0.012 C 
ATOM     13  C   UNL     1      -0.067  -2.161   9.959  0.00  0.00    +0.012 C 
ENDBRANCH   8  11
ENDBRANCH   2   5
ENDBRANCH   1   2
BRANCH   1  14
ATOM     14  C   UNL     1       2.993  -2.028   2.239  0.00  0.00    +0.091 C 
BRANCH  14  15
ATOM     15  C   UNL     1       1.534  -2.461   2.390  0.00  0.00    -0.061 C 
BRANCH  15  21
ATOM     16  C   UNL     1      -0.019   1.526   0.010  0.00  0.00    +0.005 C 
ATOM     17  C   UNL     1       0.002  -0.004   0.002  0.00  0.00    -0.031 C 
ATOM     18  C   UNL     1      -1.434  -0.535   0.015  0.00  0.00    +0.003 C 
ATOM     19  C   UNL     1      -1.402  -2.064   0.086  0.00  0.00    -0.031 C 
ATOM     20  C   UNL     1      -0.613  -2.496   1.324  0.00  0.00    -0.076 C 
ATOM     21  N   UNL     1       0.758  -1.980   1.239  0.00  0.00    +0.381 N 
ATOM     22  C   UNL     1       0.740  -0.512   1.242  0.00  0.00    -0.076 C 
ATOM     23  C   UNL     1      -2.832  -2.602   0.177  0.00  0.00    +0.005 C 
ATOM     24  H   UNL     1       1.188  -2.307   0.386  0.00  0.00    -0.082 HD
ENDBRANCH  15  21
ENDBRANCH  14  15
ENDBRANCH   1  14
BRANCH   1  25
ATOM     25  C   UNL     1       4.315  -3.866   3.384  0.00  0.00    +0.118 C 
BRANCH  25  26
ATOM     26  C   UNL     1       5.664  -3.869   2.662  0.00  0.00    +0.113 C 
BRANCH  26  27
ATOM     27  C   UNL     1       6.229  -5.266   2.658  0.00  0.00    +0.217 C 
ATOM     28  O   UNL     1       5.614  -6.170   3.183  0.00  0.00    -0.276 OA
ATOM     29  N   UNL     1       7.418  -5.511   2.073  0.00  0.00    -0.299 N 
ATOM     30  C   UNL     1       8.184  -4.428   1.437  0.00  0.00    +0.123 C 
ATOM     31  C   UNL     1       8.564  -4.868   0.020  0.00  0.00    +0.100 C 
ATOM     32  N   UNL     1       9.255  -6.163   0.081  0.00  0.00    -0.313 NA
ATOM     33  C   UNL     1       8.373  -7.212   0.611  0.00  0.00    +0.100 C 
ATOM     34  C   UNL     1       7.988  -6.867   2.059  0.00  0.00    +0.123 C 
ATOM     35  H   UNL     1       9.621  -6.421  -0.823  0.00  0.00    +0.122 HD
ENDBRANCH  26  27
ENDBRANCH  25  26
ENDBRANCH   1  25
TORSDOF 9
