REMARK  Name = ZINC39514476
REMARK  8 active torsions:
REMARK  status: ('A' for Active; 'I' for Inactive)
REMARK    1  A    between atoms: C_1  and  C_2
REMARK    2  A    between atoms: C_9  and  C_19
REMARK    3  A    between atoms: C_12  and  C_13
REMARK    4  A    between atoms: C_19  and  O_21
REMARK    5  A    between atoms: O_21  and  C_22
REMARK    6  A    between atoms: C_22  and  C_23
REMARK    7  A    between atoms: C_25  and  O_26
REMARK    8  A    between atoms: C_35  and  C_37
REMARK                            x       y       z     vdW  Elec       q    Type
REMARK                         _______ _______ _______ _____ _____    ______ ____
ROOT
ATOM      1  C   UNL     1       0.858  -5.141   1.023  0.00  0.00    +0.343 C 
ATOM      2  O   UNL     1       0.405  -4.306   1.781  0.00  0.00    -0.245 OA
ENDROOT
BRANCH   1  11
ATOM      3  C   UNL     1      -0.880   0.195  -2.331  0.00  0.00    +0.051 C 
ATOM      4  C   UNL     1      -0.412  -1.165  -1.882  0.00  0.00    +0.040 A 
ATOM      5  C   UNL     1      -0.004  -2.129  -2.833  0.00  0.00    +0.196 A 
ATOM      6  O   UNL     1      -0.019  -1.886  -4.029  0.00  0.00    -0.287 OA
ATOM      7  C   UNL     1       0.443  -3.440  -2.322  0.00  0.00    +0.065 A 
ATOM      8  C   UNL     1       0.864  -4.450  -3.186  0.00  0.00    +0.015 A 
ATOM      9  C   UNL     1       1.276  -5.665  -2.676  0.00  0.00    +0.002 A 
ATOM     10  C   UNL     1       1.275  -5.890  -1.312  0.00  0.00    +0.019 A 
ATOM     11  C   UNL     1       0.857  -4.893  -0.430  0.00  0.00    +0.102 A 
ATOM     12  C   UNL     1       0.436  -3.653  -0.935  0.00  0.00    +0.153 A 
ATOM     13  O   UNL     1       0.030  -2.672  -0.108  0.00  0.00    -0.454 OA
ATOM     14  C   UNL     1      -0.374  -1.474  -0.558  0.00  0.00    +0.142 A 
BRANCH  14  15
ATOM     15  C   UNL     1      -0.799  -0.454   0.422  0.00  0.00    +0.018 A 
ATOM     16  C   UNL     1      -1.712  -0.782   1.426  0.00  0.00    +0.011 A 
ATOM     17  C   UNL     1      -2.104   0.176   2.338  0.00  0.00    +0.001 A 
ATOM     18  C   UNL     1      -1.595   1.460   2.258  0.00  0.00    +0.000 A 
ATOM     19  C   UNL     1      -0.691   1.793   1.266  0.00  0.00    +0.001 A 
ATOM     20  C   UNL     1      -0.285   0.843   0.351  0.00  0.00    +0.011 A 
ENDBRANCH  14  15
ENDBRANCH   1  11
BRANCH   1  21
ATOM     21  O   UNL     1       1.360  -6.292   1.510  0.00  0.00    -0.456 OA
BRANCH  21  22
ATOM     22  C   UNL     1       1.427  -6.421   2.932  0.00  0.00    +0.269 C 
BRANCH  22  23
ATOM     23  C   UNL     1       2.117  -7.712   3.288  0.00  0.00    +0.007 A 
ATOM     24  C   UNL     1       3.389  -7.983   2.824  0.00  0.00    +0.095 A 
ATOM     25  C   UNL     1       4.009  -9.178   3.162  0.00  0.00    +0.285 A 
ATOM     26  O   UNL     1       3.400 -10.084   3.934  0.00  0.00    -0.425 OA
ATOM     27  C   UNL     1       2.157  -9.870   4.414  0.00  0.00    +0.141 A 
ATOM     28  C   UNL     1       1.480  -8.668   4.106  0.00  0.00    +0.024 A 
ATOM     29  C   UNL     1       0.187  -8.440   4.609  0.00  0.00    +0.014 A 
ATOM     30  C   UNL     1      -0.410  -9.373   5.395  0.00  0.00    +0.024 A 
ATOM     31  C   UNL     1       0.258 -10.569   5.711  0.00  0.00    +0.037 A 
ATOM     32  C   UNL     1       1.538 -10.816   5.211  0.00  0.00    +0.070 A 
ATOM     33  N   UNL     1      -0.350 -11.496   6.501  0.00  0.00    -0.286 N 
ATOM     34  C   UNL     1       0.361 -12.455   7.060  0.00  0.00    +0.214 C 
ATOM     35  O   UNL     1       1.576 -12.441   6.975  0.00  0.00    -0.276 OA
ATOM     36  C   UNL     1      -0.329 -13.569   7.805  0.00  0.00    +0.109 C 
ATOM     37  H   UNL     1      -1.308 -11.452   6.651  0.00  0.00    +0.155 HD
BRANCH  25  38
ATOM     38  O   UNL     1       5.250  -9.430   2.704  0.00  0.00    -0.480 OA
ATOM     39  H   UNL     1       5.608 -10.283   2.986  0.00  0.00    +0.295 HD
ENDBRANCH  25  38
ENDBRANCH  22  23
ENDBRANCH  21  22
ENDBRANCH   1  21
TORSDOF 6
