REMARK  Name = ZINC63374876
REMARK  13 active torsions:
REMARK  status: ('A' for Active; 'I' for Inactive)
REMARK    1  A    between atoms: C_1  and  C_2
REMARK    2  A    between atoms: C_2  and  C_3
REMARK    3  A    between atoms: C_3  and  C_4
REMARK    4  A    between atoms: C_4  and  N_5
REMARK    5  A    between atoms: C_11  and  C_27
REMARK    6  A    between atoms: C_23  and  C_26
REMARK    7  A    between atoms: C_30  and  O_36
REMARK    8  A    between atoms: C_31  and  O_33
REMARK    9  A    between atoms: O_33  and  C_34
REMARK   10  A    between atoms: C_34  and  C_35
REMARK   11  A    between atoms: O_36  and  C_37
REMARK   12  A    between atoms: C_37  and  C_38
REMARK   13  A    between atoms: C_38  and  C_39
REMARK                            x       y       z     vdW  Elec       q    Type
REMARK                         _______ _______ _______ _____ _____    ______ ____
ROOT
ATOM      1  N   UNL     1      -2.787  -2.571   0.015  0.00  0.00    -0.291 N 
ATOM      2  C   UNL     1      -3.422  -2.810   1.300  0.00  0.00    +0.203 C 
ATOM      3  C   UNL     1      -4.807  -3.345   1.154  0.00  0.00    +0.234 C 
ATOM      4  O   UNL     1      -5.427  -3.582   2.169  0.00  0.00    -0.274 OA
ATOM      5  N   UNL     1      -5.416  -3.581  -0.014  0.00  0.00    -0.283 N 
ATOM      6  C   UNL     1      -6.778  -4.149   0.016  0.00  0.00    +0.121 C 
ATOM      7  C   UNL     1      -7.742  -3.197  -0.713  0.00  0.00    +0.065 C 
ATOM      8  C   UNL     1      -7.071  -2.808  -2.007  0.00  0.00    -0.027 C 
ATOM      9  C   UNL     1      -7.493  -2.845  -3.264  0.00  0.00    -0.000 A 
ATOM     10  C   UNL     1      -8.806  -3.165  -3.849  0.00  0.00    +0.010 A 
ATOM     11  C   UNL     1      -8.884  -3.126  -5.205  0.00  0.00    +0.001 A 
ATOM     12  C   UNL     1      -7.801  -2.803  -6.029  0.00  0.00    +0.002 A 
ATOM     13  C   UNL     1      -6.561  -2.487  -5.577  0.00  0.00    +0.026 A 
ATOM     14  C   UNL     1      -6.357  -2.485  -4.167  0.00  0.00    +0.043 A 
ATOM     15  N   UNL     1      -5.296  -2.200  -3.471  0.00  0.00    -0.375 N 
ATOM     16  C   UNL     1      -5.641  -2.280  -2.051  0.00  0.00    +0.139 C 
ATOM     17  C   UNL     1      -4.780  -3.302  -1.303  0.00  0.00    +0.135 C 
ATOM     18  C   UNL     1      -3.389  -2.782  -1.154  0.00  0.00    +0.242 C 
ATOM     19  O   UNL     1      -2.764  -2.540  -2.165  0.00  0.00    -0.273 OA
ATOM     20  C   UNL     1      -4.728  -4.596  -2.118  0.00  0.00    +0.044 C 
ATOM     21  H   UNL     1      -4.425  -1.973  -3.831  0.00  0.00    +0.160 HD
ENDROOT
BRANCH   7  22
ATOM     22  C   UNL     1      -9.045  -3.900  -0.997  0.00  0.00    -0.035 A 
ATOM     23  C   UNL     1      -9.057  -5.043  -1.774  0.00  0.00    +0.008 A 
ATOM     24  C   UNL     1     -10.249  -5.691  -2.036  0.00  0.00    +0.050 A 
ATOM     25  C   UNL     1     -11.436  -5.195  -1.520  0.00  0.00    +0.162 A 
ATOM     26  C   UNL     1     -11.423  -4.045  -0.737  0.00  0.00    +0.162 A 
ATOM     27  C   UNL     1     -10.224  -3.403  -0.474  0.00  0.00    +0.053 A 
BRANCH  26  28
ATOM     28  O   UNL     1     -12.585  -3.554  -0.228  0.00  0.00    -0.489 OA
BRANCH  28  29
ATOM     29  C   UNL     1     -12.496  -2.370   0.566  0.00  0.00    +0.226 C 
ATOM     30  C   UNL     1     -13.893  -1.973   1.048  0.00  0.00    +0.048 C 
ENDBRANCH  28  29
ENDBRANCH  26  28
BRANCH  25  31
ATOM     31  O   UNL     1     -12.610  -5.832  -1.778  0.00  0.00    -0.488 OA
BRANCH  31  32
ATOM     32  C   UNL     1     -12.547  -7.006  -2.589  0.00  0.00    +0.229 C 
BRANCH  32  33
ATOM     33  C   UNL     1     -13.954  -7.579  -2.768  0.00  0.00    +0.038 C 
ATOM     34  C   UNL     1     -13.886  -8.836  -3.636  0.00  0.00    +0.007 C 
ENDBRANCH  32  33
ENDBRANCH  31  32
ENDBRANCH  25  31
ENDBRANCH   7  22
BRANCH   1  35
ATOM     35  C   UNL     1      -1.413  -2.063   0.004  0.00  0.00    +0.108 C 
BRANCH  35  36
ATOM     36  C   UNL     1      -1.433  -0.534   0.013  0.00  0.00    +0.019 C 
BRANCH  36  38
ATOM     37  C   UNL     1      -0.019   1.526   0.010  0.00  0.00    +0.004 C 
ATOM     38  C   UNL     1       0.002  -0.004   0.002  0.00  0.00    -0.002 C 
ENDBRANCH  36  38
ENDBRANCH  35  36
ENDBRANCH   1  35
TORSDOF 9
