REMARK  Name = ZINC09660791
REMARK  6 active torsions:
REMARK  status: ('A' for Active; 'I' for Inactive)
REMARK    1  A    between atoms: C_1  and  C_2
REMARK    2  A    between atoms: C_5  and  C_8
REMARK    3  A    between atoms: C_8  and  N_9
REMARK    4  A    between atoms: C_17  and  C_18
REMARK    5  A    between atoms: C_17  and  N_56
REMARK    6  A    between atoms: N_20  and  C_21
REMARK                            x       y       z     vdW  Elec       q    Type
REMARK                         _______ _______ _______ _____ _____    ______ ____
ROOT
ATOM      1  N   UNL     1       6.689  -0.733   2.566  0.00  0.00    -0.220 N 
ATOM      2  C   UNL     1       5.870  -1.116   1.563  0.00  0.00    +0.247 C 
ATOM      3  O   UNL     1       5.979  -2.098   0.862  0.00  0.00    -0.273 OA
ATOM      4  C   UNL     1       4.790  -0.061   1.501  0.00  0.00    +0.109 C 
ATOM      5  C   UNL     1       4.801   0.635   0.144  0.00  0.00    +0.017 C 
ATOM      6  C   UNL     1       3.680   1.678   0.101  0.00  0.00    -0.076 C 
ATOM      7  C   UNL     1       2.347   0.405   1.676  0.00  0.00    -0.076 C 
ATOM      8  C   UNL     1       3.423  -0.680   1.772  0.00  0.00    +0.017 C 
ATOM      9  N   UNL     1       5.149   0.882   2.567  0.00  0.00    -0.285 N 
ATOM     10  C   UNL     1       6.274   0.406   3.134  0.00  0.00    +0.310 C 
ATOM     11  O   UNL     1       6.847   0.948   4.059  0.00  0.00    -0.252 OA
ATOM     12  H   UNL     1       4.671   1.689   2.814  0.00  0.00    +0.151 HD
ATOM     13  N   UNL     1       2.386   0.998   0.322  0.00  0.00    +0.386 N 
ATOM     14  H   UNL     1       2.280   0.249  -0.372  0.00  0.00    -0.081 HD
ENDROOT
BRANCH   1  15
ATOM     15  C   UNL     1       7.884  -1.473   2.981  0.00  0.00    +0.153 C 
BRANCH  15  20
ATOM     16  C   UNL     1      12.452   0.413  -0.014  0.00  0.00    +0.044 C 
ATOM     17  C   UNL     1      11.261  -0.079   0.767  0.00  0.00    -0.050 A 
ATOM     18  C   UNL     1      10.929   0.517   1.970  0.00  0.00    +0.003 A 
ATOM     19  C   UNL     1       9.836   0.066   2.686  0.00  0.00    +0.005 A 
ATOM     20  C   UNL     1       9.075  -0.981   2.200  0.00  0.00    -0.030 A 
ATOM     21  C   UNL     1       9.410  -1.580   1.000  0.00  0.00    +0.005 A 
ATOM     22  C   UNL     1      10.501  -1.126   0.282  0.00  0.00    +0.003 A 
ENDBRANCH  15  20
ENDBRANCH   1  15
BRANCH  13  23
ATOM     23  C   UNL     1       1.277   1.961   0.161  0.00  0.00    +0.019 C 
BRANCH  23  24
ATOM     24  C   UNL     1      -0.027   1.205   0.175  0.00  0.00    +0.201 C 
ATOM     25  O   UNL     1      -0.028   0.001   0.322  0.00  0.00    -0.278 OA
ATOM     26  N   UNL     1      -1.191   1.867   0.018  0.00  0.00    -0.287 N 
ATOM     27  H   UNL     1      -1.196   2.836  -0.023  0.00  0.00    +0.155 HD
BRANCH  26  28
ATOM     28  C   UNL     1      -2.392   1.155  -0.086  0.00  0.00    +0.033 A 
ATOM     29  C   UNL     1      -2.412  -0.089  -0.704  0.00  0.00    +0.026 A 
ATOM     30  C   UNL     1      -3.597  -0.792  -0.800  0.00  0.00    +0.040 A 
ATOM     31  C   UNL     1      -4.766  -0.253  -0.291  0.00  0.00    +0.124 A 
ATOM     32  C   UNL     1      -4.750   0.990   0.320  0.00  0.00    +0.040 A 
ATOM     33  C   UNL     1      -3.566   1.694   0.423  0.00  0.00    +0.026 A 
ATOM     34  F   UNL     1      -5.925  -0.940  -0.391  0.00  0.00    -0.205 F 
ENDBRANCH  26  28
ENDBRANCH  23  24
ENDBRANCH  13  23
TORSDOF 5
