REMARK  Name = ZINC22681457
REMARK  11 active torsions:
REMARK  status: ('A' for Active; 'I' for Inactive)
REMARK    1  A    between atoms: C_1  and  C_2
REMARK    2  A    between atoms: N_5  and  C_8
REMARK    3  A    between atoms: C_8  and  C_10
REMARK    4  A    between atoms: C_8  and  C_31
REMARK    5  A    between atoms: C_10  and  N_11
REMARK    6  A    between atoms: C_12  and  C_14
REMARK    7  A    between atoms: C_17  and  N_20
REMARK    8  A    between atoms: C_21  and  C_23
REMARK    9  A    between atoms: C_23  and  S_24
REMARK   10  A    between atoms: S_24  and  C_25
REMARK   11  A    between atoms: N_29  and  C_30
REMARK                            x       y       z     vdW  Elec       q    Type
REMARK                         _______ _______ _______ _____ _____    ______ ____
ROOT
ATOM      1  N   UNL     1      -2.177   0.906  -2.636  0.00  0.00    -0.313 N 
ATOM      2  C   UNL     1      -3.121   1.231  -3.542  0.00  0.00    +0.244 C 
ATOM      3  O   UNL     1      -2.815   1.849  -4.543  0.00  0.00    -0.270 OA
ATOM      4  H   UNL     1      -2.454   0.347  -1.730  0.00  0.00    +0.149 HD
ENDROOT
BRANCH   2   5
ATOM      5  C   UNL     1      -4.525   0.836  -3.318  0.00  0.00    +0.037 A 
ATOM      6  C   UNL     1      -4.878   0.121  -2.171  0.00  0.00    +0.015 A 
ATOM      7  C   UNL     1      -6.190  -0.241  -1.962  0.00  0.00    +0.024 A 
ATOM      8  C   UNL     1      -7.162   0.095  -2.899  0.00  0.00    +0.033 A 
ATOM      9  C   UNL     1      -6.814   0.802  -4.045  0.00  0.00    +0.024 A 
ATOM     10  C   UNL     1      -5.505   1.172  -4.257  0.00  0.00    +0.015 A 
BRANCH   8  11
ATOM     11  N   UNL     1      -8.489  -0.278  -2.688  0.00  0.00    -0.285 N 
ATOM     12  C   UNL     1      -9.489   0.525  -3.102  0.00  0.00    +0.227 C 
ATOM     13  O   UNL     1      -9.236   1.612  -3.577  0.00  0.00    -0.275 OA
ATOM     14  H   UNL     1      -8.720  -1.228  -2.183  0.00  0.00    +0.155 HD
BRANCH  12  15
ATOM     15  C   UNL     1     -10.921   0.073  -2.975  0.00  0.00    +0.173 C 
BRANCH  15  16
ATOM     16  S   UNL     1     -12.020   1.362  -3.613  0.00  0.00    -0.078 S 
BRANCH  16  17
ATOM     17  C   UNL     1     -13.582   0.590  -3.350  0.00  0.00    +0.169 A 
ATOM     18  N   UNL     1     -13.772  -0.601  -2.832  0.00  0.00    -0.230 NA
ATOM     19  C   UNL     1     -15.090  -0.857  -2.781  0.00  0.00    +0.131 A 
ATOM     20  C   UNL     1     -15.747   0.199  -3.290  0.00  0.00    +0.107 A 
ATOM     21  N   UNL     1     -14.796   1.125  -3.655  0.00  0.00    -0.329 N 
ATOM     22  C   UNL     1     -15.043   2.437  -4.258  0.00  0.00    +0.151 C 
ENDBRANCH  16  17
ENDBRANCH  15  16
ENDBRANCH  12  15
ENDBRANCH   8  11
ENDBRANCH   2   5
BRANCH   1  23
ATOM     23  C   UNL     1      -0.783   1.298  -2.858  0.00  0.00    +0.094 C 
BRANCH  23  24
ATOM     24  C   UNL     1       0.076   0.810  -1.689  0.00  0.00    -0.013 C 
BRANCH  24  29
ATOM     25  C   UNL     1      -1.272   3.262   3.295  0.00  0.00    +0.007 C 
ATOM     26  C   UNL     1      -0.533   2.845   2.022  0.00  0.00    -0.018 C 
ATOM     27  C   UNL     1      -0.339   1.326   2.018  0.00  0.00    -0.015 C 
ATOM     28  C   UNL     1       0.346   0.908   0.715  0.00  0.00    -0.078 C 
ATOM     29  N   UNL     1      -0.481   1.317  -0.427  0.00  0.00    +0.386 N 
ATOM     30  C   UNL     1      -0.643   2.776  -0.471  0.00  0.00    -0.078 C 
ATOM     31  C   UNL     1      -1.357   3.249   0.797  0.00  0.00    -0.015 C 
ATOM     32  H   UNL     1      -1.479   0.873  -0.294  0.00  0.00    -0.081 HD
ENDBRANCH  24  29
BRANCH  24  33
ATOM     33  C   UNL     1       1.485   1.318  -1.855  0.00  0.00    -0.022 A 
ATOM     34  C   UNL     1       2.609   0.629  -2.170  0.00  0.00    +0.009 A 
ATOM     35  C   UNL     1       3.807   1.310  -2.270  0.00  0.00    +0.008 A 
ATOM     36  C   UNL     1       3.823   2.648  -2.052  0.00  0.00    +0.045 A 
ATOM     37  S   UNL     1       2.106   2.984  -1.697  0.00  0.00    -0.103 S 
ENDBRANCH  24  33
ENDBRANCH  23  24
ENDBRANCH   1  23
TORSDOF 9
