REMARK  Name = ZINC63530683
REMARK  10 active torsions:
REMARK  status: ('A' for Active; 'I' for Inactive)
REMARK    1  A    between atoms: C_1  and  C_2
REMARK    2  A    between atoms: C_2  and  C_3
REMARK    3  A    between atoms: N_9  and  C_10
REMARK    4  A    between atoms: C_10  and  C_11
REMARK    5  A    between atoms: C_11  and  C_12
REMARK    6  A    between atoms: C_12  and  N_13
REMARK    7  A    between atoms: C_14  and  C_16
REMARK    8  A    between atoms: C_18  and  S_27
REMARK    9  A    between atoms: C_22  and  C_26
REMARK   10  A    between atoms: S_27  and  C_28
REMARK                            x       y       z     vdW  Elec       q    Type
REMARK                         _______ _______ _______ _____ _____    ______ ____
ROOT
ATOM      1  C   UNL     1      -3.131   5.731   5.542  0.00  0.00    +0.204 C 
ATOM      2  C   UNL     1      -4.625   5.848   5.747  0.00  0.00    +0.030 C 
ATOM      3  C   UNL     1      -4.845   7.154   6.172  0.00  0.00    +0.010 A 
ATOM      4  C   UNL     1      -6.019   7.858   6.520  0.00  0.00    +0.011 A 
ATOM      5  C   UNL     1      -5.936   9.157   6.907  0.00  0.00    +0.004 A 
ATOM      6  C   UNL     1      -4.712   9.823   6.971  0.00  0.00    -0.048 A 
ATOM      7  C   UNL     1      -3.546   9.209   6.651  0.00  0.00    +0.029 A 
ATOM      8  C   UNL     1      -3.553   7.853   6.239  0.00  0.00    +0.044 A 
ATOM      9  N   UNL     1      -2.571   7.043   5.881  0.00  0.00    -0.369 N 
ATOM     10  C   UNL     1      -4.685  11.265   7.407  0.00  0.00    +0.044 C 
ATOM     11  H   UNL     1      -1.630   7.279   5.847  0.00  0.00    +0.161 HD
ENDROOT
BRANCH   1  13
ATOM     12  N   UNL     1      -2.927   4.119   3.677  0.00  0.00    -0.313 N 
ATOM     13  C   UNL     1      -2.829   5.394   4.105  0.00  0.00    +0.240 C 
ATOM     14  O   UNL     1      -2.499   6.269   3.333  0.00  0.00    -0.273 OA
ATOM     15  H   UNL     1      -3.191   3.419   4.295  0.00  0.00    +0.149 HD
BRANCH  12  16
ATOM     16  C   UNL     1      -2.634   3.791   2.280  0.00  0.00    +0.102 C 
BRANCH  16  17
ATOM     17  C   UNL     1      -2.819   2.288   2.059  0.00  0.00    +0.000 C 
BRANCH  17  18
ATOM     18  C   UNL     1      -2.513   1.946   0.600  0.00  0.00    -0.077 C 
BRANCH  18  24
ATOM     19  C   UNL     1      -2.276   0.155  -0.976  0.00  0.00    -0.069 C 
ATOM     20  C   UNL     1      -2.382  -1.358  -1.175  0.00  0.00    -0.015 C 
ATOM     21  C   UNL     1      -3.833  -1.796  -0.954  0.00  0.00    -0.003 C 
ATOM     22  C   UNL     1      -4.279  -1.362   0.445  0.00  0.00    -0.019 C 
ATOM     23  C   UNL     1      -4.102   0.152   0.584  0.00  0.00    -0.078 C 
ATOM     24  N   UNL     1      -2.690   0.503   0.388  0.00  0.00    +0.382 N 
ATOM     25  H   UNL     1      -2.123  -0.005   1.050  0.00  0.00    -0.081 HD
BRANCH  19  27
ATOM     26  C   UNL     1      -0.410   0.280  -2.634  0.00  0.00    +0.002 C 
ATOM     27  C   UNL     1      -0.827   0.597  -1.197  0.00  0.00    -0.019 C 
ENDBRANCH  19  27
ENDBRANCH  18  24
ENDBRANCH  17  18
ENDBRANCH  16  17
ENDBRANCH  12  16
ENDBRANCH   1  13
BRANCH   2  28
ATOM     28  S   UNL     1      -5.765   4.664   5.514  0.00  0.00    -0.091 S 
BRANCH  28  29
ATOM     29  C   UNL     1      -5.428   3.492   6.786  0.00  0.00    +0.013 A 
ATOM     30  C   UNL     1      -4.482   3.777   7.763  0.00  0.00    +0.016 A 
ATOM     31  C   UNL     1      -4.221   2.856   8.758  0.00  0.00    +0.021 A 
ATOM     32  C   UNL     1      -4.900   1.651   8.783  0.00  0.00    +0.041 A 
ATOM     33  C   UNL     1      -5.843   1.364   7.811  0.00  0.00    +0.021 A 
ATOM     34  C   UNL     1      -6.113   2.283   6.817  0.00  0.00    +0.016 A 
ATOM     35 CL   UNL     1      -4.568   0.495  10.036  0.00  0.00    -0.084 Cl
ENDBRANCH  28  29
ENDBRANCH   2  28
TORSDOF 8
