REMARK  Name = ZINC09045929
REMARK  11 active torsions:
REMARK  status: ('A' for Active; 'I' for Inactive)
REMARK    1  A    between atoms: C_1  and  C_2
REMARK    2  A    between atoms: C_2  and  C_4
REMARK    3  A    between atoms: C_2  and  N_12
REMARK    4  A    between atoms: C_4  and  C_5
REMARK    5  A    between atoms: C_5  and  C_6
REMARK    6  A    between atoms: C_13  and  C_15
REMARK    7  A    between atoms: C_15  and  S_16
REMARK    8  A    between atoms: S_16  and  C_17
REMARK    9  A    between atoms: C_28  and  C_31
REMARK   10  A    between atoms: C_31  and  C_32
REMARK   11  A    between atoms: C_31  and  C_33
REMARK                            x       y       z     vdW  Elec       q    Type
REMARK                         _______ _______ _______ _____ _____    ______ ____
ROOT
ATOM      1  C   UNL     1       0.574  -1.460  -6.447  0.00  0.00    +0.191 A 
ATOM      2  N   UNL     1       1.859  -1.737  -6.260  0.00  0.00    -0.207 NA
ATOM      3  C   UNL     1       2.559  -2.446  -7.129  0.00  0.00    +0.129 A 
ATOM      4  C   UNL     1       1.923  -2.929  -8.307  0.00  0.00    +0.051 A 
ATOM      5  C   UNL     1       2.490  -3.722  -9.396  0.00  0.00    -0.020 A 
ATOM      6  C   UNL     1       1.662  -4.056 -10.409  0.00  0.00    +0.021 A 
ATOM      7  S   UNL     1       0.098  -3.345  -9.981  0.00  0.00    -0.071 S 
ATOM      8  C   UNL     1       0.559  -2.598  -8.439  0.00  0.00    +0.115 A 
ATOM      9  N   UNL     1      -0.072  -1.889  -7.522  0.00  0.00    -0.214 NA
ATOM     10  C   UNL     1       2.024  -4.855 -11.623  0.00  0.00    +0.203 C 
ATOM     11  O   UNL     1       3.457  -4.936 -11.687  0.00  0.00    -0.371 OA
ATOM     12  C   UNL     1       4.062  -5.318 -10.449  0.00  0.00    +0.126 C 
ATOM     13  C   UNL     1       3.946  -4.178  -9.432  0.00  0.00    +0.068 C 
ATOM     14  N   UNL     1       3.896  -2.713  -6.898  0.00  0.00    -0.343 N 
ATOM     15  H   UNL     1       4.288  -2.513  -6.033  0.00  0.00    +0.144 HD
ATOM     16  H   UNL     1       4.442  -3.101  -7.599  0.00  0.00    +0.144 HD
ENDROOT
BRANCH  12  17
ATOM     17  C   UNL     1       5.540  -5.636 -10.684  0.00  0.00    +0.012 C 
ATOM     18  C   UNL     1       5.662  -6.784 -11.688  0.00  0.00    +0.010 C 
ATOM     19  C   UNL     1       6.247  -4.397 -11.239  0.00  0.00    +0.010 C 
ENDBRANCH  12  17
BRANCH   1  20
ATOM     20  S   UNL     1      -0.290  -0.509  -5.240  0.00  0.00    -0.077 S 
BRANCH  20  21
ATOM     21  C   UNL     1       0.966  -0.153  -3.981  0.00  0.00    +0.173 C 
BRANCH  21  23
ATOM     22  N   UNL     1       1.101   1.051  -1.824  0.00  0.00    -0.312 N 
ATOM     23  C   UNL     1       0.351   0.666  -2.875  0.00  0.00    +0.224 C 
ATOM     24  O   UNL     1      -0.820   0.979  -2.932  0.00  0.00    -0.275 OA
ATOM     25  H   UNL     1       2.037   0.801  -1.779  0.00  0.00    +0.149 HD
BRANCH  22  27
ATOM     26  C   UNL     1       0.540   3.328  -1.131  0.00  0.00    +0.028 C 
ATOM     27  C   UNL     1       0.503   1.847  -0.750  0.00  0.00    +0.070 C 
BRANCH  27  28
ATOM     28  C   UNL     1       1.292   1.633   0.543  0.00  0.00    +0.026 C 
BRANCH  28  29
ATOM     29  C   UNL     1       1.152   0.177   0.992  0.00  0.00    +0.037 C 
BRANCH  29  30
ATOM     30  C   UNL     1       1.929  -0.033   2.266  0.00  0.00    -0.047 A 
ATOM     31  C   UNL     1       3.257  -0.414   2.210  0.00  0.00    +0.003 A 
ATOM     32  C   UNL     1       3.970  -0.607   3.379  0.00  0.00    +0.000 A 
ATOM     33  C   UNL     1       3.356  -0.418   4.603  0.00  0.00    +0.000 A 
ATOM     34  C   UNL     1       2.029  -0.036   4.658  0.00  0.00    +0.000 A 
ATOM     35  C   UNL     1       1.317   0.161   3.490  0.00  0.00    +0.003 A 
ENDBRANCH  29  30
ENDBRANCH  28  29
ENDBRANCH  27  28
ENDBRANCH  22  27
ENDBRANCH  21  23
ENDBRANCH  20  21
ENDBRANCH   1  20
TORSDOF 8
