REMARK  Name = ZINC61666212
REMARK  7 active torsions:
REMARK  status: ('A' for Active; 'I' for Inactive)
REMARK    1  A    between atoms: C_1  and  C_2
REMARK    2  A    between atoms: C_2  and  C_3
REMARK    3  A    between atoms: C_2  and  O_4
REMARK    4  A    between atoms: O_4  and  C_5
REMARK    5  A    between atoms: C_9  and  C_11
REMARK    6  A    between atoms: C_11  and  C_13
REMARK    7  A    between atoms: C_11  and  N_20
REMARK                            x       y       z     vdW  Elec       q    Type
REMARK                         _______ _______ _______ _____ _____    ______ ____
ROOT
ATOM      1  C   UNL     1       0.543  -1.450   5.940  0.00  0.00    -0.012 C 
ENDROOT
BRANCH   1   2
ATOM      2  C   UNL     1       0.770  -0.213   6.770  0.00  0.00    -0.035 A 
ATOM      3  C   UNL     1      -0.079   0.096   7.817  0.00  0.00    +0.026 A 
ATOM      4  C   UNL     1       0.155   1.216   8.544  0.00  0.00    +0.056 A 
ATOM      5  S   UNL     1       1.611   1.876   7.748  0.00  0.00    -0.074 S 
ATOM      6  C   UNL     1       1.814   0.611   6.505  0.00  0.00    +0.058 A 
ATOM      7 BR   UNL     1       3.139   0.461   5.164  0.00  0.00    -0.042 Br
ATOM      8 BR   UNL     1      -0.811   1.903  10.017  0.00  0.00    -0.043 Br
ENDBRANCH   1   2
BRANCH   1  13
ATOM      9  C   UNL     1      -0.031  -0.600   2.303  0.00  0.00    +0.121 A 
ATOM     10  C   UNL     1      -1.400  -0.376   2.286  0.00  0.00    +0.045 A 
ATOM     11  C   UNL     1      -2.133  -0.502   3.450  0.00  0.00    +0.004 A 
ATOM     12  C   UNL     1      -1.504  -0.850   4.631  0.00  0.00    +0.002 A 
ATOM     13  C   UNL     1      -0.140  -1.072   4.651  0.00  0.00    -0.054 A 
ATOM     14  C   UNL     1       0.597  -0.954   3.489  0.00  0.00    +0.048 A 
BRANCH   9  15
ATOM     15  O   UNL     1       0.693  -0.477   1.160  0.00  0.00    -0.489 OA
BRANCH  15  17
ATOM     16  C   UNL     1      -0.292   1.273  -0.184  0.00  0.00    +0.051 C 
ATOM     17  C   UNL     1      -0.034  -0.229  -0.045  0.00  0.00    +0.167 C 
ATOM     18  C   UNL     1       0.781  -0.720  -1.243  0.00  0.00    +0.051 C 
ENDBRANCH  15  17
ENDBRANCH   9  15
ENDBRANCH   1  13
BRANCH   1  19
ATOM     19  N   UNL     1      -0.305  -2.391   6.685  0.00  0.00    +0.385 N 
ATOM     20  H   UNL     1       0.152  -2.644   7.548  0.00  0.00    -0.089 HD
ATOM     21  H   UNL     1      -1.192  -1.955   6.890  0.00  0.00    -0.089 HD
ATOM     22  H   UNL     1      -0.457  -3.219   6.130  0.00  0.00    -0.089 HD
ENDBRANCH   1  19
TORSDOF 5
