REMARK  Name = ZINC65074799
REMARK  5 active torsions:
REMARK  status: ('A' for Active; 'I' for Inactive)
REMARK    1  A    between atoms: C_1  and  C_2
REMARK    2  A    between atoms: C_6  and  C_8
REMARK    3  A    between atoms: C_8  and  N_9
REMARK    4  A    between atoms: N_18  and  S_21
REMARK    5  A    between atoms: S_21  and  C_24
REMARK                            x       y       z     vdW  Elec       q    Type
REMARK                         _______ _______ _______ _____ _____    ______ ____
ROOT
ATOM      1  N   UNL     1       1.440  -3.073   2.903  0.00  0.00    -0.329 N 
ATOM      2  C   UNL     1       1.705  -3.750   4.064  0.00  0.00    +0.089 C 
ATOM      3  N   UNL     1       0.717  -4.171   4.758  0.00  0.00    -0.374 N 
ATOM      4  C   UNL     1       0.859  -4.894   6.018  0.00  0.00    +0.129 C 
ATOM      5  C   UNL     1       2.285  -5.429   6.158  0.00  0.00    +0.102 C 
ATOM      6  N   UNL     1       3.225  -4.332   5.873  0.00  0.00    -0.303 NA
ATOM      7  C   UNL     1       3.142  -3.962   4.451  0.00  0.00    +0.075 C 
ATOM      8  C   UNL     1       3.931  -2.670   4.221  0.00  0.00    +0.047 C 
ATOM      9  C   UNL     1       5.385  -2.881   4.655  0.00  0.00    +0.111 C 
ATOM     10  N   UNL     1       5.924  -4.051   3.948  0.00  0.00    -0.176 NA
ATOM     11  C   UNL     1       5.192  -5.322   4.025  0.00  0.00    +0.111 C 
ATOM     12  C   UNL     1       3.741  -5.083   3.598  0.00  0.00    +0.047 C 
ATOM     13  H   UNL     1       2.171  -2.745   2.355  0.00  0.00    +0.147 HD
ATOM     14  H   UNL     1       3.045  -3.537   6.468  0.00  0.00    +0.123 HD
ATOM     15  H   UNL     1      -0.179  -4.000   4.428  0.00  0.00    +0.161 HD
ENDROOT
BRANCH  10  16
ATOM     16  S   UNL     1       7.330  -3.938   3.081  0.00  0.00    +0.061 S 
ATOM     17  O   UNL     1       7.293  -4.974   2.109  0.00  0.00    -0.153 OA
ATOM     18  O   UNL     1       7.482  -2.569   2.730  0.00  0.00    -0.153 OA
BRANCH  16  19
ATOM     19  C   UNL     1       8.653  -4.325   4.179  0.00  0.00    +0.106 A 
ATOM     20  C   UNL     1       9.260  -3.324   4.914  0.00  0.00    +0.029 A 
ATOM     21  C   UNL     1      10.297  -3.634   5.769  0.00  0.00    +0.006 A 
ATOM     22  C   UNL     1      10.735  -4.946   5.900  0.00  0.00    -0.044 A 
ATOM     23  C   UNL     1      10.127  -5.944   5.173  0.00  0.00    -0.042 A 
ATOM     24  C   UNL     1       9.082  -5.629   4.313  0.00  0.00    +0.032 A 
ATOM     25  C   UNL     1      10.538  -7.389   5.276  0.00  0.00    +0.035 C 
ATOM     26  C   UNL     1      11.926  -7.509   5.903  0.00  0.00    +0.005 C 
ATOM     27  C   UNL     1      11.941  -6.697   7.203  0.00  0.00    +0.005 C 
ATOM     28  C   UNL     1      11.876  -5.213   6.846  0.00  0.00    +0.035 C 
ENDBRANCH  16  19
ENDBRANCH  10  16
BRANCH   1  29
ATOM     29  C   UNL     1       0.054  -2.845   2.489  0.00  0.00    +0.138 C 
BRANCH  29  35
ATOM     30  C   UNL     1      -0.018   1.503   0.010  0.00  0.00    +0.044 C 
ATOM     31  C   UNL     1       0.002  -0.004   0.002  0.00  0.00    -0.050 A 
ATOM     32  C   UNL     1       0.006  -0.689  -1.199  0.00  0.00    +0.003 A 
ATOM     33  C   UNL     1       0.025  -2.071  -1.207  0.00  0.00    +0.001 A 
ATOM     34  C   UNL     1       0.040  -2.768  -0.013  0.00  0.00    +0.005 A 
ATOM     35  C   UNL     1       0.037  -2.084   1.188  0.00  0.00    -0.030 A 
ATOM     36  C   UNL     1       0.023  -0.702   1.195  0.00  0.00    +0.008 A 
ENDBRANCH  29  35
ENDBRANCH   1  29
TORSDOF 4
