REMARK  Name = ZINC39609762
REMARK  9 active torsions:
REMARK  status: ('A' for Active; 'I' for Inactive)
REMARK    1  A    between atoms: C_1  and  C_2
REMARK    2  A    between atoms: C_4  and  C_11
REMARK    3  A    between atoms: N_5  and  C_7
REMARK    4  A    between atoms: C_7  and  C_8
REMARK    5  A    between atoms: C_7  and  C_9
REMARK    6  A    between atoms: C_7  and  C_10
REMARK    7  A    between atoms: C_15  and  C_24
REMARK    8  A    between atoms: N_26  and  C_27
REMARK    9  A    between atoms: C_27  and  C_28
REMARK                            x       y       z     vdW  Elec       q    Type
REMARK                         _______ _______ _______ _____ _____    ______ ____
ROOT
ATOM      1  C   UNL     1      -0.591  -4.010  -1.479  0.00  0.00    +0.265 C 
ATOM      2  O   UNL     1      -0.831  -3.821  -2.657  0.00  0.00    -0.268 OA
ATOM      3  N   UNL     1      -0.692  -5.251  -0.962  0.00  0.00    -0.295 N 
ATOM      4  C   UNL     1      -0.572  -5.655   0.459  0.00  0.00    +0.121 C 
ATOM      5  C   UNL     1      -1.654  -6.741   0.648  0.00  0.00    +0.100 C 
ATOM      6  C   UNL     1      -1.894  -7.306  -0.762  0.00  0.00    -0.004 C 
ATOM      7  C   UNL     1      -0.953  -6.518  -1.685  0.00  0.00    +0.115 C 
ATOM      8  C   UNL     1      -3.344  -7.081  -1.182  0.00  0.00    -0.010 C 
ATOM      9  C   UNL     1      -3.572  -7.701  -2.563  0.00  0.00    -0.082 C 
ATOM     10  N   UNL     1      -3.273  -9.138  -2.512  0.00  0.00    +0.379 N 
ATOM     11  C   UNL     1      -1.854  -9.343  -2.199  0.00  0.00    -0.082 C 
ATOM     12  C   UNL     1      -1.553  -8.792  -0.802  0.00  0.00    -0.010 C 
ATOM     13  H   UNL     1      -3.840  -9.573  -1.800  0.00  0.00    -0.086 HD
ATOM     14  H   UNL     1      -3.483  -9.555  -3.407  0.00  0.00    -0.086 HD
ENDROOT
BRANCH   1  18
ATOM     15  C   UNL     1       1.018  -1.178   2.408  0.00  0.00    +0.067 C 
ATOM     16  C   UNL     1       0.509  -1.635   1.065  0.00  0.00    +0.061 A 
ATOM     17  C   UNL     1       0.260  -2.957   0.687  0.00  0.00    +0.057 A 
ATOM     18  C   UNL     1      -0.192  -2.885  -0.620  0.00  0.00    +0.124 A 
ATOM     19  N   UNL     1      -0.191  -1.560  -0.952  0.00  0.00    -0.254 N 
ATOM     20  N   UNL     1       0.216  -0.865   0.049  0.00  0.00    -0.175 NA
BRANCH  19  21
ATOM     21  C   UNL     1      -0.597  -1.014  -2.249  0.00  0.00    +0.056 C 
ATOM     22  C   UNL     1      -2.013  -1.488  -2.581  0.00  0.00    +0.036 C 
ATOM     23  C   UNL     1      -0.572   0.515  -2.190  0.00  0.00    +0.036 C 
ATOM     24  C   UNL     1       0.370  -1.498  -3.331  0.00  0.00    +0.036 C 
ENDBRANCH  19  21
ENDBRANCH   1  18
BRANCH   5  25
ATOM     25  C   UNL     1      -1.156  -7.823   1.571  0.00  0.00    +0.218 C 
ATOM     26  O   UNL     1       0.033  -8.044   1.659  0.00  0.00    -0.275 OA
ATOM     27  N   UNL     1      -2.031  -8.545   2.298  0.00  0.00    -0.311 N 
ATOM     28  H   UNL     1      -2.985  -8.422   2.170  0.00  0.00    +0.149 HD
BRANCH  27  29
ATOM     29  C   UNL     1      -1.543  -9.515   3.281  0.00  0.00    +0.139 C 
BRANCH  29  30
ATOM     30  C   UNL     1      -2.715 -10.183   3.953  0.00  0.00    -0.029 A 
ATOM     31  C   UNL     1      -3.259  -9.635   5.099  0.00  0.00    +0.007 A 
ATOM     32  C   UNL     1      -4.334 -10.247   5.716  0.00  0.00    +0.022 A 
ATOM     33  C   UNL     1      -4.866 -11.409   5.186  0.00  0.00    +0.059 A 
ATOM     34  C   UNL     1      -4.321 -11.958   4.038  0.00  0.00    +0.060 A 
ATOM     35  C   UNL     1      -3.249 -11.341   3.419  0.00  0.00    +0.026 A 
ATOM     36 CL   UNL     1      -4.987 -13.416   3.372  0.00  0.00    -0.082 Cl
ATOM     37 CL   UNL     1      -6.215 -12.178   5.961  0.00  0.00    -0.082 Cl
ENDBRANCH  29  30
ENDBRANCH  27  29
ENDBRANCH   5  25
TORSDOF 5
