REMARK  Name = ZINC32655143
REMARK  5 active torsions:
REMARK  status: ('A' for Active; 'I' for Inactive)
REMARK    1  A    between atoms: C_5  and  C_7
REMARK    2  A    between atoms: C_7  and  S_8
REMARK    3  A    between atoms: S_8  and  C_9
REMARK    4  A    between atoms: C_19  and  C_21
REMARK    5  A    between atoms: C_25  and  N_27
REMARK                            x       y       z     vdW  Elec       q    Type
REMARK                         _______ _______ _______ _____ _____    ______ ____
ROOT
ATOM      1  C   UNL     1       1.276  -4.553   1.507  0.00  0.00    +0.194 A 
ATOM      2  N   UNL     1       1.276  -5.078   0.290  0.00  0.00    -0.183 NA
ATOM      3  C   UNL     1       1.294  -6.396   0.115  0.00  0.00    +0.280 A 
ATOM      4  O   UNL     1       1.295  -6.925  -1.133  0.00  0.00    -0.265 OA
ATOM      5  C   UNL     1       1.312  -7.223   1.232  0.00  0.00    +0.071 A 
ATOM      6  C   UNL     1       1.308  -6.637   2.491  0.00  0.00    +0.135 A 
ATOM      7  N   UNL     1       1.297  -5.312   2.594  0.00  0.00    -0.206 NA
ATOM      8  N   UNL     1       1.318  -7.438   3.620  0.00  0.00    -0.302 N 
ATOM      9  C   UNL     1       0.952  -8.754   3.542  0.00  0.00    +0.017 C 
ATOM     10  C   UNL     1       0.945  -9.406   2.360  0.00  0.00    +0.024 C 
ATOM     11  C   UNL     1       1.340  -8.714   1.079  0.00  0.00    +0.093 C 
ATOM     12  C   UNL     1       0.573 -10.760   2.283  0.00  0.00    +0.162 C 
ATOM     13  O   UNL     1       0.556 -11.312   1.200  0.00  0.00    -0.292 OA
ATOM     14  C   UNL     1       0.196 -11.539   3.513  0.00  0.00    +0.080 C 
ATOM     15  C   UNL     1       0.918 -10.939   4.724  0.00  0.00    +0.014 C 
ATOM     16  C   UNL     1       0.552  -9.456   4.818  0.00  0.00    +0.051 C 
ATOM     17  H   UNL     1       1.586  -7.063   4.474  0.00  0.00    +0.153 HD
ENDROOT
BRANCH  11  18
ATOM     18  C   UNL     1       2.732  -9.144   0.695  0.00  0.00    -0.033 A 
ATOM     19  C   UNL     1       3.796  -8.874   1.535  0.00  0.00    +0.005 A 
ATOM     20  C   UNL     1       5.072  -9.269   1.183  0.00  0.00    +0.003 A 
ATOM     21  C   UNL     1       5.285  -9.935  -0.010  0.00  0.00    +0.033 A 
ATOM     22  C   UNL     1       4.222 -10.206  -0.850  0.00  0.00    +0.126 A 
ATOM     23  C   UNL     1       2.944  -9.815  -0.495  0.00  0.00    +0.037 A 
BRANCH  22  24
ATOM     24  N   UNL     1       4.450 -10.918  -2.127  0.00  0.00    +0.056 N 
ATOM     25  O   UNL     1       5.567 -11.263  -2.435  0.00  0.00    -0.126 OA
ATOM     26  O   UNL     1       3.519 -11.156  -2.861  0.00  0.00    -0.126 OA
ENDBRANCH  22  24
ENDBRANCH  11  18
BRANCH   1  27
ATOM     27  S   UNL     1       1.254  -2.800   1.685  0.00  0.00    -0.081 S 
BRANCH  27  28
ATOM     28  C   UNL     1       1.229  -2.186  -0.022  0.00  0.00    +0.114 C 
BRANCH  28  33
ATOM     29  C   UNL     1      -0.017   1.378   0.010  0.00  0.00    +0.000 A 
ATOM     30  C   UNL     1       1.171   2.086   0.002  0.00  0.00    +0.001 A 
ATOM     31  C   UNL     1       2.377   1.412  -0.013  0.00  0.00    +0.020 A 
ATOM     32  C   UNL     1       2.397   0.029  -0.021  0.00  0.00    +0.045 A 
ATOM     33  C   UNL     1       1.208  -0.679  -0.013  0.00  0.00    -0.019 A 
ATOM     34  C   UNL     1       0.002  -0.004   0.002  0.00  0.00    +0.006 A 
ATOM     35 CL   UNL     1       3.912  -0.818  -0.041  0.00  0.00    -0.083 Cl
ENDBRANCH  28  33
ENDBRANCH  27  28
ENDBRANCH   1  27
TORSDOF 5
