REMARK  Name = ZINC63426729
REMARK  7 active torsions:
REMARK  status: ('A' for Active; 'I' for Inactive)
REMARK    1  A    between atoms: C_7  and  C_10
REMARK    2  A    between atoms: C_10  and  C_11
REMARK    3  A    between atoms: C_11  and  N_12
REMARK    4  A    between atoms: N_12  and  C_13
REMARK    5  A    between atoms: N_20  and  C_23
REMARK    6  A    between atoms: C_23  and  C_24
REMARK    7  A    between atoms: C_24  and  C_25
REMARK                            x       y       z     vdW  Elec       q    Type
REMARK                         _______ _______ _______ _____ _____    ______ ____
ROOT
ATOM      1  C   UNL     1      -0.811  -5.380  -2.623  0.00  0.00    +0.085 C 
ATOM      2  C   UNL     1      -1.590  -6.522  -2.616  0.00  0.00    +0.113 C 
ATOM      3  C   UNL     1      -1.899  -7.251  -3.860  0.00  0.00    +0.258 C 
ATOM      4  O   UNL     1      -1.473  -6.864  -4.932  0.00  0.00    -0.270 OA
ATOM      5  N   UNL     1      -2.665  -8.357  -3.777  0.00  0.00    -0.235 N 
ATOM      6  C   UNL     1      -3.140  -8.794  -2.602  0.00  0.00    +0.315 C 
ATOM      7  O   UNL     1      -3.825  -9.798  -2.596  0.00  0.00    -0.252 OA
ATOM      8  N   UNL     1      -2.900  -8.183  -1.434  0.00  0.00    -0.221 N 
ATOM      9  C   UNL     1      -2.144  -7.068  -1.364  0.00  0.00    +0.260 C 
ATOM     10  O   UNL     1      -1.928  -6.525  -0.297  0.00  0.00    -0.269 OA
ATOM     11  H   UNL     1      -2.878  -8.848  -4.586  0.00  0.00    +0.159 HD
ENDROOT
BRANCH   1  12
ATOM     12  N   UNL     1      -0.406  -4.833  -1.460  0.00  0.00    -0.349 N 
ATOM     13  H   UNL     1      -0.593  -5.284  -0.621  0.00  0.00    +0.146 HD
BRANCH  12  14
ATOM     14  C   UNL     1       0.316  -3.559  -1.462  0.00  0.00    +0.105 C 
BRANCH  14  15
ATOM     15  C   UNL     1       0.657  -3.164  -0.023  0.00  0.00    +0.052 C 
BRANCH  15  22
ATOM     16  C   UNL     1      -0.722   1.181   0.504  0.00  0.00    +0.001 A 
ATOM     17  C   UNL     1       0.321   2.114   0.430  0.00  0.00    +0.002 A 
ATOM     18  C   UNL     1       1.607   1.757   0.224  0.00  0.00    +0.026 A 
ATOM     19  C   UNL     1       1.956   0.387   0.070  0.00  0.00    +0.043 A 
ATOM     20  N   UNL     1       3.109  -0.202  -0.137  0.00  0.00    -0.380 N 
ATOM     21  C   UNL     1       2.887  -1.650  -0.217  0.00  0.00    +0.144 C 
ATOM     22  C   UNL     1       1.400  -1.853  -0.025  0.00  0.00    -0.040 C 
ATOM     23  C   UNL     1       0.872  -0.619   0.144  0.00  0.00    -0.001 A 
ATOM     24  C   UNL     1      -0.498  -0.147   0.371  0.00  0.00    +0.010 A 
ATOM     25  H   UNL     1       3.966   0.245  -0.222  0.00  0.00    +0.160 HD
ENDBRANCH  15  22
ENDBRANCH  14  15
ENDBRANCH  12  14
ENDBRANCH   1  12
BRANCH   8  26
ATOM     26  C   UNL     1      -3.466  -8.742  -0.204  0.00  0.00    +0.122 C 
BRANCH  26  27
ATOM     27  C   UNL     1      -2.481  -9.742   0.403  0.00  0.00    +0.050 C 
BRANCH  27  28
ATOM     28  C   UNL     1      -3.064 -10.317   1.668  0.00  0.00    -0.072 C 
ATOM     29  C   UNL     1      -3.693 -11.445   1.589  0.00  0.00    -0.028 C 
ATOM     30  C   UNL     1      -4.335 -12.134   2.758  0.00  0.00    +0.027 C 
ATOM     31  C   UNL     1      -3.789 -11.565   4.069  0.00  0.00    +0.004 C 
ATOM     32  C   UNL     1      -3.866 -10.035   4.003  0.00  0.00    +0.005 C 
ATOM     33  C   UNL     1      -2.873  -9.549   2.943  0.00  0.00    +0.030 C 
ENDBRANCH  27  28
ENDBRANCH  26  27
ENDBRANCH   8  26
TORSDOF 7
