REMARK  Name = ZINC12020299
REMARK  9 active torsions:
REMARK  status: ('A' for Active; 'I' for Inactive)
REMARK    1  A    between atoms: C_4  and  C_7
REMARK    2  A    between atoms: C_8  and  C_9
REMARK    3  A    between atoms: C_9  and  N_58
REMARK    4  A    between atoms: C_15  and  C_17
REMARK    5  A    between atoms: C_17  and  C_18
REMARK    6  A    between atoms: N_20  and  C_21
REMARK    7  A    between atoms: C_21  and  C_22
REMARK    8  A    between atoms: C_22  and  C_23
REMARK    9  A    between atoms: C_26  and  C_29
REMARK                            x       y       z     vdW  Elec       q    Type
REMARK                         _______ _______ _______ _____ _____    ______ ____
ROOT
ATOM      1  C   UNL     1      -1.967   1.526   3.062  0.00  0.00    -0.058 C 
ATOM      2  C   UNL     1      -1.002   0.862   4.046  0.00  0.00    +0.085 C 
ATOM      3  N   UNL     1       0.361   0.917   3.524  0.00  0.00    -0.318 N 
ATOM      4  C   UNL     1       0.636   1.143   2.237  0.00  0.00    +0.200 C 
ATOM      5  O   UNL     1       1.796   1.140   1.884  0.00  0.00    -0.278 OA
ATOM      6  C   UNL     1      -0.429   1.403   1.209  0.00  0.00    +0.028 C 
ATOM      7  H   UNL     1       1.099   0.783   4.140  0.00  0.00    +0.149 HD
ATOM      8  N   UNL     1      -1.731   0.943   1.726  0.00  0.00    +0.391 N 
ATOM      9  H   UNL     1      -1.720  -0.081   1.804  0.00  0.00    -0.080 HD
ENDROOT
BRANCH   8  10
ATOM     10  C   UNL     1      -2.814   1.343   0.799  0.00  0.00    -0.050 C 
BRANCH  10  12
ATOM     11  C   UNL     1      -5.090   1.885   1.544  0.00  0.00    +0.002 C 
ATOM     12  C   UNL     1      -4.144   0.967   1.401  0.00  0.00    -0.045 C 
BRANCH  11  16
ATOM     13  C   UNL     1      -8.836   0.825   3.242  0.00  0.00    +0.000 A 
ATOM     14  C   UNL     1      -8.607   2.128   2.838  0.00  0.00    +0.001 A 
ATOM     15  C   UNL     1      -7.392   2.479   2.285  0.00  0.00    +0.008 A 
ATOM     16  C   UNL     1      -6.394   1.516   2.134  0.00  0.00    -0.025 A 
ATOM     17  C   UNL     1      -6.633   0.202   2.538  0.00  0.00    +0.008 A 
ATOM     18  C   UNL     1      -7.850  -0.135   3.095  0.00  0.00    +0.001 A 
ENDBRANCH  11  16
ENDBRANCH  10  12
ENDBRANCH   8  10
BRANCH   6  19
ATOM     19  C   UNL     1      -0.100   0.629  -0.069  0.00  0.00    +0.089 C 
BRANCH  19  20
ATOM     20  C   UNL     1      -0.057  -0.847   0.234  0.00  0.00    +0.212 C 
ATOM     21  O   UNL     1      -0.363  -1.248   1.337  0.00  0.00    -0.276 OA
ATOM     22  N   UNL     1       0.322  -1.720  -0.720  0.00  0.00    -0.315 N 
ATOM     23  H   UNL     1       0.567  -1.399  -1.602  0.00  0.00    +0.149 HD
BRANCH  22  24
ATOM     24  C   UNL     1       0.364  -3.154  -0.426  0.00  0.00    +0.109 C 
BRANCH  24  25
ATOM     25  C   UNL     1       0.823  -3.917  -1.670  0.00  0.00    +0.054 C 
BRANCH  25  26
ATOM     26  C   UNL     1       0.866  -5.393  -1.367  0.00  0.00    -0.046 A 
ATOM     27  C   UNL     1       2.026  -5.965  -0.879  0.00  0.00    +0.004 A 
ATOM     28  C   UNL     1       2.064  -7.317  -0.596  0.00  0.00    +0.012 A 
ATOM     29  C   UNL     1       0.945  -8.100  -0.812  0.00  0.00    +0.055 A 
ATOM     30  C   UNL     1      -0.213  -7.529  -1.305  0.00  0.00    +0.012 A 
ATOM     31  C   UNL     1      -0.253  -6.176  -1.583  0.00  0.00    +0.004 A 
BRANCH  29  32
ATOM     32  C   UNL     1       0.988  -9.576  -0.509  0.00  0.00    +0.417 C 
ATOM     33  F   UNL     1       1.408 -10.273  -1.647  0.00  0.00    -0.166 F 
ATOM     34  F   UNL     1       1.885  -9.811   0.538  0.00  0.00    -0.166 F 
ATOM     35  F   UNL     1      -0.287 -10.013  -0.138  0.00  0.00    -0.166 F 
ENDBRANCH  29  32
ENDBRANCH  25  26
ENDBRANCH  24  25
ENDBRANCH  22  24
ENDBRANCH  19  20
ENDBRANCH   6  19
TORSDOF 9
