REMARK  Name = ZINC20065938
REMARK  14 active torsions:
REMARK  status: ('A' for Active; 'I' for Inactive)
REMARK    1  A    between atoms: C_1  and  C_2
REMARK    2  A    between atoms: C_5  and  C_8
REMARK    3  A    between atoms: C_10  and  C_35
REMARK    4  A    between atoms: C_11  and  S_22
REMARK    5  A    between atoms: C_13  and  C_21
REMARK    6  A    between atoms: C_14  and  C_15
REMARK    7  A    between atoms: C_15  and  O_17
REMARK    8  A    between atoms: O_17  and  C_18
REMARK    9  A    between atoms: C_18  and  C_19
REMARK   10  A    between atoms: S_22  and  C_23
REMARK   11  A    between atoms: C_23  and  C_24
REMARK   12  A    between atoms: N_26  and  C_27
REMARK   13  A    between atoms: C_30  and  C_34
REMARK   14  A    between atoms: C_31  and  C_33
REMARK                            x       y       z     vdW  Elec       q    Type
REMARK                         _______ _______ _______ _____ _____    ______ ____
ROOT
ATOM      1  C   UNL     1      -2.771   2.817   4.784  0.00  0.00    +0.100 C 
ATOM      2  C   UNL     1      -3.783   1.796   5.222  0.00  0.00    +0.069 C 
ATOM      3  C   UNL     1      -5.112   1.982   5.003  0.00  0.00    +0.080 C 
ATOM      4  N   UNL     1      -5.565   3.123   4.378  0.00  0.00    -0.312 N 
ATOM      5  C   UNL     1      -4.761   4.225   4.292  0.00  0.00    +0.016 C 
ATOM      6  C   UNL     1      -3.433   4.130   4.481  0.00  0.00    +0.066 C 
ATOM      7  C   UNL     1      -5.372   5.567   3.982  0.00  0.00    +0.061 C 
ATOM      8  H   UNL     1      -6.577   3.149   3.947  0.00  0.00    +0.152 HD
ENDROOT
BRANCH   1  13
ATOM      9  C   UNL     1      -0.074   0.908   0.043  0.00  0.00    +0.044 C 
ATOM     10  C   UNL     1      -0.778   1.405   1.280  0.00  0.00    -0.050 A 
ATOM     11  C   UNL     1      -2.143   1.623   1.258  0.00  0.00    +0.003 A 
ATOM     12  C   UNL     1      -2.788   2.075   2.394  0.00  0.00    +0.005 A 
ATOM     13  C   UNL     1      -2.068   2.319   3.548  0.00  0.00    -0.035 A 
ATOM     14  C   UNL     1      -0.702   2.106   3.568  0.00  0.00    +0.005 A 
ATOM     15  C   UNL     1      -0.057   1.649   2.434  0.00  0.00    +0.003 A 
ENDBRANCH   1  13
BRANCH   6  16
ATOM     16  C   UNL     1      -2.640   5.297   4.391  0.00  0.00    +0.338 C 
ATOM     17  O   UNL     1      -2.280   5.867   5.404  0.00  0.00    -0.245 OA
BRANCH  16  18
ATOM     18  O   UNL     1      -2.283   5.778   3.182  0.00  0.00    -0.457 OA
BRANCH  18  19
ATOM     19  C   UNL     1      -1.480   6.961   3.166  0.00  0.00    +0.259 C 
BRANCH  19  20
ATOM     20  C   UNL     1      -1.182   7.346   1.740  0.00  0.00    +0.006 C 
ATOM     21  C   UNL     1      -1.295   8.595   1.362  0.00  0.00    +0.007 C 
ENDBRANCH  19  20
ENDBRANCH  18  19
ENDBRANCH  16  18
ENDBRANCH   6  16
BRANCH   2  22
ATOM     22  C   UNL     1      -3.340   0.605   5.881  0.00  0.00    +0.098 C 
ATOM     23  N   UNL     1      -2.988  -0.340   6.405  0.00  0.00    -0.191 NA
ENDBRANCH   2  22
BRANCH   3  24
ATOM     24  S   UNL     1      -6.264   0.753   5.521  0.00  0.00    -0.100 S 
BRANCH  24  25
ATOM     25  C   UNL     1      -7.810   1.525   4.984  0.00  0.00    +0.171 C 
BRANCH  25  26
ATOM     26  C   UNL     1      -8.968   0.626   5.334  0.00  0.00    +0.227 C 
ATOM     27  O   UNL     1      -8.768  -0.432   5.892  0.00  0.00    -0.275 OA
ATOM     28  N   UNL     1     -10.227   0.998   5.026  0.00  0.00    -0.285 N 
ATOM     29  H   UNL     1     -10.403   1.920   4.453  0.00  0.00    +0.155 HD
BRANCH  28  30
ATOM     30  C   UNL     1     -11.309   0.211   5.436  0.00  0.00    +0.034 A 
ATOM     31  C   UNL     1     -11.189  -1.173   5.471  0.00  0.00    +0.023 A 
ATOM     32  C   UNL     1     -12.257  -1.946   5.881  0.00  0.00    +0.005 A 
ATOM     33  C   UNL     1     -13.448  -1.345   6.247  0.00  0.00    -0.047 A 
ATOM     34  C   UNL     1     -13.572   0.031   6.208  0.00  0.00    -0.046 A 
ATOM     35  C   UNL     1     -12.506   0.811   5.803  0.00  0.00    +0.027 A 
ATOM     36  C   UNL     1     -14.871   0.681   6.606  0.00  0.00    +0.044 C 
ATOM     37  C   UNL     1     -14.613  -2.193   6.688  0.00  0.00    +0.044 C 
ENDBRANCH  28  30
ENDBRANCH  25  26
ENDBRANCH  24  25
ENDBRANCH   3  24
TORSDOF 10
