REMARK  Name = ZINC15869724
REMARK  5 active torsions:
REMARK  status: ('A' for Active; 'I' for Inactive)
REMARK    1  A    between atoms: C_7  and  C_8
REMARK    2  A    between atoms: C_7  and  N_69
REMARK    3  A    between atoms: C_8  and  C_9
REMARK    4  A    between atoms: C_9  and  N_10
REMARK    5  A    between atoms: C_11  and  C_13
REMARK                            x       y       z     vdW  Elec       q    Type
REMARK                         _______ _______ _______ _____ _____    ______ ____
ROOT
ATOM      1  C   UNL     1      -2.873   1.544  -0.009  0.00  0.00    +0.092 C 
ATOM      2  C   UNL     1      -2.170   1.064   1.264  0.00  0.00    +0.016 C 
ATOM      3  C   UNL     1      -0.729   1.579   1.267  0.00  0.00    +0.020 C 
ATOM      4  C   UNL     1      -0.013   1.086   0.008  0.00  0.00    +0.107 C 
ATOM      5  N   UNL     1      -0.723   1.572  -1.182  0.00  0.00    -0.307 N 
ATOM      6  C   UNL     1      -2.095   1.052  -1.231  0.00  0.00    +0.119 C 
ATOM      7  C   UNL     1      -0.030   1.254  -2.337  0.00  0.00    +0.184 A 
ATOM      8  N   UNL     1       1.093   0.600  -2.468  0.00  0.00    -0.139 NA
ATOM      9  N   UNL     1       1.656   0.367  -3.719  0.00  0.00    -0.169 N 
ATOM     10  C   UNL     1       2.817  -0.294  -3.992  0.00  0.00    +0.279 A 
ATOM     11  O   UNL     1       3.483  -0.755  -3.078  0.00  0.00    -0.265 OA
ATOM     12  C   UNL     1       3.250  -0.446  -5.317  0.00  0.00    +0.040 A 
ATOM     13  C   UNL     1       2.494   0.076  -6.335  0.00  0.00    +0.053 A 
ATOM     14  N   UNL     1       1.365   0.721  -6.032  0.00  0.00    -0.226 NA
ATOM     15  C   UNL     1       0.969   0.858  -4.794  0.00  0.00    +0.201 A 
ATOM     16  S   UNL     1      -0.444   1.626  -4.034  0.00  0.00    -0.013 S 
ATOM     17  C   UNL     1       2.878  -0.048  -7.784  0.00  0.00    +0.056 C 
ATOM     18  C   UNL     1       4.356  -0.412  -7.917  0.00  0.00    +0.006 C 
ATOM     19  C   UNL     1       4.638  -1.623  -7.021  0.00  0.00    +0.005 C 
ATOM     20  C   UNL     1       4.542  -1.179  -5.563  0.00  0.00    +0.042 C 
ENDROOT
BRANCH   1  22
ATOM     21  N   UNL     1      -5.083   1.282  -1.087  0.00  0.00    -0.315 N 
ATOM     22  C   UNL     1      -4.274   0.992  -0.049  0.00  0.00    +0.218 C 
ATOM     23  O   UNL     1      -4.675   0.288   0.854  0.00  0.00    -0.275 OA
ATOM     24  H   UNL     1      -4.763   1.846  -1.808  0.00  0.00    +0.149 HD
BRANCH  21  25
ATOM     25  C   UNL     1      -6.446   0.746  -1.126  0.00  0.00    +0.102 C 
BRANCH  25  26
ATOM     26  C   UNL     1      -7.146   1.222  -2.400  0.00  0.00    +0.000 C 
BRANCH  26  27
ATOM     27  C   UNL     1      -8.569   0.662  -2.441  0.00  0.00    -0.077 C 
BRANCH  27  34
ATOM     28  C   UNL     1     -11.659   3.295  -4.189  0.00  0.00    -0.002 C 
ATOM     29  C   UNL     1     -12.382   2.035  -4.054  0.00  0.00    -0.002 C 
ATOM     30  C   UNL     1     -11.663   1.049  -3.109  0.00  0.00    -0.019 C 
ATOM     31  C   UNL     1     -10.526   0.412  -3.860  0.00  0.00    -0.079 C 
ATOM     32  C   UNL     1      -9.338   2.595  -3.696  0.00  0.00    -0.079 C 
ATOM     33  C   UNL     1     -10.249   3.097  -4.783  0.00  0.00    -0.019 C 
ATOM     34  N   UNL     1      -9.200   1.099  -3.696  0.00  0.00    +0.380 N 
ATOM     35  H   UNL     1      -8.596   0.830  -4.482  0.00  0.00    -0.082 HD
ENDBRANCH  27  34
ENDBRANCH  26  27
ENDBRANCH  25  26
ENDBRANCH  21  25
ENDBRANCH   1  22
TORSDOF 5
