REMARK  Name = ZINC63732816
REMARK  10 active torsions:
REMARK  status: ('A' for Active; 'I' for Inactive)
REMARK    1  A    between atoms: C_4  and  N_7
REMARK    2  A    between atoms: C_8  and  C_10
REMARK    3  A    between atoms: C_15  and  N_16
REMARK    4  A    between atoms: C_17  and  C_19
REMARK    5  A    between atoms: C_19  and  O_20
REMARK    6  A    between atoms: O_20  and  C_21
REMARK    7  A    between atoms: C_21  and  C_23
REMARK    8  A    between atoms: C_23  and  C_24
REMARK    9  A    between atoms: C_24  and  C_25
REMARK   10  A    between atoms: C_25  and  C_26
REMARK                            x       y       z     vdW  Elec       q    Type
REMARK                         _______ _______ _______ _____ _____    ______ ____
ROOT
ATOM      1  N   UNL     1       3.756  -4.788   0.038  0.00  0.00    -0.282 N 
ATOM      2  C   UNL     1       3.847  -6.130  -0.060  0.00  0.00    +0.255 C 
ATOM      3  O   UNL     1       4.930  -6.670   0.010  0.00  0.00    -0.272 OA
ATOM      4  H   UNL     1       2.885  -4.361   0.048  0.00  0.00    +0.155 HD
ENDROOT
BRANCH   1  10
ATOM      5  C   UNL     1       4.965  -2.755  -0.488  0.00  0.00    +0.058 A 
ATOM      6  C   UNL     1       6.128  -1.988  -0.389  0.00  0.00    +0.015 A 
ATOM      7  C   UNL     1       7.216  -2.475   0.302  0.00  0.00    +0.001 A 
ATOM      8  C   UNL     1       7.163  -3.724   0.901  0.00  0.00    +0.002 A 
ATOM      9  C   UNL     1       6.020  -4.493   0.811  0.00  0.00    +0.024 A 
ATOM     10  C   UNL     1       4.912  -4.016   0.124  0.00  0.00    +0.046 A 
BRANCH   5  12
ATOM     11  N   UNL     1       3.884  -1.074  -1.897  0.00  0.00    -0.281 N 
ATOM     12  C   UNL     1       3.797  -2.240  -1.227  0.00  0.00    +0.250 C 
ATOM     13  O   UNL     1       2.755  -2.867  -1.232  0.00  0.00    -0.270 OA
ATOM     14  H   UNL     1       4.733  -0.607  -1.949  0.00  0.00    +0.155 HD
BRANCH  11  18
ATOM     15  C   UNL     1       0.511   0.525  -3.745  0.00  0.00    +0.000 A 
ATOM     16  C   UNL     1       1.448   1.366  -3.173  0.00  0.00    +0.002 A 
ATOM     17  C   UNL     1       2.567   0.839  -2.559  0.00  0.00    +0.023 A 
ATOM     18  C   UNL     1       2.752  -0.537  -2.517  0.00  0.00    +0.034 A 
ATOM     19  C   UNL     1       1.809  -1.379  -3.093  0.00  0.00    +0.023 A 
ATOM     20  C   UNL     1       0.691  -0.846  -3.705  0.00  0.00    +0.002 A 
ENDBRANCH  11  18
ENDBRANCH   5  12
ENDBRANCH   1  10
BRANCH   2  21
ATOM     21  C   UNL     1       2.603  -6.957  -0.256  0.00  0.00    +0.328 C 
BRANCH  21  22
ATOM     22  O   UNL     1       2.957  -8.340  -0.330  0.00  0.00    -0.455 OA
BRANCH  22  23
ATOM     23  C   UNL     1       1.956  -9.216  -0.504  0.00  0.00    +0.308 C 
ATOM     24  O   UNL     1       0.817  -8.823  -0.592  0.00  0.00    -0.251 OA
BRANCH  23  25
ATOM     25  C   UNL     1       2.253 -10.691  -0.592  0.00  0.00    +0.121 C 
BRANCH  25  26
ATOM     26  C   UNL     1       0.947 -11.464  -0.790  0.00  0.00    +0.015 C 
BRANCH  26  27
ATOM     27  C   UNL     1       1.249 -12.961  -0.878  0.00  0.00    +0.034 C 
BRANCH  27  28
ATOM     28  C   UNL     1      -0.038 -13.722  -1.073  0.00  0.00    -0.042 C 
ATOM     29  C   UNL     1      -0.569 -14.133  -2.247  0.00  0.00    -0.001 A 
ATOM     30  C   UNL     1      -0.127 -13.998  -3.640  0.00  0.00    +0.010 A 
ATOM     31  C   UNL     1      -0.890 -14.525  -4.625  0.00  0.00    +0.001 A 
ATOM     32  C   UNL     1      -2.090 -15.195  -4.348  0.00  0.00    +0.002 A 
ATOM     33  C   UNL     1      -2.562 -15.358  -3.094  0.00  0.00    +0.026 A 
ATOM     34  C   UNL     1      -1.840 -14.844  -1.982  0.00  0.00    +0.043 A 
ATOM     35  N   UNL     1      -2.084 -14.873  -0.694  0.00  0.00    -0.380 N 
ATOM     36  C   UNL     1      -0.992 -14.186   0.004  0.00  0.00    +0.144 C 
ATOM     37  H   UNL     1      -2.856 -15.282  -0.273  0.00  0.00    +0.160 HD
ENDBRANCH  27  28
ENDBRANCH  26  27
ENDBRANCH  25  26
ENDBRANCH  23  25
ENDBRANCH  22  23
ENDBRANCH  21  22
ENDBRANCH   2  21
TORSDOF 10
