REMARK  Name = ZINC67582611
REMARK  4 active torsions:
REMARK  status: ('A' for Active; 'I' for Inactive)
REMARK    1  A    between atoms: C_4  and  C_7
REMARK    2  A    between atoms: C_10  and  N_12
REMARK    3  A    between atoms: N_15  and  C_16
REMARK    4  A    between atoms: C_18  and  N_23
REMARK                            x       y       z     vdW  Elec       q    Type
REMARK                         _______ _______ _______ _____ _____    ______ ____
ROOT
ATOM      1  N   UNL     1       5.362  -1.719  -1.708  0.00  0.00    -0.296 N 
ATOM      2  C   UNL     1       5.608  -2.092  -2.979  0.00  0.00    +0.304 C 
ATOM      3  O   UNL     1       4.683  -2.343  -3.728  0.00  0.00    -0.252 OA
ATOM      4  N   UNL     1       6.878  -2.187  -3.420  0.00  0.00    -0.267 N 
ATOM      5  H   UNL     1       6.099  -1.518  -1.110  0.00  0.00    +0.151 HD
ATOM      6  H   UNL     1       7.612  -1.925  -2.843  0.00  0.00    +0.156 HD
ENDROOT
BRANCH   4   7
ATOM      7  C   UNL     1       7.137  -2.665  -4.711  0.00  0.00    +0.072 A 
ATOM      8  C   UNL     1       6.259  -2.379  -5.748  0.00  0.00    +0.059 A 
ATOM      9  C   UNL     1       6.517  -2.851  -7.020  0.00  0.00    +0.128 A 
ATOM     10  C   UNL     1       7.648  -3.609  -7.263  0.00  0.00    +0.035 A 
ATOM     11  C   UNL     1       8.525  -3.896  -6.233  0.00  0.00    +0.042 A 
ATOM     12  C   UNL     1       8.277  -3.421  -4.958  0.00  0.00    +0.145 A 
ATOM     13  F   UNL     1       9.137  -3.698  -3.954  0.00  0.00    -0.204 F 
BRANCH   9  14
ATOM     14  N   UNL     1       5.581  -2.546  -8.125  0.00  0.00    +0.056 N 
ATOM     15  O   UNL     1       4.592  -1.884  -7.914  0.00  0.00    -0.126 OA
ATOM     16  O   UNL     1       5.806  -2.959  -9.239  0.00  0.00    -0.126 OA
ENDBRANCH   9  14
ENDBRANCH   4   7
BRANCH   1  19
ATOM     17  C   UNL     1       3.710  -0.672  -0.054  0.00  0.00    +0.041 C 
ATOM     18  C   UNL     1       3.670  -2.187   0.157  0.00  0.00    +0.033 C 
ATOM     19  C   UNL     1       3.982  -1.615  -1.228  0.00  0.00    +0.083 C 
BRANCH  17  23
ATOM     20  C   UNL     1      -0.012   1.423  -0.029  0.00  0.00    +0.000 A 
ATOM     21  C   UNL     1       1.177   2.127  -0.040  0.00  0.00    +0.000 A 
ATOM     22  C   UNL     1       2.382   1.449  -0.048  0.00  0.00    +0.004 A 
ATOM     23  C   UNL     1       2.397   0.067  -0.044  0.00  0.00    -0.042 A 
ATOM     24  C   UNL     1       1.207  -0.638  -0.032  0.00  0.00    +0.004 A 
ATOM     25  C   UNL     1       0.003   0.041  -0.025  0.00  0.00    +0.000 A 
ENDBRANCH  17  23
ENDBRANCH   1  19
TORSDOF 4
