REMARK  Name = ZINC39748744
REMARK  13 active torsions:
REMARK  status: ('A' for Active; 'I' for Inactive)
REMARK    1  A    between atoms: C_1  and  C_2
REMARK    2  A    between atoms: C_2  and  C_4
REMARK    3  A    between atoms: C_2  and  S_14
REMARK    4  A    between atoms: N_6  and  C_7
REMARK    5  A    between atoms: C_12  and  O_13
REMARK    6  A    between atoms: S_14  and  C_15
REMARK    7  A    between atoms: C_18  and  C_21
REMARK    8  A    between atoms: N_19  and  C_20
REMARK    9  A    between atoms: C_21  and  C_23
REMARK   10  A    between atoms: C_21  and  N_26
REMARK   11  A    between atoms: C_23  and  C_24
REMARK   12  A    between atoms: C_23  and  C_25
REMARK   13  A    between atoms: C_27  and  C_29
REMARK                            x       y       z     vdW  Elec       q    Type
REMARK                         _______ _______ _______ _____ _____    ______ ____
ROOT
ATOM      1  C   UNL     1      -0.179  -0.017  -2.805  0.00  0.00    +0.192 A 
ATOM      2  N   UNL     1      -1.300   0.657  -2.688  0.00  0.00    -0.122 NA
ATOM      3  N   UNL     1      -1.794   0.888  -3.852  0.00  0.00    -0.132 NA
ATOM      4  C   UNL     1      -1.026   0.380  -4.773  0.00  0.00    +0.155 A 
ATOM      5  N   UNL     1       0.034  -0.209  -4.140  0.00  0.00    -0.308 N 
ATOM      6  C   UNL     1       1.161  -0.906  -4.764  0.00  0.00    +0.152 C 
ENDROOT
BRANCH   1   7
ATOM      7  S   UNL     1       0.857  -0.562  -1.489  0.00  0.00    -0.074 S 
BRANCH   7   9
ATOM      8  C   UNL     1      -0.008   1.544   0.027  0.00  0.00    +0.029 C 
ATOM      9  C   UNL     1       0.008   0.014   0.007  0.00  0.00    +0.137 C 
BRANCH   9  10
ATOM     10  C   UNL     1       0.733  -0.497   1.225  0.00  0.00    +0.230 C 
ATOM     11  O   UNL     1       1.913  -0.772   1.157  0.00  0.00    -0.274 OA
ATOM     12  N   UNL     1       0.071  -0.647   2.389  0.00  0.00    -0.282 N 
ATOM     13  H   UNL     1      -0.854  -0.367   2.461  0.00  0.00    +0.155 HD
BRANCH  12  14
ATOM     14  C   UNL     1       0.721  -1.210   3.497  0.00  0.00    +0.075 A 
ATOM     15  C   UNL     1       2.071  -0.969   3.707  0.00  0.00    +0.027 A 
ATOM     16  C   UNL     1       2.709  -1.524   4.800  0.00  0.00    +0.002 A 
ATOM     17  C   UNL     1       2.005  -2.320   5.685  0.00  0.00    +0.004 A 
ATOM     18  C   UNL     1       0.660  -2.565   5.482  0.00  0.00    +0.047 A 
ATOM     19  C   UNL     1       0.011  -2.007   4.392  0.00  0.00    +0.138 A 
BRANCH  19  20
ATOM     20  O   UNL     1      -1.313  -2.242   4.193  0.00  0.00    -0.505 OA
ATOM     21  H   UNL     1      -1.498  -3.025   3.656  0.00  0.00    +0.292 HD
ENDBRANCH  19  20
ENDBRANCH  12  14
ENDBRANCH   9  10
ENDBRANCH   7   9
ENDBRANCH   1   7
BRANCH   4  22
ATOM     22  C   UNL     1      -1.258   0.437  -6.261  0.00  0.00    +0.144 C 
BRANCH  22  23
ATOM     23  N   UNL     1      -2.658   0.118  -6.549  0.00  0.00    -0.301 N 
ATOM     24  C   UNL     1      -3.001  -0.383  -7.753  0.00  0.00    +0.245 C 
ATOM     25  O   UNL     1      -2.148  -0.570  -8.598  0.00  0.00    -0.270 OA
ATOM     26  H   UNL     1      -3.338   0.267  -5.874  0.00  0.00    +0.150 HD
BRANCH  24  27
ATOM     27  C   UNL     1      -4.414  -0.705  -8.044  0.00  0.00    +0.037 A 
ATOM     28  C   UNL     1      -5.396  -0.486  -7.077  0.00  0.00    +0.013 A 
ATOM     29  C   UNL     1      -6.713  -0.789  -7.355  0.00  0.00    +0.001 A 
ATOM     30  C   UNL     1      -7.061  -1.308  -8.589  0.00  0.00    +0.000 A 
ATOM     31  C   UNL     1      -6.092  -1.528  -9.552  0.00  0.00    +0.001 A 
ATOM     32  C   UNL     1      -4.772  -1.224  -9.289  0.00  0.00    +0.013 A 
ENDBRANCH  24  27
ENDBRANCH  22  23
BRANCH  22  33
ATOM     33  C   UNL     1      -0.939   1.843  -6.773  0.00  0.00    +0.011 C 
ATOM     34  C   UNL     1       0.524   2.176  -6.472  0.00  0.00    +0.009 C 
ATOM     35  C   UNL     1      -1.174   1.901  -8.284  0.00  0.00    +0.009 C 
ENDBRANCH  22  33
ENDBRANCH   4  22
TORSDOF 9
