REMARK  Name = ZINC36342286
REMARK  10 active torsions:
REMARK  status: ('A' for Active; 'I' for Inactive)
REMARK    1  A    between atoms: C_1  and  C_2
REMARK    2  A    between atoms: C_2  and  O_3
REMARK    3  A    between atoms: O_3  and  C_4
REMARK    4  A    between atoms: C_4  and  C_6
REMARK    5  A    between atoms: N_12  and  C_13
REMARK    6  A    between atoms: C_13  and  C_14
REMARK    7  A    between atoms: C_17  and  C_29
REMARK    8  A    between atoms: C_20  and  C_22
REMARK    9  A    between atoms: C_32  and  O_35
REMARK   10  A    between atoms: O_35  and  C_36
REMARK                            x       y       z     vdW  Elec       q    Type
REMARK                         _______ _______ _______ _____ _____    ______ ____
ROOT
ATOM      1  C   UNL     1       2.347  -5.661  -1.065  0.00  0.00    +0.219 C 
ATOM      2  O   UNL     1       1.877  -6.370  -1.930  0.00  0.00    -0.276 OA
ATOM      3  N   UNL     1       2.950  -6.214   0.006  0.00  0.00    -0.187 N 
ATOM      4  C   UNL     1       3.114  -7.657   0.246  0.00  0.00    +0.137 C 
ATOM      5  C   UNL     1       3.861  -7.716   1.593  0.00  0.00    +0.087 C 
ATOM      6  C   UNL     1       4.042  -6.264   1.974  0.00  0.00    +0.070 C 
ATOM      7  N   UNL     1       3.527  -5.513   1.063  0.00  0.00    -0.181 NA
ENDROOT
BRANCH   6   8
ATOM      8  C   UNL     1       4.709  -5.782   3.198  0.00  0.00    +0.016 A 
ATOM      9  C   UNL     1       5.241  -6.694   4.113  0.00  0.00    +0.011 A 
ATOM     10  C   UNL     1       5.864  -6.236   5.255  0.00  0.00    +0.001 A 
ATOM     11  C   UNL     1       5.962  -4.877   5.497  0.00  0.00    +0.001 A 
ATOM     12  C   UNL     1       5.437  -3.967   4.596  0.00  0.00    +0.020 A 
ATOM     13  C   UNL     1       4.816  -4.411   3.445  0.00  0.00    +0.050 A 
ATOM     14 CL   UNL     1       4.165  -3.268   2.312  0.00  0.00    -0.083 Cl
ENDBRANCH   6   8
BRANCH   4  15
ATOM     15  C   UNL     1       1.771  -8.332   0.350  0.00  0.00    -0.024 A 
ATOM     16  C   UNL     1       0.725  -7.694   0.991  0.00  0.00    +0.009 A 
ATOM     17  C   UNL     1      -0.507  -8.312   1.088  0.00  0.00    +0.046 A 
ATOM     18  C   UNL     1      -0.694  -9.573   0.542  0.00  0.00    +0.120 A 
ATOM     19  C   UNL     1       0.357 -10.212  -0.100  0.00  0.00    +0.046 A 
ATOM     20  C   UNL     1       1.586  -9.587  -0.200  0.00  0.00    +0.009 A 
BRANCH  18  21
ATOM     21  O   UNL     1      -1.905 -10.183   0.637  0.00  0.00    -0.495 OA
ATOM     22  C   UNL     1      -2.025 -11.482   0.052  0.00  0.00    +0.277 C 
ENDBRANCH  18  21
ENDBRANCH   4  15
BRANCH   1  23
ATOM     23  C   UNL     1       2.255  -4.162  -1.187  0.00  0.00    +0.022 C 
BRANCH  23  29
ATOM     24  C   UNL     1       1.319  -2.366  -2.470  0.00  0.00    +0.043 C 
ATOM     25  C   UNL     1       0.521  -2.010  -3.726  0.00  0.00    -0.004 C 
ATOM     26  C   UNL     1       1.316  -2.430  -4.965  0.00  0.00    -0.003 C 
ATOM     27  C   UNL     1       1.623  -3.928  -4.879  0.00  0.00    -0.019 C 
ATOM     28  C   UNL     1       2.380  -4.213  -3.580  0.00  0.00    -0.077 C 
ATOM     29  N   UNL     1       1.557  -3.814  -2.432  0.00  0.00    +0.394 N 
ATOM     30  H   UNL     1       0.673  -4.300  -2.467  0.00  0.00    -0.080 HD
BRANCH  24  31
ATOM     31  C   UNL     1       0.541  -1.953  -1.247  0.00  0.00    +0.293 C 
ATOM     32  O   UNL     1      -0.211  -2.737  -0.717  0.00  0.00    -0.253 OA
BRANCH  31  33
ATOM     33  O   UNL     1       0.682  -0.716  -0.747  0.00  0.00    -0.466 OA
BRANCH  33  35
ATOM     34  C   UNL     1       0.206   1.049   0.833  0.00  0.00    +0.048 C 
ATOM     35  C   UNL     1      -0.086  -0.393   0.413  0.00  0.00    +0.228 C 
ENDBRANCH  33  35
ENDBRANCH  31  33
ENDBRANCH  24  31
ENDBRANCH  23  29
ENDBRANCH   1  23
TORSDOF 8
