REMARK  Name = ZINC43249998
REMARK  8 active torsions:
REMARK  status: ('A' for Active; 'I' for Inactive)
REMARK    1  A    between atoms: C_1  and  C_2
REMARK    2  A    between atoms: C_2  and  C_3
REMARK    3  A    between atoms: C_3  and  C_5
REMARK    4  A    between atoms: C_3  and  N_23
REMARK    5  A    between atoms: C_5  and  C_7
REMARK    6  A    between atoms: C_5  and  O_13
REMARK    7  A    between atoms: C_8  and  C_12
REMARK    8  A    between atoms: O_13  and  C_14
REMARK                            x       y       z     vdW  Elec       q    Type
REMARK                         _______ _______ _______ _____ _____    ______ ____
ROOT
ATOM      1  C   UNL     1      -1.420  -2.123  -0.106  0.00  0.00    +0.196 C 
ENDROOT
BRANCH   1   2
ATOM      2  C   UNL     1      -2.719  -2.881  -0.013  0.00  0.00    +0.031 A 
ATOM      3  C   UNL     1      -3.227  -3.580   1.032  0.00  0.00    -0.037 A 
ATOM      4  C   UNL     1      -4.453  -4.202   0.889  0.00  0.00    +0.011 A 
ATOM      5  C   UNL     1      -5.111  -4.095  -0.290  0.00  0.00    +0.046 A 
ATOM      6  S   UNL     1      -3.993  -3.085  -1.247  0.00  0.00    -0.098 S 
ATOM      7  C   UNL     1      -2.465  -3.678   2.329  0.00  0.00    +0.045 C 
ENDBRANCH   1   2
BRANCH   1   8
ATOM      8  C   UNL     1      -1.699  -0.621  -0.022  0.00  0.00    -0.029 C 
BRANCH   8   9
ATOM      9  N   UNL     1      -2.353  -0.316   1.257  0.00  0.00    +0.383 N 
ATOM     10  H   UNL     1      -2.537   0.675   1.313  0.00  0.00    -0.089 HD
ATOM     11  H   UNL     1      -3.223  -0.823   1.320  0.00  0.00    -0.089 HD
ATOM     12  H   UNL     1      -1.749  -0.589   2.018  0.00  0.00    -0.089 HD
ENDBRANCH   8   9
BRANCH   8  14
ATOM     13  C   UNL     1      -0.667   1.651  -0.158  0.00  0.00    +0.002 C 
ATOM     14  C   UNL     1      -0.380   0.148  -0.116  0.00  0.00    -0.016 C 
ENDBRANCH   8  14
ENDBRANCH   1   8
BRANCH   1  15
ATOM     15  O   UNL     1      -0.783  -2.420  -1.350  0.00  0.00    -0.485 OA
BRANCH  15  16
ATOM     16  C   UNL     1       0.573  -2.512  -1.343  0.00  0.00    +0.125 A 
ATOM     17  C   UNL     1       1.258  -2.752  -2.525  0.00  0.00    +0.049 A 
ATOM     18  C   UNL     1       2.637  -2.845  -2.520  0.00  0.00    +0.053 A 
ATOM     19  C   UNL     1       3.339  -2.700  -1.335  0.00  0.00    +0.166 A 
ATOM     20  C   UNL     1       2.654  -2.459  -0.147  0.00  0.00    +0.170 A 
ATOM     21  C   UNL     1       1.272  -2.360  -0.155  0.00  0.00    +0.095 A 
ATOM     22  O   UNL     1       3.561  -2.355   0.868  0.00  0.00    -0.452 OA
ATOM     23  C   UNL     1       4.775  -2.940   0.359  0.00  0.00    +0.466 C 
ATOM     24  O   UNL     1       4.677  -2.747  -1.064  0.00  0.00    -0.453 OA
ENDBRANCH  15  16
ENDBRANCH   1  15
TORSDOF 6
