REMARK  Name = ZINC61717497
REMARK  6 active torsions:
REMARK  status: ('A' for Active; 'I' for Inactive)
REMARK    1  A    between atoms: C_1  and  C_2
REMARK    2  A    between atoms: C_2  and  C_3
REMARK    3  A    between atoms: C_2  and  C_4
REMARK    4  A    between atoms: C_7  and  C_10
REMARK    5  A    between atoms: C_13  and  O_22
REMARK    6  A    between atoms: N_20  and  C_21
REMARK                            x       y       z     vdW  Elec       q    Type
REMARK                         _______ _______ _______ _____ _____    ______ ____
ROOT
ATOM      1  C   UNL     1      -5.419  -2.005   0.043  0.00  0.00    +0.068 C 
ATOM      2  C   UNL     1      -6.163  -1.526  -1.214  0.00  0.00    +0.109 C 
ATOM      3  C   UNL     1      -7.355  -2.396  -1.486  0.00  0.00    +0.190 C 
ATOM      4  N   UNL     1      -7.422  -3.656  -1.214  0.00  0.00    -0.197 NA
ATOM      5  C   UNL     1      -6.358  -4.290  -0.580  0.00  0.00    +0.169 A 
ATOM      6  C   UNL     1      -5.408  -3.494   0.018  0.00  0.00    +0.045 A 
ATOM      7  S   UNL     1      -4.272  -4.670   0.688  0.00  0.00    -0.055 S 
ATOM      8  C   UNL     1      -5.147  -6.137   0.153  0.00  0.00    +0.160 A 
ATOM      9  N   UNL     1      -6.186  -5.612  -0.477  0.00  0.00    -0.206 NA
ATOM     10  N   UNL     1      -4.822  -7.470   0.346  0.00  0.00    -0.326 N 
ATOM     11  C   UNL     1      -5.694  -8.521  -0.185  0.00  0.00    +0.127 C 
ATOM     12  H   UNL     1      -4.016  -7.708   0.832  0.00  0.00    +0.148 HD
ENDROOT
BRANCH   1  16
ATOM     13  C   UNL     1      -1.412  -0.526   0.013  0.00  0.00    -0.045 A 
ATOM     14  C   UNL     1      -2.259  -0.204   1.056  0.00  0.00    +0.004 A 
ATOM     15  C   UNL     1      -3.556  -0.683   1.066  0.00  0.00    +0.004 A 
ATOM     16  C   UNL     1      -4.006  -1.482   0.032  0.00  0.00    -0.039 A 
ATOM     17  C   UNL     1      -3.159  -1.803  -1.012  0.00  0.00    +0.004 A 
ATOM     18  C   UNL     1      -1.863  -1.321  -1.024  0.00  0.00    +0.004 A 
BRANCH  13  20
ATOM     19  C   UNL     1      -0.019   1.526   0.010  0.00  0.00    +0.012 C 
ATOM     20  C   UNL     1       0.002  -0.004   0.002  0.00  0.00    +0.013 C 
ATOM     21  C   UNL     1       0.742  -0.511   1.242  0.00  0.00    +0.012 C 
ENDBRANCH  13  20
ENDBRANCH   1  16
BRANCH   3  22
ATOM     22  O   UNL     1      -8.435  -1.820  -2.056  0.00  0.00    -0.495 OA
ATOM     23  H   UNL     1      -9.172  -2.429  -2.207  0.00  0.00    +0.293 HD
ENDBRANCH   3  22
TORSDOF 3
