REMARK  Name = ZINC20836806
REMARK  8 active torsions:
REMARK  status: ('A' for Active; 'I' for Inactive)
REMARK    1  A    between atoms: C_1  and  C_2
REMARK    2  A    between atoms: C_2  and  C_26
REMARK    3  A    between atoms: N_3  and  N_4
REMARK    4  A    between atoms: C_7  and  S_10
REMARK    5  A    between atoms: S_10  and  C_11
REMARK    6  A    between atoms: C_11  and  C_12
REMARK    7  A    between atoms: N_14  and  C_15
REMARK    8  A    between atoms: C_29  and  N_32
REMARK                            x       y       z     vdW  Elec       q    Type
REMARK                         _______ _______ _______ _____ _____    ______ ____
ROOT
ATOM      1  N   UNL     1      -0.059  13.273  -2.955  0.00  0.00    -0.205 N 
ATOM      2  C   UNL     1      -0.466  11.968  -2.718  0.00  0.00    +0.232 A 
ATOM      3  N   UNL     1      -0.321  11.281  -1.544  0.00  0.00    -0.186 NA
ATOM      4  C   UNL     1      -0.848  10.033  -1.718  0.00  0.00    +0.211 A 
ATOM      5  N   UNL     1      -1.296   9.949  -2.948  0.00  0.00    -0.144 NA
ATOM      6  N   UNL     1      -1.058  11.177  -3.580  0.00  0.00    -0.245 N 
ATOM      7  H   UNL     1       0.431  13.849  -2.156  0.00  0.00    +0.177 HD
ATOM      8  H   UNL     1      -1.276  11.536  -4.596  0.00  0.00    +0.192 HD
ENDROOT
BRANCH   1  11
ATOM      9  C   UNL     1       0.782  15.867  -3.339  0.00  0.00    +0.068 C 
ATOM     10  C   UNL     1       0.111  15.077  -4.433  0.00  0.00    +0.063 C 
ATOM     11  N   UNL     1      -0.271  13.855  -4.211  0.00  0.00    -0.184 NA
BRANCH  10  12
ATOM     12  C   UNL     1      -0.112  15.690  -5.754  0.00  0.00    -0.002 A 
ATOM     13  C   UNL     1       0.293  17.007  -5.993  0.00  0.00    +0.011 A 
ATOM     14  C   UNL     1       0.087  17.575  -7.231  0.00  0.00    +0.023 A 
ATOM     15  C   UNL     1      -0.532  16.844  -8.239  0.00  0.00    +0.025 A 
ATOM     16  C   UNL     1      -0.942  15.536  -8.004  0.00  0.00    +0.023 A 
ATOM     17  C   UNL     1      -0.734  14.959  -6.770  0.00  0.00    +0.011 A 
BRANCH  15  18
ATOM     18  N   UNL     1      -0.744  17.425  -9.491  0.00  0.00    -0.358 N 
ATOM     19  H   UNL     1      -1.233  16.848 -10.289  0.00  0.00    +0.142 HD
ATOM     20  H   UNL     1      -0.421  18.459  -9.679  0.00  0.00    +0.142 HD
ENDBRANCH  15  18
ENDBRANCH  10  12
ENDBRANCH   1  11
BRANCH   4  21
ATOM     21  S   UNL     1      -0.910   8.757  -0.504  0.00  0.00    -0.075 S 
BRANCH  21  22
ATOM     22  C   UNL     1      -1.720   7.377  -1.359  0.00  0.00    +0.173 C 
BRANCH  22  23
ATOM     23  C   UNL     1      -1.837   6.204  -0.420  0.00  0.00    +0.224 C 
ATOM     24  O   UNL     1      -1.416   6.290   0.714  0.00  0.00    -0.275 OA
ATOM     25  N   UNL     1      -2.411   5.059  -0.841  0.00  0.00    -0.308 N 
ATOM     26  H   UNL     1      -2.793   4.981  -1.869  0.00  0.00    +0.149 HD
BRANCH  25  27
ATOM     27  C   UNL     1      -2.525   3.919   0.072  0.00  0.00    +0.103 C 
ATOM     28  C   UNL     1      -3.706   3.051  -0.372  0.00  0.00    +0.027 C 
ATOM     29  C   UNL     1      -3.683   1.759   0.454  0.00  0.00    +0.007 C 
ATOM     30  C   UNL     1      -2.487   0.921   0.005  0.00  0.00    +0.035 C 
ATOM     31  C   UNL     1      -1.228   1.748   0.017  0.00  0.00    -0.042 A 
ATOM     32  C   UNL     1      -1.245   3.125   0.037  0.00  0.00    -0.024 A 
ATOM     33  C   UNL     1      -0.048   3.828   0.025  0.00  0.00    +0.006 A 
ATOM     34  C   UNL     1       1.158   3.158   0.008  0.00  0.00    +0.000 A 
ATOM     35  C   UNL     1       1.176   1.776   0.000  0.00  0.00    +0.000 A 
ATOM     36  C   UNL     1      -0.013   1.076   0.008  0.00  0.00    +0.004 A 
ENDBRANCH  25  27
ENDBRANCH  22  23
ENDBRANCH  21  22
ENDBRANCH   4  21
TORSDOF 7
