REMARK  Name = ZINC39711276
REMARK  10 active torsions:
REMARK  status: ('A' for Active; 'I' for Inactive)
REMARK    1  A    between atoms: C_1  and  C_2
REMARK    2  A    between atoms: C_6  and  C_15
REMARK    3  A    between atoms: C_13  and  C_14
REMARK    4  A    between atoms: C_15  and  C_17
REMARK    5  A    between atoms: C_15  and  N_29
REMARK    6  A    between atoms: N_22  and  C_23
REMARK    7  A    between atoms: N_29  and  C_30
REMARK    8  A    between atoms: N_29  and  C_36
REMARK    9  A    between atoms: C_30  and  C_31
REMARK   10  A    between atoms: C_36  and  C_37
REMARK                            x       y       z     vdW  Elec       q    Type
REMARK                         _______ _______ _______ _____ _____    ______ ____
ROOT
ATOM      1  C   UNL     1       1.503  -5.104  -2.818  0.00  0.00    -0.008 C 
ENDROOT
BRANCH   1   7
ATOM      2  C   UNL     1       1.089   1.694  -0.669  0.00  0.00    +0.044 C 
ATOM      3  C   UNL     1       0.951   0.207  -0.465  0.00  0.00    -0.047 A 
ATOM      4  C   UNL     1       0.798  -0.600  -1.546  0.00  0.00    +0.013 A 
ATOM      5  C   UNL     1       0.666  -2.042  -1.336  0.00  0.00    -0.007 A 
ATOM      6  C   UNL     1       0.510  -2.891  -2.392  0.00  0.00    -0.006 C 
ATOM      7  C   UNL     1       0.382  -4.370  -2.081  0.00  0.00    +0.088 C 
ATOM      8  C   UNL     1       0.436  -4.782  -0.627  0.00  0.00    +0.223 C 
ATOM      9  O   UNL     1       0.338  -5.955  -0.321  0.00  0.00    -0.275 OA
ATOM     10  N   UNL     1       0.590  -3.862   0.310  0.00  0.00    -0.285 N 
ATOM     11  C   UNL     1       0.704  -2.561   0.042  0.00  0.00    +0.041 A 
ATOM     12  C   UNL     1       0.867  -1.638   1.091  0.00  0.00    +0.027 A 
ATOM     13  C   UNL     1       0.990  -0.311   0.830  0.00  0.00    -0.046 A 
ATOM     14  C   UNL     1       1.169   0.640   1.984  0.00  0.00    +0.044 C 
ATOM     15  H   UNL     1       0.623  -4.147   1.237  0.00  0.00    +0.155 HD
ENDBRANCH   1   7
BRANCH   1  16
ATOM     16  C   UNL     1       1.341  -4.900  -4.326  0.00  0.00    +0.205 C 
ATOM     17  N   UNL     1       2.413  -5.592  -5.055  0.00  0.00    -0.152 NA
ATOM     18  N   UNL     1       3.067  -4.760  -5.687  0.00  0.00    -0.070 NA
ATOM     19  N   UNL     1       2.597  -3.458  -5.518  0.00  0.00    -0.179 N 
ATOM     20  N   UNL     1       1.513  -3.474  -4.675  0.00  0.00    -0.185 NA
ATOM     21  H   UNL     1       2.976  -2.666  -5.930  0.00  0.00    +0.191 HD
BRANCH  20  22
ATOM     22  C   UNL     1       0.316  -2.948  -5.344  0.00  0.00    +0.080 C 
ATOM     23  C   UNL     1       0.059  -3.740  -6.627  0.00  0.00    +0.021 C 
ATOM     24  C   UNL     1      -1.188  -3.192  -7.324  0.00  0.00    +0.002 C 
ATOM     25  C   UNL     1      -0.973  -1.717  -7.669  0.00  0.00    +0.000 C 
ATOM     26  C   UNL     1      -0.716  -0.925  -6.385  0.00  0.00    +0.002 C 
ATOM     27  C   UNL     1       0.531  -1.473  -5.689  0.00  0.00    +0.021 C 
ENDBRANCH  20  22
ENDBRANCH   1  16
BRANCH   1  28
ATOM     28  N   UNL     1       1.436  -6.538  -2.508  0.00  0.00    +0.392 N 
ATOM     29  H   UNL     1       1.229  -6.661  -1.528  0.00  0.00    -0.080 HD
BRANCH  28  30
ATOM     30  C   UNL     1       2.727  -7.167  -2.818  0.00  0.00    -0.002 C 
BRANCH  30  31
ATOM     31  C   UNL     1       3.789  -6.613  -1.903  0.00  0.00    +0.089 A 
ATOM     32  C   UNL     1       4.187  -7.158  -0.739  0.00  0.00    +0.042 A 
ATOM     33  C   UNL     1       5.194  -6.316  -0.216  0.00  0.00    +0.041 A 
ATOM     34  C   UNL     1       5.352  -5.306  -1.091  0.00  0.00    +0.195 A 
ATOM     35  O   UNL     1       4.502  -5.495  -2.114  0.00  0.00    -0.470 OA
ENDBRANCH  30  31
ENDBRANCH  28  30
BRANCH  28  36
ATOM     36  C   UNL     1       0.380  -7.165  -3.314  0.00  0.00    -0.034 C 
BRANCH  36  37
ATOM     37  C   UNL     1      -0.966  -6.667  -2.853  0.00  0.00    -0.027 A 
ATOM     38  C   UNL     1      -1.797  -5.778  -3.450  0.00  0.00    +0.009 A 
ATOM     39  C   UNL     1      -2.997  -5.467  -2.838  0.00  0.00    +0.008 A 
ATOM     40  C   UNL     1      -3.307  -6.061  -1.660  0.00  0.00    +0.045 A 
ATOM     41  S   UNL     1      -1.882  -7.101  -1.384  0.00  0.00    -0.103 S 
ENDBRANCH  36  37
ENDBRANCH  28  36
ENDBRANCH   1  28
TORSDOF 8
