REMARK  Name = ZINC39962486
REMARK  3 active torsions:
REMARK  status: ('A' for Active; 'I' for Inactive)
REMARK    1  A    between atoms: C_10  and  N_11
REMARK    2  A    between atoms: C_12  and  C_18
REMARK    3  A    between atoms: C_21  and  C_24
REMARK                            x       y       z     vdW  Elec       q    Type
REMARK                         _______ _______ _______ _____ _____    ______ ____
ROOT
ATOM      1  N   UNL     1       4.870   0.096  -0.045  0.00  0.00    -0.255 N 
ATOM      2  C   UNL     1       5.640   0.537   1.130  0.00  0.00    +0.212 C 
ATOM      3  N   UNL     1       6.800   1.237   0.551  0.00  0.00    -0.243 N 
ATOM      4  N   UNL     1       6.644   1.166  -0.839  0.00  0.00    -0.161 NA
ATOM      5  C   UNL     1       5.571   0.526  -1.162  0.00  0.00    +0.190 C 
ATOM      6  S   UNL     1       5.057   0.237  -2.822  0.00  0.00    -0.012 SA
ATOM      7  H   UNL     1       7.525   1.662   1.035  0.00  0.00    +0.170 HD
ENDROOT
BRANCH   1  17
ATOM      8  C   UNL     1      -0.016   1.357   0.009  0.00  0.00    +0.001 A 
ATOM      9  C   UNL     1       1.168   2.090   0.002  0.00  0.00    +0.001 A 
ATOM     10  C   UNL     1       2.378   1.466  -0.013  0.00  0.00    +0.010 A 
ATOM     11  C   UNL     1       2.437   0.064  -0.021  0.00  0.00    +0.004 A 
ATOM     12  C   UNL     1       1.233  -0.683  -0.013  0.00  0.00    -0.016 A 
ATOM     13  C   UNL     1       0.002  -0.004   0.002  0.00  0.00    +0.008 A 
ATOM     14  C   UNL     1       1.290  -2.087  -0.020  0.00  0.00    +0.008 A 
ATOM     15  C   UNL     1       2.496  -2.719  -0.035  0.00  0.00    +0.002 A 
ATOM     16  C   UNL     1       3.685  -1.997  -0.042  0.00  0.00    +0.024 A 
ATOM     17  C   UNL     1       3.673  -0.618  -0.037  0.00  0.00    +0.045 A 
ENDBRANCH   1  17
BRANCH   2  18
ATOM     18  C   UNL     1       6.095  -0.668   1.956  0.00  0.00    +0.193 C 
ATOM     19  C   UNL     1       6.841  -0.215   3.199  0.00  0.00    +0.035 C 
ATOM     20  C   UNL     1       6.091  -0.686   4.215  0.00  0.00    +0.092 C 
ATOM     21  N   UNL     1       5.008  -1.352   3.736  0.00  0.00    -0.154 NA
ATOM     22  N   UNL     1       4.934  -1.392   2.502  0.00  0.00    -0.176 NA
BRANCH  20  23
ATOM     23  C   UNL     1       6.404  -0.502   5.653  0.00  0.00    +0.009 A 
ATOM     24  C   UNL     1       5.572  -1.030   6.636  0.00  0.00    +0.017 A 
ATOM     25  C   UNL     1       5.890  -0.842   7.936  0.00  0.00    +0.046 A 
ATOM     26  S   UNL     1       7.401   0.101   7.823  0.00  0.00    -0.104 S 
ATOM     27  C   UNL     1       7.520   0.184   6.044  0.00  0.00    +0.055 A 
ENDBRANCH  20  23
ENDBRANCH   2  18
TORSDOF 3
