REMARK  Name = ZINC02696167
REMARK  11 active torsions:
REMARK  status: ('A' for Active; 'I' for Inactive)
REMARK    1  A    between atoms: C_1  and  C_2
REMARK    2  A    between atoms: C_2  and  O_3
REMARK    3  A    between atoms: O_3  and  C_4
REMARK    4  A    between atoms: C_4  and  C_6
REMARK    5  A    between atoms: C_7  and  C_32
REMARK    6  A    between atoms: C_8  and  C_31
REMARK    7  A    between atoms: C_10  and  N_11
REMARK    8  A    between atoms: C_12  and  C_14
REMARK    9  A    between atoms: C_14  and  C_15
REMARK   10  A    between atoms: C_15  and  S_16
REMARK   11  A    between atoms: S_16  and  C_17
REMARK                            x       y       z     vdW  Elec       q    Type
REMARK                         _______ _______ _______ _____ _____    ______ ____
ROOT
ATOM      1  C   UNL     1      -0.656  -3.966   5.927  0.00  0.00    +0.086 C 
ENDROOT
BRANCH   1   2
ATOM      2  C   UNL     1      -0.407  -2.797   4.972  0.00  0.00    +0.107 C 
BRANCH   2   4
ATOM      3  N   UNL     1      -0.092  -2.458   2.543  0.00  0.00    -0.279 N 
ATOM      4  C   UNL     1      -0.310  -3.314   3.560  0.00  0.00    +0.218 C 
ATOM      5  O   UNL     1      -0.429  -4.501   3.339  0.00  0.00    -0.275 OA
ATOM      6  H   UNL     1       0.003  -1.509   2.720  0.00  0.00    +0.155 HD
BRANCH   3  11
ATOM      7  C   UNL     1       0.216  -2.214   0.073  0.00  0.00    +0.091 A 
ATOM      8  C   UNL     1       0.269  -2.972  -1.154  0.00  0.00    -0.025 A 
ATOM      9  C   UNL     1       0.098  -4.303  -1.061  0.00  0.00    -0.008 A 
ATOM     10  S   UNL     1      -0.140  -4.566   0.684  0.00  0.00    -0.078 S 
ATOM     11  C   UNL     1      -0.003  -2.933   1.244  0.00  0.00    +0.086 A 
ATOM     12  C   UNL     1       0.105  -5.326  -2.168  0.00  0.00    +0.052 C 
ATOM     13  C   UNL     1       0.507  -2.301  -2.482  0.00  0.00    +0.045 C 
BRANCH   7  14
ATOM     14  C   UNL     1       0.390  -0.760   0.086  0.00  0.00    +0.342 C 
ATOM     15  O   UNL     1      -0.576  -0.030  -0.031  0.00  0.00    -0.245 OA
BRANCH  14  16
ATOM     16  O   UNL     1       1.622  -0.229   0.228  0.00  0.00    -0.461 OA
BRANCH  16  18
ATOM     17  C   UNL     1       3.183   1.632   0.402  0.00  0.00    +0.048 C 
ATOM     18  C   UNL     1       1.720   1.220   0.232  0.00  0.00    +0.229 C 
ENDBRANCH  16  18
ENDBRANCH  14  16
ENDBRANCH   7  14
ENDBRANCH   3  11
ENDBRANCH   2   4
ENDBRANCH   1   2
BRANCH   1  19
ATOM     19  S   UNL     1      -0.773  -3.346   7.624  0.00  0.00    -0.085 S 
BRANCH  19  20
ATOM     20  C   UNL     1      -1.053  -4.858   8.484  0.00  0.00    +0.191 A 
ATOM     21  N   UNL     1      -1.119  -5.994   7.800  0.00  0.00    -0.207 NA
ATOM     22  C   UNL     1      -1.322  -7.159   8.391  0.00  0.00    +0.129 A 
ATOM     23  C   UNL     1      -1.486  -7.203   9.804  0.00  0.00    +0.051 A 
ATOM     24  C   UNL     1      -1.724  -8.366  10.662  0.00  0.00    -0.025 A 
ATOM     25  C   UNL     1      -1.844  -8.137  11.984  0.00  0.00    -0.004 A 
ATOM     26  S   UNL     1      -1.653  -6.384  12.169  0.00  0.00    -0.073 S 
ATOM     27  C   UNL     1      -1.410  -5.961  10.464  0.00  0.00    +0.115 A 
ATOM     28  N   UNL     1      -1.199  -4.839   9.802  0.00  0.00    -0.215 NA
ATOM     29  C   UNL     1      -2.088  -9.148  13.063  0.00  0.00    +0.043 C 
ATOM     30  C   UNL     1      -2.552 -10.456  12.405  0.00  0.00    +0.005 C 
ATOM     31  C   UNL     1      -1.612 -10.780  11.240  0.00  0.00    +0.005 C 
ATOM     32  C   UNL     1      -1.832  -9.783  10.103  0.00  0.00    +0.037 C 
ATOM     33  N   UNL     1      -1.379  -8.322   7.644  0.00  0.00    -0.343 N 
ATOM     34  H   UNL     1      -1.760  -9.127   8.028  0.00  0.00    +0.144 HD
ATOM     35  H   UNL     1      -1.038  -8.332   6.736  0.00  0.00    +0.144 HD
ENDBRANCH  19  20
ENDBRANCH   1  19
TORSDOF 8
