REMARK  Name = ZINC00988711
REMARK  14 active torsions:
REMARK  status: ('A' for Active; 'I' for Inactive)
REMARK    1  A    between atoms: C_1  and  C_2
REMARK    2  A    between atoms: C_2  and  O_3
REMARK    3  A    between atoms: O_3  and  C_4
REMARK    4  A    between atoms: C_7  and  C_10
REMARK    5  A    between atoms: C_16  and  C_33
REMARK    6  A    between atoms: C_17  and  C_24
REMARK    7  A    between atoms: C_19  and  C_22
REMARK    8  A    between atoms: C_20  and  N_21
REMARK    9  A    between atoms: C_27  and  O_30
REMARK   10  A    between atoms: O_30  and  C_31
REMARK   11  A    between atoms: C_31  and  C_32
REMARK   12  A    between atoms: C_33  and  O_35
REMARK   13  A    between atoms: O_35  and  C_36
REMARK   14  A    between atoms: C_36  and  C_37
REMARK                            x       y       z     vdW  Elec       q    Type
REMARK                         _______ _______ _______ _____ _____    ______ ____
ROOT
ATOM      1  C   UNL     1       5.529  -1.014   0.220  0.00  0.00    +0.028 C 
ATOM      2  C   UNL     1       4.555  -0.068   0.167  0.00  0.00    +0.079 A 
ATOM      3  C   UNL     1       4.657   1.384   0.345  0.00  0.00    +0.271 A 
ATOM      4  O   UNL     1       5.728   1.908   0.588  0.00  0.00    -0.266 OA
ATOM      5  N   UNL     1       3.533   2.123   0.249  0.00  0.00    -0.257 N 
ATOM      6  C   UNL     1       2.354   1.462  -0.024  0.00  0.00    +0.100 A 
ATOM      7  C   UNL     1       1.137   2.079  -0.156  0.00  0.00    +0.080 C 
ATOM      8  C   UNL     1       1.075   3.583   0.020  0.00  0.00    +0.102 C 
ATOM      9  C   UNL     1       2.394   4.265   0.324  0.00  0.00    +0.079 C 
ATOM     10  C   UNL     1       3.512   3.512   0.417  0.00  0.00    +0.118 C 
ATOM     11  S   UNL     1       2.808  -0.256  -0.151  0.00  0.00    -0.065 S 
ENDROOT
BRANCH   1  15
ATOM     12  C   UNL     1       4.503  -5.125   0.054  0.00  0.00    +0.121 A 
ATOM     13  C   UNL     1       5.767  -4.710  -0.347  0.00  0.00    +0.046 A 
ATOM     14  C   UNL     1       6.106  -3.377  -0.295  0.00  0.00    +0.011 A 
ATOM     15  C   UNL     1       5.173  -2.437   0.162  0.00  0.00    -0.024 A 
ATOM     16  C   UNL     1       3.902  -2.861   0.570  0.00  0.00    +0.011 A 
ATOM     17  C   UNL     1       3.573  -4.197   0.509  0.00  0.00    +0.046 A 
BRANCH  12  18
ATOM     18  O   UNL     1       4.174  -6.441   0.001  0.00  0.00    -0.492 OA
BRANCH  18  20
ATOM     19  C   UNL     1       2.673  -8.312   0.297  0.00  0.00    +0.048 C 
ATOM     20  C   UNL     1       2.858  -6.799   0.428  0.00  0.00    +0.225 C 
ENDBRANCH  18  20
ENDBRANCH  12  18
ENDBRANCH   1  15
BRANCH   8  21
ATOM     21  C   UNL     1       0.117   3.888   1.142  0.00  0.00    -0.034 A 
ATOM     22  C   UNL     1       0.358   3.389   2.409  0.00  0.00    +0.008 A 
ATOM     23  C   UNL     1      -0.516   3.672   3.441  0.00  0.00    +0.046 A 
ATOM     24  C   UNL     1      -1.642   4.446   3.203  0.00  0.00    +0.121 A 
ATOM     25  C   UNL     1      -1.884   4.941   1.930  0.00  0.00    +0.046 A 
ATOM     26  C   UNL     1      -1.004   4.660   0.902  0.00  0.00    +0.008 A 
BRANCH  24  27
ATOM     27  O   UNL     1      -2.506   4.720   4.215  0.00  0.00    -0.492 OA
BRANCH  27  28
ATOM     28  C   UNL     1      -2.193   4.178   5.500  0.00  0.00    +0.225 C 
ATOM     29  C   UNL     1      -3.272   4.590   6.504  0.00  0.00    +0.048 C 
ENDBRANCH  27  28
ENDBRANCH  24  27
ENDBRANCH   8  21
BRANCH  10  30
ATOM     30  N   UNL     1       4.698   4.148   0.693  0.00  0.00    -0.343 N 
ATOM     31  H   UNL     1       4.697   4.981   1.192  0.00  0.00    +0.144 HD
ATOM     32  H   UNL     1       5.536   3.765   0.390  0.00  0.00    +0.144 HD
ENDBRANCH  10  30
BRANCH   9  33
ATOM     33  C   UNL     1       2.454   5.683   0.510  0.00  0.00    +0.099 C 
ATOM     34  N   UNL     1       2.502   6.809   0.657  0.00  0.00    -0.191 NA
ENDBRANCH   9  33
BRANCH   7  35
ATOM     35  C   UNL     1      -0.018   1.339  -0.441  0.00  0.00    +0.339 C 
ATOM     36  O   UNL     1       0.051   0.130  -0.579  0.00  0.00    -0.245 OA
BRANCH  35  37
ATOM     37  O   UNL     1      -1.208   1.966  -0.567  0.00  0.00    -0.462 OA
BRANCH  37  38
ATOM     38  C   UNL     1      -2.343   1.151  -0.864  0.00  0.00    +0.229 C 
ATOM     39  C   UNL     1      -3.590   2.031  -0.969  0.00  0.00    +0.048 C 
ENDBRANCH  37  38
ENDBRANCH  35  37
ENDBRANCH   7  35
TORSDOF 11
