REMARK  Name = ZINC02606280
REMARK  12 active torsions:
REMARK  status: ('A' for Active; 'I' for Inactive)
REMARK    1  A    between atoms: C_1  and  C_2
REMARK    2  A    between atoms: C_2  and  O_3
REMARK    3  A    between atoms: O_3  and  C_4
REMARK    4  A    between atoms: C_4  and  C_6
REMARK    5  A    between atoms: C_6  and  C_8
REMARK    6  A    between atoms: C_6  and  N_9
REMARK    7  A    between atoms: C_10  and  C_12
REMARK    8  A    between atoms: C_12  and  N_13
REMARK    9  A    between atoms: C_14  and  C_16
REMARK   10  A    between atoms: C_16  and  C_18
REMARK   11  A    between atoms: C_16  and  N_50
REMARK   12  A    between atoms: C_18  and  C_19
REMARK                            x       y       z     vdW  Elec       q    Type
REMARK                         _______ _______ _______ _____ _____    ______ ____
ROOT
ATOM      1  N   UNL     1      -2.430   0.977   0.019  0.00  0.00    -0.308 N 
ATOM      2  C   UNL     1      -3.707   1.409   0.027  0.00  0.00    +0.199 C 
ATOM      3  O   UNL     1      -3.945   2.598   0.035  0.00  0.00    -0.278 OA
ATOM      4  H   UNL     1      -2.240   0.026   0.013  0.00  0.00    +0.149 HD
ENDROOT
BRANCH   1   5
ATOM      5  C   UNL     1      -1.330   1.944   0.019  0.00  0.00    +0.200 C 
BRANCH   5   7
ATOM      6  N   UNL     1       1.143   1.898   0.001  0.00  0.00    -0.301 N 
ATOM      7  C   UNL     1      -0.014   1.209   0.009  0.00  0.00    +0.231 C 
ATOM      8  O   UNL     1       0.002  -0.004   0.002  0.00  0.00    -0.274 OA
ATOM      9  H   UNL     1       1.130   2.868   0.007  0.00  0.00    +0.150 HD
BRANCH   6  10
ATOM     10  C   UNL     1       2.422   1.183  -0.015  0.00  0.00    +0.179 C 
ATOM     11  C   UNL     1       2.819   0.817   1.417  0.00  0.00    +0.040 C 
BRANCH  10  12
ATOM     12  C   UNL     1       3.483   2.065  -0.621  0.00  0.00    +0.327 C 
ATOM     13  O   UNL     1       3.201   3.177  -1.000  0.00  0.00    -0.249 OA
BRANCH  12  14
ATOM     14  O   UNL     1       4.742   1.615  -0.739  0.00  0.00    -0.464 OA
BRANCH  14  16
ATOM     15  C   UNL     1       7.081   1.837  -1.382  0.00  0.00    +0.048 C 
ATOM     16  C   UNL     1       5.712   2.519  -1.332  0.00  0.00    +0.229 C 
ENDBRANCH  14  16
ENDBRANCH  12  14
ENDBRANCH  10  12
ENDBRANCH   6  10
ENDBRANCH   5   7
ENDBRANCH   1   5
BRANCH   2  17
ATOM     17  C   UNL     1      -4.839   0.414   0.027  0.00  0.00    +0.017 C 
BRANCH  17  20
ATOM     18  H   UNL     1      -6.827   0.410  -0.507  0.00  0.00    -0.089 HD
ATOM     19  H   UNL     1      -6.315   1.843   0.165  0.00  0.00    -0.089 HD
ATOM     20  N   UNL     1      -6.060   1.079  -0.460  0.00  0.00    +0.386 N 
ATOM     21  H   UNL     1      -5.887   1.458  -1.399  0.00  0.00    -0.089 HD
ENDBRANCH  17  20
BRANCH  17  22
ATOM     22  C   UNL     1      -5.050  -0.118   1.446  0.00  0.00    +0.030 C 
BRANCH  22  23
ATOM     23  C   UNL     1      -6.097  -1.201   1.425  0.00  0.00    -0.023 A 
ATOM     24  C   UNL     1      -7.407  -1.050   1.676  0.00  0.00    +0.087 A 
ATOM     25  N   UNL     1      -8.047  -2.254   1.561  0.00  0.00    -0.360 N 
ATOM     26  H   UNL     1      -8.997  -2.396   1.694  0.00  0.00    +0.165 HD
ATOM     27  C   UNL     1      -7.139  -3.237   1.234  0.00  0.00    +0.047 A 
ATOM     28  C   UNL     1      -5.878  -2.620   1.134  0.00  0.00    +0.003 A 
ATOM     29  C   UNL     1      -4.754  -3.381   0.810  0.00  0.00    +0.010 A 
ATOM     30  C   UNL     1      -4.885  -4.724   0.590  0.00  0.00    +0.001 A 
ATOM     31  C   UNL     1      -6.126  -5.337   0.687  0.00  0.00    +0.002 A 
ATOM     32  C   UNL     1      -7.248  -4.604   1.006  0.00  0.00    +0.026 A 
ENDBRANCH  22  23
ENDBRANCH  17  22
ENDBRANCH   2  17
TORSDOF 10
