REMARK  Name = ZINC03185921
REMARK  6 active torsions:
REMARK  status: ('A' for Active; 'I' for Inactive)
REMARK    1  A    between atoms: C_1  and  C_2
REMARK    2  A    between atoms: C_3  and  S_14
REMARK    3  A    between atoms: C_4  and  N_13
REMARK    4  A    between atoms: N_5  and  C_7
REMARK    5  A    between atoms: S_14  and  C_15
REMARK    6  A    between atoms: C_20  and  N_21
REMARK                            x       y       z     vdW  Elec       q    Type
REMARK                         _______ _______ _______ _____ _____    ______ ____
ROOT
ATOM      1  C   UNL     1      -0.018   1.503   0.010  0.00  0.00    +0.069 C 
ATOM      2  C   UNL     1       0.002  -0.004   0.002  0.00  0.00    +0.076 A 
ATOM      3  C   UNL     1       0.008  -0.817  -1.152  0.00  0.00    +0.075 A 
ATOM      4  C   UNL     1       0.029  -2.222  -0.651  0.00  0.00    +0.134 A 
ATOM      5  N   UNL     1       0.034  -2.117   0.713  0.00  0.00    -0.218 N 
ATOM      6  N   UNL     1       0.023  -0.764   1.057  0.00  0.00    -0.169 NA
ENDROOT
BRANCH   5   7
ATOM      7  C   UNL     1       0.052  -3.190   1.614  0.00  0.00    +0.067 A 
ATOM      8  C   UNL     1      -0.618  -4.367   1.309  0.00  0.00    +0.028 A 
ATOM      9  C   UNL     1      -0.598  -5.422   2.199  0.00  0.00    +0.002 A 
ATOM     10  C   UNL     1       0.089  -5.308   3.394  0.00  0.00    +0.000 A 
ATOM     11  C   UNL     1       0.758  -4.137   3.701  0.00  0.00    +0.002 A 
ATOM     12  C   UNL     1       0.746  -3.080   2.812  0.00  0.00    +0.028 A 
ENDBRANCH   5   7
BRANCH   4  13
ATOM     13  N   UNL     1       0.040  -3.342  -1.379  0.00  0.00    -0.342 N 
ATOM     14  H   UNL     1       0.035  -3.291  -2.347  0.00  0.00    +0.144 HD
ATOM     15  H   UNL     1       0.054  -4.206  -0.938  0.00  0.00    +0.144 HD
ENDBRANCH   4  13
BRANCH   3  16
ATOM     16  S   UNL     1      -0.007  -0.315  -2.735  0.00  0.00    -0.082 S 
BRANCH  16  17
ATOM     17  C   UNL     1       1.699  -0.163  -3.149  0.00  0.00    +0.043 A 
ATOM     18  C   UNL     1       2.683  -0.459  -2.199  0.00  0.00    +0.017 A 
ATOM     19  C   UNL     1       4.014  -0.338  -2.530  0.00  0.00    +0.001 A 
ATOM     20  C   UNL     1       4.381   0.076  -3.801  0.00  0.00    +0.002 A 
ATOM     21  C   UNL     1       3.412   0.371  -4.748  0.00  0.00    +0.034 A 
ATOM     22  C   UNL     1       2.077   0.249  -4.432  0.00  0.00    +0.140 A 
BRANCH  22  23
ATOM     23  N   UNL     1       1.044   0.558  -5.446  0.00  0.00    +0.058 N 
ATOM     24  O   UNL     1       1.401   0.946  -6.653  0.00  0.00    -0.126 OA
ATOM     25  O   UNL     1      -0.233   0.446  -5.142  0.00  0.00    -0.126 OA
ENDBRANCH  22  23
ENDBRANCH  16  17
ENDBRANCH   3  16
TORSDOF 5
