REMARK  Name = ZINC36598633
REMARK  15 active torsions:
REMARK  status: ('A' for Active; 'I' for Inactive)
REMARK    1  A    between atoms: C_1  and  C_2
REMARK    2  A    between atoms: C_5  and  C_7
REMARK    3  A    between atoms: C_7  and  N_8
REMARK    4  A    between atoms: N_8  and  C_9
REMARK    5  A    between atoms: C_9  and  C_11
REMARK    6  A    between atoms: C_9  and  C_21
REMARK    7  A    between atoms: C_13  and  N_18
REMARK    8  A    between atoms: N_23  and  C_24
REMARK    9  A    between atoms: C_24  and  C_25
REMARK   10  A    between atoms: C_24  and  C_26
REMARK   11  A    between atoms: C_24  and  C_27
REMARK   12  A    between atoms: C_28  and  C_30
REMARK   13  A    between atoms: C_30  and  C_31
REMARK   14  A    between atoms: C_31  and  C_33
REMARK   15  A    between atoms: C_31  and  C_34
REMARK                            x       y       z     vdW  Elec       q    Type
REMARK                         _______ _______ _______ _____ _____    ______ ____
ROOT
ATOM      1  N   UNL     1       1.768  -3.620  -1.533  0.00  0.00    -0.279 N 
ATOM      2  C   UNL     1       0.907  -4.400  -2.216  0.00  0.00    +0.217 C 
ATOM      3  O   UNL     1       1.180  -4.766  -3.339  0.00  0.00    -0.276 OA
ENDROOT
BRANCH   1   4
ATOM      4  C   UNL     1       1.437  -3.177  -0.176  0.00  0.00    +0.183 C 
BRANCH   4   9
ATOM      5  C   UNL     1       0.712   1.813  -0.269  0.00  0.00    +0.086 C 
ATOM      6  C   UNL     1       0.434   0.332  -0.278  0.00  0.00    +0.102 A 
ATOM      7  C   UNL     1      -0.781  -0.240  -0.363  0.00  0.00    +0.045 A 
ATOM      8  C   UNL     1      -0.577  -1.639  -0.338  0.00  0.00    +0.046 A 
ATOM      9  C   UNL     1       0.749  -1.838  -0.238  0.00  0.00    +0.122 A 
ATOM     10  O   UNL     1       1.357  -0.641  -0.208  0.00  0.00    -0.463 OA
ENDBRANCH   4   9
ENDBRANCH   1   4
BRANCH   1  11
ATOM     11  C   UNL     1       3.034  -3.214  -2.148  0.00  0.00    +0.194 C 
BRANCH  11  12
ATOM     12  C   UNL     1       3.875  -2.485  -1.132  0.00  0.00    +0.002 A 
ATOM     13  C   UNL     1       3.965  -1.106  -1.169  0.00  0.00    +0.040 A 
ATOM     14  C   UNL     1       4.736  -0.438  -0.238  0.00  0.00    +0.127 A 
ATOM     15  C   UNL     1       5.419  -1.148   0.733  0.00  0.00    +0.034 A 
ATOM     16  C   UNL     1       5.329  -2.526   0.772  0.00  0.00    +0.022 A 
ATOM     17  C   UNL     1       4.552  -3.196  -0.157  0.00  0.00    +0.047 A 
ATOM     18 CL   UNL     1       4.434  -4.927  -0.104  0.00  0.00    -0.083 Cl
BRANCH  14  19
ATOM     19  N   UNL     1       4.833   1.038  -0.279  0.00  0.00    +0.056 N 
ATOM     20  O   UNL     1       4.236   1.660  -1.128  0.00  0.00    -0.126 OA
ATOM     21  O   UNL     1       5.508   1.623   0.536  0.00  0.00    -0.126 OA
ENDBRANCH  14  19
ENDBRANCH  11  12
BRANCH  11  22
ATOM     22  C   UNL     1       2.756  -2.303  -3.316  0.00  0.00    +0.239 C 
ATOM     23  O   UNL     1       1.630  -1.897  -3.514  0.00  0.00    -0.273 OA
ATOM     24  N   UNL     1       3.758  -1.939  -4.140  0.00  0.00    -0.309 N 
ATOM     25  H   UNL     1       4.642  -2.323  -4.028  0.00  0.00    +0.149 HD
BRANCH  24  26
ATOM     26  C   UNL     1       3.513  -0.963  -5.205  0.00  0.00    +0.026 C 
ATOM     27  C   UNL     1       3.043   0.357  -4.589  0.00  0.00    +0.031 C 
ATOM     28  C   UNL     1       4.806  -0.728  -5.989  0.00  0.00    +0.031 C 
ATOM     29  C   UNL     1       2.434  -1.498  -6.149  0.00  0.00    +0.031 C 
ENDBRANCH  24  26
ENDBRANCH  11  22
ENDBRANCH   1  11
BRANCH   2  30
ATOM     30  C   UNL     1      -0.396  -4.818  -1.583  0.00  0.00    +0.104 C 
BRANCH  30  31
ATOM     31  C   UNL     1      -1.181  -5.693  -2.563  0.00  0.00    +0.025 C 
ATOM     32  C   UNL     1      -1.573  -4.863  -3.787  0.00  0.00    +0.013 C 
BRANCH  31  33
ATOM     33  C   UNL     1      -2.425  -6.211  -1.887  0.00  0.00    -0.044 A 
ATOM     34  C   UNL     1      -3.370  -5.325  -1.407  0.00  0.00    +0.004 A 
ATOM     35  C   UNL     1      -4.511  -5.800  -0.788  0.00  0.00    +0.000 A 
ATOM     36  C   UNL     1      -4.706  -7.162  -0.649  0.00  0.00    +0.000 A 
ATOM     37  C   UNL     1      -3.761  -8.048  -1.131  0.00  0.00    +0.000 A 
ATOM     38  C   UNL     1      -2.622  -7.573  -1.754  0.00  0.00    +0.004 A 
ENDBRANCH  31  33
ENDBRANCH  30  31
ENDBRANCH   2  30
TORSDOF 10
