REMARK  Name = ZINC34757260
REMARK  9 active torsions:
REMARK  status: ('A' for Active; 'I' for Inactive)
REMARK    1  A    between atoms: C_1  and  C_2
REMARK    2  A    between atoms: C_2  and  C_3
REMARK    3  A    between atoms: C_3  and  C_4
REMARK    4  A    between atoms: C_4  and  S_5
REMARK    5  A    between atoms: S_5  and  C_6
REMARK    6  A    between atoms: N_21  and  C_24
REMARK    7  A    between atoms: C_24  and  C_25
REMARK    8  A    between atoms: C_25  and  C_26
REMARK    9  A    between atoms: C_25  and  C_27
REMARK                            x       y       z     vdW  Elec       q    Type
REMARK                         _______ _______ _______ _____ _____    ______ ____
ROOT
ATOM      1  C   UNL     1      -3.252  -3.970  -0.392  0.00  0.00    +0.191 A 
ATOM      2  N   UNL     1      -4.263  -4.825  -0.290  0.00  0.00    -0.206 NA
ATOM      3  C   UNL     1      -4.071  -6.127  -0.162  0.00  0.00    +0.134 A 
ATOM      4  C   UNL     1      -2.741  -6.632  -0.132  0.00  0.00    +0.051 A 
ATOM      5  C   UNL     1      -2.297  -8.030   0.001  0.00  0.00    -0.025 A 
ATOM      6  C   UNL     1      -0.973  -8.248   0.003  0.00  0.00    -0.004 A 
ATOM      7  S   UNL     1      -0.238  -6.638  -0.173  0.00  0.00    -0.073 S 
ATOM      8  C   UNL     1      -1.721  -5.671  -0.245  0.00  0.00    +0.115 A 
ATOM      9  N   UNL     1      -1.993  -4.386  -0.375  0.00  0.00    -0.215 NA
ATOM     10  C   UNL     1      -0.637  -9.708   0.149  0.00  0.00    +0.043 C 
ATOM     11  C   UNL     1      -1.938 -10.354   0.674  0.00  0.00    +0.010 C 
ATOM     12  C   UNL     1      -3.007  -9.379   0.143  0.00  0.00    +0.037 C 
ATOM     13  N   UNL     1      -5.149  -6.987  -0.058  0.00  0.00    -0.318 N 
ATOM     14  C   UNL     1      -5.686  -7.371   1.256  0.00  0.00    +0.088 C 
ATOM     15  C   UNL     1      -7.203  -7.151   1.244  0.00  0.00    -0.060 C 
ATOM     16  N   UNL     1      -7.793  -7.877   0.113  0.00  0.00    +0.382 N 
ATOM     17  C   UNL     1      -7.302  -7.315  -1.152  0.00  0.00    -0.060 C 
ATOM     18  C   UNL     1      -5.795  -7.540  -1.259  0.00  0.00    +0.088 C 
ATOM     19  H   UNL     1      -7.537  -8.851   0.169  0.00  0.00    -0.082 HD
ENDROOT
BRANCH   1  20
ATOM     20  S   UNL     1      -3.591  -2.248  -0.559  0.00  0.00    -0.086 S 
BRANCH  20  21
ATOM     21  C   UNL     1      -1.948  -1.487  -0.670  0.00  0.00    +0.077 C 
BRANCH  21  22
ATOM     22  C   UNL     1      -2.097   0.028  -0.821  0.00  0.00    +0.011 C 
BRANCH  22  24
ATOM     23  C   UNL     1      -0.861   2.186  -1.064  0.00  0.00    +0.004 C 
ATOM     24  C   UNL     1      -0.712   0.671  -0.914  0.00  0.00    -0.003 C 
ENDBRANCH  22  24
ENDBRANCH  21  22
ENDBRANCH  20  21
ENDBRANCH   1  20
BRANCH  16  25
ATOM     25  C   UNL     1      -9.256  -7.755   0.165  0.00  0.00    -0.076 C 
BRANCH  25  26
ATOM     26  C   UNL     1      -9.784  -8.476   1.407  0.00  0.00    -0.034 C 
ATOM     27  C   UNL     1     -11.288  -8.233   1.537  0.00  0.00    +0.005 C 
ATOM     28  C   UNL     1      -9.518  -9.977   1.276  0.00  0.00    +0.005 C 
ENDBRANCH  25  26
ENDBRANCH  16  25
TORSDOF 6
