REMARK  Name = ZINC63571596
REMARK  3 active torsions:
REMARK  status: ('A' for Active; 'I' for Inactive)
REMARK    1  A    between atoms: C_1  and  C_2
REMARK    2  A    between atoms: C_5  and  C_8
REMARK    3  A    between atoms: N_25  and  C_26
REMARK                            x       y       z     vdW  Elec       q    Type
REMARK                         _______ _______ _______ _____ _____    ______ ____
ROOT
ATOM      1  C   UNL     1       0.057  -4.272  -0.021  0.00  0.00    +0.134 C 
ATOM      2  C   UNL     1       1.499  -4.775   0.104  0.00  0.00    +0.131 C 
ATOM      3  C   UNL     1       1.941  -4.479   1.531  0.00  0.00    -0.035 C 
ATOM      4  C   UNL     1       3.044  -3.746   1.438  0.00  0.00    -0.001 A 
ATOM      5  C   UNL     1       3.959  -3.217   2.463  0.00  0.00    +0.010 A 
ATOM      6  C   UNL     1       5.007  -2.481   2.009  0.00  0.00    +0.001 A 
ATOM      7  C   UNL     1       5.234  -2.221   0.654  0.00  0.00    +0.002 A 
ATOM      8  C   UNL     1       4.448  -2.670  -0.356  0.00  0.00    +0.026 A 
ATOM      9  C   UNL     1       3.315  -3.461  -0.004  0.00  0.00    +0.043 A 
ATOM     10  N   UNL     1       2.411  -4.039  -0.774  0.00  0.00    -0.375 N 
ATOM     11  C   UNL     1       1.145  -4.921   2.735  0.00  0.00    +0.052 C 
ATOM     12  C   UNL     1      -0.306  -4.462   2.498  0.00  0.00    +0.114 C 
ATOM     13  N   UNL     1      -0.705  -4.792   1.125  0.00  0.00    -0.276 N 
ATOM     14  C   UNL     1      -1.777  -5.580   0.911  0.00  0.00    +0.303 C 
ATOM     15  O   UNL     1      -2.054  -5.937  -0.218  0.00  0.00    -0.253 OA
ATOM     16  N   UNL     1      -2.543  -5.972   1.949  0.00  0.00    -0.294 N 
ATOM     17  H   UNL     1      -2.367  -5.628   2.838  0.00  0.00    +0.151 HD
ATOM     18  H   UNL     1       2.349  -3.988  -1.741  0.00  0.00    +0.160 HD
ENDROOT
BRANCH  16  19
ATOM     19  C   UNL     1      -3.640  -6.918   1.733  0.00  0.00    +0.037 C 
ATOM     20  C   UNL     1      -4.640  -6.322   0.740  0.00  0.00    +0.029 C 
ATOM     21  C   UNL     1      -5.786  -7.310   0.515  0.00  0.00    -0.008 C 
ATOM     22  C   UNL     1      -6.490  -7.586   1.845  0.00  0.00    +0.007 C 
ATOM     23  C   UNL     1      -5.490  -8.183   2.837  0.00  0.00    -0.008 C 
ATOM     24  C   UNL     1      -4.344  -7.194   3.063  0.00  0.00    +0.029 C 
ATOM     25  C   UNL     1      -4.932  -9.491   2.275  0.00  0.00    +0.007 C 
ATOM     26  C   UNL     1      -4.228  -9.215   0.945  0.00  0.00    -0.008 C 
ATOM     27  C   UNL     1      -5.228  -8.619  -0.048  0.00  0.00    +0.007 C 
ATOM     28  C   UNL     1      -3.082  -8.227   1.170  0.00  0.00    +0.029 C 
ENDBRANCH  16  19
BRANCH   1  33
ATOM     29  C   UNL     1      -0.007   1.506   0.046  0.00  0.00    +0.044 C 
ATOM     30  C   UNL     1       0.009  -0.001   0.028  0.00  0.00    -0.050 A 
ATOM     31  C   UNL     1       0.496  -0.699   1.117  0.00  0.00    +0.004 A 
ATOM     32  C   UNL     1       0.511  -2.081   1.101  0.00  0.00    +0.006 A 
ATOM     33  C   UNL     1       0.039  -2.765  -0.003  0.00  0.00    -0.025 A 
ATOM     34  C   UNL     1      -0.448  -2.066  -1.092  0.00  0.00    +0.006 A 
ATOM     35  C   UNL     1      -0.468  -0.684  -1.074  0.00  0.00    +0.004 A 
ENDBRANCH   1  33
TORSDOF 2
