REMARK  Name = ZINC39015901
REMARK  7 active torsions:
REMARK  status: ('A' for Active; 'I' for Inactive)
REMARK    1  A    between atoms: C_4  and  C_7
REMARK    2  A    between atoms: C_12  and  N_13
REMARK    3  A    between atoms: C_14  and  C_16
REMARK    4  A    between atoms: C_16  and  S_17
REMARK    5  A    between atoms: S_17  and  C_18
REMARK    6  A    between atoms: C_21  and  C_25
REMARK    7  A    between atoms: N_23  and  N_24
REMARK                            x       y       z     vdW  Elec       q    Type
REMARK                         _______ _______ _______ _____ _____    ______ ____
ROOT
ATOM      1  S   UNL     1       2.638  -4.995   4.529  0.00  0.00    -0.078 S 
ENDROOT
BRANCH   1   2
ATOM      2  C   UNL     1       1.263  -5.392   5.557  0.00  0.00    +0.189 C 
ATOM      3  N   UNL     1       0.144  -4.750   5.547  0.00  0.00    -0.161 NA
ATOM      4  N   UNL     1      -0.764  -5.288   6.467  0.00  0.00    -0.243 N 
ATOM      5  C   UNL     1      -0.073  -6.416   7.114  0.00  0.00    +0.222 C 
ATOM      6  N   UNL     1       1.252  -6.436   6.470  0.00  0.00    -0.223 N 
ATOM      7  H   UNL     1      -1.667  -4.979   6.643  0.00  0.00    +0.170 HD
BRANCH   5   8
ATOM      8  C   UNL     1       0.058  -6.174   8.619  0.00  0.00    +0.197 C 
ATOM      9  C   UNL     1      -1.307  -6.120   9.274  0.00  0.00    -0.017 C 
ATOM     10  C   UNL     1      -1.388  -4.894   9.788  0.00  0.00    +0.065 C 
ATOM     11  C   UNL     1      -2.727  -4.714  10.481  0.00  0.00    +0.057 C 
ATOM     12  C   UNL     1      -3.615  -5.857   9.944  0.00  0.00    +0.011 C 
ATOM     13  C   UNL     1      -2.559  -6.913   9.546  0.00  0.00    +0.035 C 
ATOM     14  N   UNL     1      -0.245  -4.204   9.523  0.00  0.00    -0.158 NA
ATOM     15  N   UNL     1       0.606  -4.833   8.886  0.00  0.00    -0.176 NA
ENDBRANCH   5   8
BRANCH   6  16
ATOM     16  N   UNL     1       2.270  -7.311   6.723  0.00  0.00    -0.250 NA
ATOM     17  H   UNL     1       3.073  -7.107   6.148  0.00  0.00    +0.141 HD
ATOM     18  H   UNL     1       2.515  -7.306   7.702  0.00  0.00    +0.141 HD
ENDBRANCH   6  16
ENDBRANCH   1   2
BRANCH   1  19
ATOM     19  C   UNL     1       2.070  -3.565   3.569  0.00  0.00    +0.173 C 
BRANCH  19  21
ATOM     20  N   UNL     1       2.968  -2.064   1.819  0.00  0.00    -0.284 N 
ATOM     21  C   UNL     1       3.166  -3.118   2.636  0.00  0.00    +0.227 C 
ATOM     22  O   UNL     1       4.226  -3.707   2.621  0.00  0.00    -0.275 OA
ATOM     23  H   UNL     1       2.146  -1.553   1.877  0.00  0.00    +0.155 HD
BRANCH  20  29
ATOM     24  C   UNL     1       3.577  -1.201  -0.362  0.00  0.00    +0.003 A 
ATOM     25  C   UNL     1       4.562  -0.844  -1.280  0.00  0.00    +0.010 A 
ATOM     26  C   UNL     1       5.894  -0.997  -0.956  0.00  0.00    +0.001 A 
ATOM     27  C   UNL     1       6.258  -1.505   0.279  0.00  0.00    +0.002 A 
ATOM     28  C   UNL     1       5.291  -1.863   1.198  0.00  0.00    +0.024 A 
ATOM     29  C   UNL     1       3.948  -1.708   0.889  0.00  0.00    +0.041 A 
BRANCH  24  33
ATOM     30  C   UNL     1      -0.532  -0.735  -1.346  0.00  0.00    +0.000 A 
ATOM     31  C   UNL     1       0.345   0.317  -1.538  0.00  0.00    +0.001 A 
ATOM     32  C   UNL     1       1.681   0.171  -1.220  0.00  0.00    +0.008 A 
ATOM     33  C   UNL     1       2.144  -1.038  -0.705  0.00  0.00    -0.016 A 
ATOM     34  C   UNL     1       1.255  -2.095  -0.514  0.00  0.00    +0.008 A 
ATOM     35  C   UNL     1      -0.078  -1.938  -0.836  0.00  0.00    +0.001 A 
ENDBRANCH  24  33
ENDBRANCH  20  29
ENDBRANCH  19  21
ENDBRANCH   1  19
TORSDOF 7
