REMARK  Name = ZINC16527354
REMARK  5 active torsions:
REMARK  status: ('A' for Active; 'I' for Inactive)
REMARK    1  A    between atoms: C_1  and  C_2
REMARK    2  A    between atoms: C_7  and  C_13
REMARK    3  A    between atoms: C_22  and  C_24
REMARK    4  A    between atoms: C_24  and  O_26
REMARK    5  A    between atoms: O_26  and  C_27
REMARK                            x       y       z     vdW  Elec       q    Type
REMARK                         _______ _______ _______ _____ _____    ______ ____
ROOT
ATOM      1  C   UNL     1      -4.005  -1.208  -0.542  0.00  0.00    +0.009 C 
ATOM      2  C   UNL     1      -4.752   0.115  -0.731  0.00  0.00    +0.013 C 
ATOM      3  C   UNL     1      -4.282   1.124   0.319  0.00  0.00    +0.055 C 
ATOM      4  C   UNL     1      -2.808   1.391   0.142  0.00  0.00    +0.018 C 
ATOM      5  C   UNL     1      -2.232   1.317  -1.076  0.00  0.00    +0.021 C 
ATOM      6  C   UNL     1      -0.755   1.594  -1.229  0.00  0.00    +0.063 C 
ATOM      7  C   UNL     1      -0.013   1.086   0.008  0.00  0.00    +0.109 C 
ATOM      8  C   UNL     1      -0.721   1.573   1.246  0.00  0.00    +0.218 C 
ATOM      9  O   UNL     1      -0.083   1.842   2.241  0.00  0.00    -0.275 OA
ATOM     10  N   UNL     1      -2.060   1.711   1.246  0.00  0.00    -0.289 N 
ATOM     11  C   UNL     1      -2.979   0.983  -2.219  0.00  0.00    +0.175 C 
ATOM     12  O   UNL     1      -2.428   0.938  -3.301  0.00  0.00    -0.291 OA
ATOM     13  C   UNL     1      -4.450   0.681  -2.123  0.00  0.00    +0.171 C 
ATOM     14  H   UNL     1      -2.503   2.042   2.043  0.00  0.00    +0.155 HD
ENDROOT
BRANCH   6  15
ATOM     15  C   UNL     1      -0.535   3.078  -1.374  0.00  0.00    -0.039 A 
ATOM     16  C   UNL     1      -0.940   3.938  -0.370  0.00  0.00    +0.005 A 
ATOM     17  C   UNL     1      -0.732   5.298  -0.500  0.00  0.00    +0.020 A 
ATOM     18  C   UNL     1      -0.129   5.800  -1.639  0.00  0.00    +0.041 A 
ATOM     19  C   UNL     1       0.271   4.939  -2.646  0.00  0.00    +0.020 A 
ATOM     20  C   UNL     1       0.068   3.579  -2.513  0.00  0.00    +0.005 A 
ATOM     21 CL   UNL     1       0.126   7.509  -1.806  0.00  0.00    -0.084 Cl
ENDBRANCH   6  15
BRANCH  13  22
ATOM     22  C   UNL     1      -4.826  -0.333  -3.172  0.00  0.00    +0.318 C 
ATOM     23  O   UNL     1      -5.297  -1.396  -2.844  0.00  0.00    -0.250 OA
BRANCH  22  24
ATOM     24  O   UNL     1      -4.637  -0.056  -4.472  0.00  0.00    -0.467 OA
ATOM     25  C   UNL     1      -5.022  -1.079  -5.428  0.00  0.00    +0.280 C 
ENDBRANCH  22  24
ENDBRANCH  13  22
TORSDOF 3
