REMARK  Name = ZINC36500458
REMARK  13 active torsions:
REMARK  status: ('A' for Active; 'I' for Inactive)
REMARK    1  A    between atoms: C_1  and  C_2
REMARK    2  A    between atoms: C_2  and  C_3
REMARK    3  A    between atoms: C_2  and  C_4
REMARK    4  A    between atoms: C_2  and  N_5
REMARK    5  A    between atoms: C_6  and  C_8
REMARK    6  A    between atoms: C_8  and  C_10
REMARK    7  A    between atoms: C_8  and  N_17
REMARK    8  A    between atoms: C_14  and  O_16
REMARK    9  A    between atoms: N_17  and  C_18
REMARK   10  A    between atoms: C_18  and  C_19
REMARK   11  A    between atoms: C_24  and  C_26
REMARK   12  A    between atoms: C_27  and  O_33
REMARK   13  A    between atoms: C_31  and  O_32
REMARK                            x       y       z     vdW  Elec       q    Type
REMARK                         _______ _______ _______ _____ _____    ______ ____
ROOT
ATOM      1  N   UNL     1       3.768  -0.362  -2.734  0.00  0.00    -0.274 N 
ATOM      2  C   UNL     1       4.585  -1.008  -3.589  0.00  0.00    +0.255 C 
ATOM      3  O   UNL     1       4.121  -1.776  -4.411  0.00  0.00    -0.270 OA
ENDROOT
BRANCH   2   4
ATOM      4  C   UNL     1       6.039  -0.784  -3.530  0.00  0.00    +0.119 A 
ATOM      5  C   UNL     1       6.845  -1.591  -2.715  0.00  0.00    +0.133 A 
ATOM      6  C   UNL     1       8.212  -1.372  -2.666  0.00  0.00    +0.046 A 
ATOM      7  C   UNL     1       8.782  -0.361  -3.418  0.00  0.00    +0.007 A 
ATOM      8  C   UNL     1       7.997   0.441  -4.224  0.00  0.00    +0.046 A 
ATOM      9  C   UNL     1       6.628   0.235  -4.292  0.00  0.00    +0.133 A 
BRANCH   9  10
ATOM     10  O   UNL     1       5.860   1.020  -5.089  0.00  0.00    -0.506 OA
ATOM     11  H   UNL     1       5.523   1.814  -4.652  0.00  0.00    +0.292 HD
ENDBRANCH   9  10
BRANCH   5  12
ATOM     12  O   UNL     1       6.289  -2.583  -1.976  0.00  0.00    -0.506 OA
ATOM     13  H   UNL     1       6.241  -3.435  -2.432  0.00  0.00    +0.292 HD
ENDBRANCH   5  12
ENDBRANCH   2   4
BRANCH   1  14
ATOM     14  C   UNL     1       2.321  -0.586  -2.793  0.00  0.00    +0.193 C 
BRANCH  14  15
ATOM     15  C   UNL     1       1.746   0.161  -3.969  0.00  0.00    -0.015 A 
ATOM     16  C   UNL     1       2.229   1.414  -4.296  0.00  0.00    +0.006 A 
ATOM     17  C   UNL     1       1.703   2.101  -5.374  0.00  0.00    +0.004 A 
ATOM     18  C   UNL     1       0.692   1.537  -6.128  0.00  0.00    +0.045 A 
ATOM     19  C   UNL     1       0.205   0.280  -5.802  0.00  0.00    +0.117 A 
ATOM     20  C   UNL     1       0.739  -0.411  -4.723  0.00  0.00    +0.051 A 
BRANCH  19  21
ATOM     21  O   UNL     1      -0.789  -0.278  -6.542  0.00  0.00    -0.507 OA
ATOM     22  H   UNL     1      -0.474  -0.809  -7.286  0.00  0.00    +0.292 HD
ENDBRANCH  19  21
ENDBRANCH  14  15
BRANCH  14  24
ATOM     23  N   UNL     1       0.343   0.015  -1.436  0.00  0.00    -0.309 N 
ATOM     24  C   UNL     1       1.683  -0.088  -1.522  0.00  0.00    +0.239 C 
ATOM     25  O   UNL     1       2.377   0.220  -0.575  0.00  0.00    -0.273 OA
ATOM     26  H   UNL     1      -0.212  -0.230  -2.192  0.00  0.00    +0.149 HD
BRANCH  23  28
ATOM     27  C   UNL     1       0.223   1.914   0.102  0.00  0.00    +0.031 C 
ATOM     28  C   UNL     1      -0.277   0.499  -0.200  0.00  0.00    +0.026 C 
ATOM     29  C   UNL     1       0.096  -0.431   0.956  0.00  0.00    +0.031 C 
ATOM     30  C   UNL     1      -1.798   0.521  -0.366  0.00  0.00    +0.031 C 
ENDBRANCH  23  28
ENDBRANCH  14  24
ENDBRANCH   1  14
BRANCH   1  31
ATOM     31  C   UNL     1       4.326   0.562  -1.744  0.00  0.00    +0.183 C 
BRANCH  31  32
ATOM     32  C   UNL     1       4.819  -0.215  -0.551  0.00  0.00    +0.122 A 
ATOM     33  C   UNL     1       6.094  -0.578  -0.320  0.00  0.00    +0.046 A 
ATOM     34  C   UNL     1       6.103  -1.286   0.903  0.00  0.00    +0.041 A 
ATOM     35  C   UNL     1       4.833  -1.315   1.346  0.00  0.00    +0.195 A 
ATOM     36  O   UNL     1       4.061  -0.660   0.464  0.00  0.00    -0.466 OA
ENDBRANCH  31  32
ENDBRANCH   1  31
TORSDOF 10
