REMARK  Name = ZINC05450570
REMARK  3 active torsions:
REMARK  status: ('A' for Active; 'I' for Inactive)
REMARK    1  A    between atoms: C_5  and  C_7
REMARK    2  A    between atoms: C_9  and  C_26
REMARK    3  A    between atoms: C_10  and  N_25
REMARK                            x       y       z     vdW  Elec       q    Type
REMARK                         _______ _______ _______ _____ _____    ______ ____
ROOT
ATOM      1  C   UNL     1       1.237  -2.211  -0.082  0.00  0.00    +0.099 C 
ATOM      2  C   UNL     1       0.546  -2.797  -1.277  0.00  0.00    +0.077 C 
ATOM      3  C   UNL     1      -0.728  -3.258  -1.196  0.00  0.00    +0.109 C 
ATOM      4  N   UNL     1      -1.408  -3.202   0.002  0.00  0.00    -0.229 N 
ATOM      5  C   UNL     1      -0.724  -3.072   1.184  0.00  0.00    +0.027 C 
ATOM      6  C   UNL     1       0.540  -2.603   1.197  0.00  0.00    +0.025 C 
ATOM      7  C   UNL     1       1.247  -2.464   2.405  0.00  0.00    +0.162 C 
ATOM      8  O   UNL     1       2.391  -2.053   2.383  0.00  0.00    -0.292 OA
ATOM      9  C   UNL     1       0.614  -2.813   3.724  0.00  0.00    +0.080 C 
ATOM     10  C   UNL     1      -0.902  -2.614   3.617  0.00  0.00    +0.014 C 
ATOM     11  C   UNL     1      -1.420  -3.470   2.462  0.00  0.00    +0.052 C 
ATOM     12  C   UNL     1      -2.795  -3.278   0.012  0.00  0.00    +0.223 A 
ATOM     13  N   UNL     1      -3.642  -2.295   0.384  0.00  0.00    -0.246 N 
ATOM     14  H   UNL     1      -3.402  -1.407   0.692  0.00  0.00    +0.192 HD
ATOM     15  N   UNL     1      -4.938  -2.814   0.234  0.00  0.00    -0.160 NA
ATOM     16  C   UNL     1      -4.811  -4.038  -0.204  0.00  0.00    +0.246 A 
ATOM     17  N   UNL     1      -3.516  -4.319  -0.344  0.00  0.00    -0.201 NA
ENDROOT
BRANCH   1  22
ATOM     18  C   UNL     1       0.052   1.362  -0.367  0.00  0.00    +0.000 A 
ATOM     19  C   UNL     1       1.251   2.048  -0.420  0.00  0.00    +0.001 A 
ATOM     20  C   UNL     1       2.446   1.356  -0.363  0.00  0.00    +0.020 A 
ATOM     21  C   UNL     1       2.442  -0.023  -0.254  0.00  0.00    +0.045 A 
ATOM     22  C   UNL     1       1.242  -0.709  -0.201  0.00  0.00    -0.016 A 
ATOM     23  C   UNL     1       0.048  -0.016  -0.257  0.00  0.00    +0.006 A 
ATOM     24 CL   UNL     1       3.943  -0.893  -0.183  0.00  0.00    -0.083 Cl
ENDBRANCH   1  22
BRANCH   3  25
ATOM     25  N   UNL     1      -1.341  -3.780  -2.309  0.00  0.00    -0.345 N 
ATOM     26  H   UNL     1      -0.899  -3.738  -3.171  0.00  0.00    +0.144 HD
ATOM     27  H   UNL     1      -2.217  -4.191  -2.233  0.00  0.00    +0.144 HD
ENDBRANCH   3  25
BRANCH   2  28
ATOM     28  C   UNL     1       1.242  -2.870  -2.526  0.00  0.00    +0.099 C 
ATOM     29  N   UNL     1       1.795  -2.928  -3.518  0.00  0.00    -0.191 NA
ENDBRANCH   2  28
TORSDOF 3
