REMARK  Name = ZINC65936158
REMARK  10 active torsions:
REMARK  status: ('A' for Active; 'I' for Inactive)
REMARK    1  A    between atoms: C_1  and  C_2
REMARK    2  A    between atoms: C_2  and  C_3
REMARK    3  A    between atoms: C_2  and  N_19
REMARK    4  A    between atoms: N_5  and  C_6
REMARK    5  A    between atoms: N_5  and  C_11
REMARK    6  A    between atoms: C_6  and  C_7
REMARK    7  A    between atoms: C_7  and  N_8
REMARK    8  A    between atoms: N_8  and  C_9
REMARK    9  A    between atoms: N_8  and  C_10
REMARK   10  A    between atoms: C_11  and  C_12
REMARK                            x       y       z     vdW  Elec       q    Type
REMARK                         _______ _______ _______ _____ _____    ______ ____
ROOT
ATOM      1  C   UNL     1       0.928  -0.317   1.168  0.00  0.00    +0.236 C 
ATOM      2  O   UNL     1       1.966  -0.903   0.944  0.00  0.00    -0.274 OA
ATOM      3  N   UNL     1       0.436  -0.273   2.422  0.00  0.00    -0.297 N 
ENDROOT
BRANCH   1   5
ATOM      4  C   UNL     1       0.358   1.879   0.166  0.00  0.00    +0.038 C 
ATOM      5  C   UNL     1       0.188   0.363   0.045  0.00  0.00    +0.157 C 
BRANCH   5   6
ATOM      6  N   UNL     1       0.730  -0.088  -1.240  0.00  0.00    -0.289 N 
ATOM      7  C   UNL     1      -0.037  -0.044  -2.347  0.00  0.00    +0.298 C 
ATOM      8  O   UNL     1      -1.178   0.370  -2.280  0.00  0.00    -0.253 OA
ATOM      9  N   UNL     1       0.461  -0.459  -3.529  0.00  0.00    -0.313 N 
ATOM     10  H   UNL     1       1.640  -0.419  -1.293  0.00  0.00    +0.151 HD
ATOM     11  H   UNL     1       1.372  -0.789  -3.582  0.00  0.00    +0.146 HD
ATOM     12  H   UNL     1      -0.091  -0.427  -4.326  0.00  0.00    +0.146 HD
ENDBRANCH   5   6
ENDBRANCH   1   5
BRANCH   3  13
ATOM     13  C   UNL     1      -0.860   0.360   2.679  0.00  0.00    +0.089 C 
BRANCH  13  14
ATOM     14  C   UNL     1      -1.958  -0.705   2.681  0.00  0.00    -0.060 C 
BRANCH  14  15
ATOM     15  N   UNL     1      -3.256  -0.069   2.939  0.00  0.00    +0.377 N 
ATOM     16  C   UNL     1      -3.590   0.831   1.827  0.00  0.00    -0.097 C 
ATOM     17  C   UNL     1      -4.293  -1.104   3.059  0.00  0.00    -0.097 C 
ATOM     18  H   UNL     1      -3.208   0.459   3.797  0.00  0.00    -0.083 HD
ENDBRANCH  14  15
ENDBRANCH  13  14
ENDBRANCH   3  13
BRANCH   3  19
ATOM     19  C   UNL     1       1.197  -0.860   3.528  0.00  0.00    +0.142 C 
BRANCH  19  20
ATOM     20  C   UNL     1       2.109   0.183   4.120  0.00  0.00    -0.030 A 
ATOM     21  C   UNL     1       3.389   0.344   3.623  0.00  0.00    +0.006 A 
ATOM     22  C   UNL     1       4.225   1.302   4.165  0.00  0.00    +0.015 A 
ATOM     23  C   UNL     1       3.782   2.099   5.205  0.00  0.00    +0.018 A 
ATOM     24  C   UNL     1       2.501   1.937   5.702  0.00  0.00    +0.015 A 
ATOM     25  C   UNL     1       1.663   0.983   5.156  0.00  0.00    +0.006 A 
ATOM     26 BR   UNL     1       4.927   3.408   5.947  0.00  0.00    -0.050 Br
ENDBRANCH  19  20
ENDBRANCH   3  19
TORSDOF 7
