REMARK  Name = ZINC06627580
REMARK  6 active torsions:
REMARK  status: ('A' for Active; 'I' for Inactive)
REMARK    1  A    between atoms: C_1  and  C_2
REMARK    2  A    between atoms: C_5  and  N_9
REMARK    3  A    between atoms: C_7  and  C_8
REMARK    4  A    between atoms: C_12  and  N_17
REMARK    5  A    between atoms: N_17  and  C_18
REMARK    6  A    between atoms: C_21  and  N_24
REMARK                            x       y       z     vdW  Elec       q    Type
REMARK                         _______ _______ _______ _____ _____    ______ ____
ROOT
ATOM      1  N   UNL     1       1.084   4.641  -0.238  0.00  0.00    -0.199 N 
ATOM      2  C   UNL     1       0.265   3.633  -0.487  0.00  0.00    +0.258 C 
ATOM      3  O   UNL     1      -0.744   3.766  -1.147  0.00  0.00    -0.272 OA
ATOM      4  C   UNL     1       0.675   2.295   0.110  0.00  0.00    +0.226 C 
ATOM      5  S   UNL     1       2.233   2.789   0.949  0.00  0.00    -0.035 S 
ATOM      6  C   UNL     1       2.209   4.516   0.491  0.00  0.00    +0.287 C 
ATOM      7  O   UNL     1       3.019   5.377   0.772  0.00  0.00    -0.262 OA
ENDROOT
BRANCH   1  12
ATOM      8  C   UNL     1      -0.206   9.750  -2.344  0.00  0.00    +0.044 C 
ATOM      9  C   UNL     1       0.136   8.393  -1.785  0.00  0.00    -0.047 A 
ATOM     10  C   UNL     1       0.908   7.517  -2.526  0.00  0.00    +0.005 A 
ATOM     11  C   UNL     1       1.228   6.275  -2.013  0.00  0.00    +0.024 A 
ATOM     12  C   UNL     1       0.765   5.902  -0.758  0.00  0.00    +0.045 A 
ATOM     13  C   UNL     1      -0.009   6.785  -0.018  0.00  0.00    +0.027 A 
ATOM     14  C   UNL     1      -0.322   8.028  -0.533  0.00  0.00    -0.046 A 
ATOM     15  C   UNL     1      -1.162   8.986   0.271  0.00  0.00    +0.044 C 
ENDBRANCH   1  12
BRANCH   4  16
ATOM     16  N   UNL     1      -0.319   1.814   1.073  0.00  0.00    -0.325 N 
ATOM     17  H   UNL     1      -0.719   2.430   1.706  0.00  0.00    +0.148 HD
BRANCH  16  18
ATOM     18  C   UNL     1      -0.695   0.469   1.075  0.00  0.00    +0.028 A 
ATOM     19  C   UNL     1      -1.749   0.042   1.873  0.00  0.00    +0.025 A 
ATOM     20  C   UNL     1      -2.123  -1.288   1.868  0.00  0.00    +0.034 A 
ATOM     21  C   UNL     1      -1.440  -2.196   1.080  0.00  0.00    +0.126 A 
ATOM     22  C   UNL     1      -0.387  -1.776   0.289  0.00  0.00    +0.034 A 
ATOM     23  C   UNL     1      -0.012  -0.447   0.284  0.00  0.00    +0.025 A 
BRANCH  21  24
ATOM     24  N   UNL     1      -1.839  -3.621   1.082  0.00  0.00    +0.056 N 
ATOM     25  O   UNL     1      -1.240  -4.423   0.387  0.00  0.00    -0.126 OA
ATOM     26  O   UNL     1      -2.767  -3.993   1.778  0.00  0.00    -0.126 OA
ENDBRANCH  21  24
ENDBRANCH  16  18
ENDBRANCH   4  16
TORSDOF 4
