REMARK  Name = ZINC39665623
REMARK  9 active torsions:
REMARK  status: ('A' for Active; 'I' for Inactive)
REMARK    1  A    between atoms: C_1  and  C_2
REMARK    2  A    between atoms: C_2  and  C_4
REMARK    3  A    between atoms: C_2  and  O_29
REMARK    4  A    between atoms: C_4  and  N_5
REMARK    5  A    between atoms: C_6  and  C_8
REMARK    6  A    between atoms: C_19  and  C_21
REMARK    7  A    between atoms: O_29  and  C_30
REMARK    8  A    between atoms: C_33  and  O_36
REMARK    9  A    between atoms: O_36  and  C_37
REMARK                            x       y       z     vdW  Elec       q    Type
REMARK                         _______ _______ _______ _____ _____    ______ ____
ROOT
ATOM      1  C   UNL     1       0.909  -3.869  -2.329  0.00  0.00    +0.100 C 
ATOM      2  C   UNL     1       1.525  -4.492  -1.056  0.00  0.00    +0.121 C 
ATOM      3  N   UNL     1       2.187  -5.731  -1.528  0.00  0.00    -0.296 N 
ATOM      4  C   UNL     1       2.791  -5.354  -2.828  0.00  0.00    +0.115 C 
ATOM      5  C   UNL     1       1.744  -4.436  -3.489  0.00  0.00    -0.004 C 
ATOM      6  C   UNL     1       2.436  -3.306  -4.245  0.00  0.00    -0.010 C 
ATOM      7  C   UNL     1       3.212  -3.889  -5.429  0.00  0.00    -0.082 C 
ATOM      8  N   UNL     1       2.288  -4.605  -6.317  0.00  0.00    +0.379 N 
ATOM      9  C   UNL     1       1.697  -5.747  -5.609  0.00  0.00    -0.082 C 
ATOM     10  C   UNL     1       0.857  -5.242  -4.433  0.00  0.00    -0.010 C 
ATOM     11  C   UNL     1       2.229  -6.931  -0.914  0.00  0.00    +0.247 C 
ATOM     12  O   UNL     1       1.589  -7.116   0.103  0.00  0.00    -0.270 OA
ATOM     13  H   UNL     1       1.554  -3.978  -6.613  0.00  0.00    -0.086 HD
ATOM     14  H   UNL     1       2.790  -4.936  -7.127  0.00  0.00    -0.086 HD
ENDROOT
BRANCH  11  15
ATOM     15  C   UNL     1       3.053  -8.021  -1.477  0.00  0.00    +0.040 A 
ATOM     16  C   UNL     1       4.152  -7.723  -2.285  0.00  0.00    +0.033 A 
ATOM     17  C   UNL     1       4.918  -8.745  -2.809  0.00  0.00    +0.043 A 
ATOM     18  C   UNL     1       4.598 -10.064  -2.534  0.00  0.00    +0.040 A 
ATOM     19  C   UNL     1       3.510 -10.366  -1.733  0.00  0.00    +0.043 A 
ATOM     20  C   UNL     1       2.740  -9.352  -1.199  0.00  0.00    +0.033 A 
ATOM     21 CL   UNL     1       3.117 -12.023  -1.395  0.00  0.00    -0.083 Cl
ATOM     22 CL   UNL     1       6.284  -8.376  -3.814  0.00  0.00    -0.083 Cl
ENDBRANCH  11  15
BRANCH   1  24
ATOM     23  N   UNL     1       0.093  -1.603  -2.892  0.00  0.00    -0.312 N 
ATOM     24  C   UNL     1       1.024  -2.367  -2.285  0.00  0.00    +0.218 C 
ATOM     25  O   UNL     1       1.952  -1.846  -1.705  0.00  0.00    -0.275 OA
ATOM     26  H   UNL     1      -0.649  -2.020  -3.356  0.00  0.00    +0.149 HD
BRANCH  23  27
ATOM     27  C   UNL     1       0.204  -0.143  -2.850  0.00  0.00    +0.148 C 
BRANCH  27  29
ATOM     28  C   UNL     1      -0.788   1.998  -3.672  0.00  0.00    +0.053 C 
ATOM     29  C   UNL     1      -0.969   0.480  -3.608  0.00  0.00    +0.187 C 
BRANCH  29  30
ATOM     30  O   UNL     1      -2.190   0.174  -2.932  0.00  0.00    -0.488 OA
BRANCH  30  31
ATOM     31  C   UNL     1      -3.327   0.178  -3.677  0.00  0.00    +0.121 A 
ATOM     32  C   UNL     1      -4.558  -0.006  -3.065  0.00  0.00    +0.049 A 
ATOM     33  C   UNL     1      -5.713  -0.002  -3.823  0.00  0.00    +0.049 A 
ATOM     34  C   UNL     1      -5.642   0.186  -5.195  0.00  0.00    +0.120 A 
ATOM     35  C   UNL     1      -4.411   0.371  -5.807  0.00  0.00    +0.049 A 
ATOM     36  C   UNL     1      -3.256   0.371  -5.049  0.00  0.00    +0.049 A 
BRANCH  34  37
ATOM     37  O   UNL     1      -6.779   0.189  -5.941  0.00  0.00    -0.495 OA
ATOM     38  C   UNL     1      -6.631   0.389  -7.348  0.00  0.00    +0.277 C 
ENDBRANCH  34  37
ENDBRANCH  30  31
ENDBRANCH  29  30
ENDBRANCH  27  29
ENDBRANCH  23  27
ENDBRANCH   1  24
TORSDOF 7
