REMARK  Name = ZINC14461230
REMARK  7 active torsions:
REMARK  status: ('A' for Active; 'I' for Inactive)
REMARK    1  A    between atoms: C_1  and  C_2
REMARK    2  A    between atoms: C_2  and  C_3
REMARK    3  A    between atoms: C_3  and  C_5
REMARK    4  A    between atoms: C_3  and  O_6
REMARK    5  A    between atoms: O_6  and  C_7
REMARK    6  A    between atoms: C_20  and  C_23
REMARK    7  A    between atoms: C_28  and  O_29
REMARK                            x       y       z     vdW  Elec       q    Type
REMARK                         _______ _______ _______ _____ _____    ______ ____
ROOT
ATOM      1  C   UNL     1      -5.266   4.221  -1.969  0.00  0.00    +0.121 A 
ATOM      2  C   UNL     1      -4.571   5.138  -2.744  0.00  0.00    +0.047 A 
ATOM      3  C   UNL     1      -3.203   5.017  -2.884  0.00  0.00    +0.027 A 
ATOM      4  C   UNL     1      -2.527   3.981  -2.253  0.00  0.00    +0.032 A 
ATOM      5  C   UNL     1      -3.215   3.059  -1.479  0.00  0.00    -0.016 A 
ATOM      6  C   UNL     1      -4.590   3.189  -1.342  0.00  0.00    +0.051 A 
ATOM      7  C   UNL     1      -2.529   1.924  -0.788  0.00  0.00    +0.049 C 
ATOM      8  C   UNL     1      -2.401   2.176   0.696  0.00  0.00    -0.023 C 
ATOM      9  C   UNL     1      -1.262   1.696   1.143  0.00  0.00    -0.030 C 
ATOM     10  C   UNL     1      -0.482   1.053   0.012  0.00  0.00    +0.033 C 
ATOM     11  C   UNL     1      -1.077   1.719  -1.264  0.00  0.00    +0.029 C 
ATOM     12  C   UNL     1      -0.388   3.076  -1.431  0.00  0.00    +0.108 C 
ATOM     13  N   UNL     1      -1.138   3.874  -2.406  0.00  0.00    -0.336 N 
ATOM     14  H   UNL     1      -0.683   4.318  -3.139  0.00  0.00    +0.147 HD
ENDROOT
BRANCH  12  15
ATOM     15  C   UNL     1      -0.359   3.795  -0.106  0.00  0.00    +0.015 A 
ATOM     16  C   UNL     1      -1.409   4.616   0.258  0.00  0.00    +0.024 A 
ATOM     17  C   UNL     1      -1.383   5.275   1.473  0.00  0.00    +0.018 A 
ATOM     18  C   UNL     1      -0.306   5.114   2.327  0.00  0.00    +0.019 A 
ATOM     19  C   UNL     1       0.745   4.294   1.967  0.00  0.00    +0.047 A 
ATOM     20  C   UNL     1       0.719   3.627   0.751  0.00  0.00    +0.122 A 
ATOM     21 BR   UNL     1      -2.821   6.398   1.969  0.00  0.00    -0.050 Br
BRANCH  20  22
ATOM     22  O   UNL     1       1.750   2.815   0.397  0.00  0.00    -0.506 OA
ATOM     23  H   UNL     1       2.457   3.265  -0.086  0.00  0.00    +0.292 HD
ENDBRANCH  20  22
ENDBRANCH  12  15
BRANCH   1  24
ATOM     24  O   UNL     1      -6.613   4.336  -1.827  0.00  0.00    -0.489 OA
BRANCH  24  25
ATOM     25  C   UNL     1      -7.263   5.351  -2.595  0.00  0.00    +0.170 C 
ATOM     26  C   UNL     1      -7.189   6.683  -1.846  0.00  0.00    +0.052 C 
BRANCH  25  28
ATOM     27  C   UNL     1      -8.803   3.701  -3.667  0.00  0.00    +0.007 C 
ATOM     28  C   UNL     1      -8.728   4.967  -2.811  0.00  0.00    +0.041 C 
ENDBRANCH  25  28
ENDBRANCH  24  25
ENDBRANCH   1  24
TORSDOF 5
