REMARK  Name = ZINC45581256
REMARK  6 active torsions:
REMARK  status: ('A' for Active; 'I' for Inactive)
REMARK    1  A    between atoms: C_6  and  C_7
REMARK    2  A    between atoms: C_7  and  C_8
REMARK    3  A    between atoms: C_7  and  N_15
REMARK    4  A    between atoms: C_21  and  C_23
REMARK    5  A    between atoms: C_26  and  N_32
REMARK    6  A    between atoms: C_27  and  N_29
REMARK                            x       y       z     vdW  Elec       q    Type
REMARK                         _______ _______ _______ _____ _____    ______ ____
ROOT
ATOM      1  N   UNL     1      -1.735  -2.286   0.538  0.00  0.00    -0.289 NA
ATOM      2  C   UNL     1      -0.587  -3.011  -0.022  0.00  0.00    +0.104 C 
ATOM      3  C   UNL     1      -0.128  -4.081   0.974  0.00  0.00    +0.123 C 
ATOM      4  N   UNL     1      -1.283  -4.920   1.324  0.00  0.00    -0.295 N 
ATOM      5  C   UNL     1      -2.519  -4.255   1.764  0.00  0.00    +0.123 C 
ATOM      6  C   UNL     1      -2.885  -3.179   0.737  0.00  0.00    +0.104 C 
ATOM      7  C   UNL     1      -1.212  -6.264   1.245  0.00  0.00    +0.247 C 
ATOM      8  O   UNL     1      -2.152  -6.945   1.605  0.00  0.00    -0.270 OA
ENDROOT
BRANCH   7   9
ATOM      9  C   UNL     1       0.008  -6.908   0.720  0.00  0.00    +0.039 A 
ATOM     10  C   UNL     1       1.267  -6.471   1.142  0.00  0.00    +0.015 A 
ATOM     11  C   UNL     1       2.403  -7.073   0.651  0.00  0.00    +0.026 A 
ATOM     12  C   UNL     1       2.298  -8.117  -0.264  0.00  0.00    +0.055 A 
ATOM     13  C   UNL     1       1.046  -8.555  -0.686  0.00  0.00    +0.147 A 
ATOM     14  C   UNL     1      -0.094  -7.960  -0.194  0.00  0.00    +0.047 A 
BRANCH  13  15
ATOM     15  N   UNL     1       0.940  -9.664  -1.660  0.00  0.00    +0.058 N 
ATOM     16  O   UNL     1       0.094  -9.632  -2.523  0.00  0.00    -0.126 OA
ATOM     17  O   UNL     1       1.699 -10.603  -1.592  0.00  0.00    -0.126 OA
ENDBRANCH  13  15
BRANCH  12  18
ATOM     18  N   UNL     1       3.448  -8.724  -0.758  0.00  0.00    -0.356 N 
ATOM     19  H   UNL     1       4.315  -8.492  -0.391  0.00  0.00    +0.142 HD
ATOM     20  H   UNL     1       3.382  -9.380  -1.470  0.00  0.00    +0.142 HD
ENDBRANCH  12  18
ENDBRANCH   7   9
BRANCH   1  21
ATOM     21  C   UNL     1      -2.098  -1.141  -0.307  0.00  0.00    +0.117 C 
BRANCH  21  27
ATOM     22  C   UNL     1      -4.247   0.135  -0.457  0.00  0.00    +0.008 A 
ATOM     23  C   UNL     1      -5.291   0.827   0.126  0.00  0.00    +0.038 A 
ATOM     24  C   UNL     1      -5.325   0.998   1.500  0.00  0.00    +0.123 A 
ATOM     25  C   UNL     1      -4.313   0.476   2.287  0.00  0.00    +0.038 A 
ATOM     26  C   UNL     1      -3.270  -0.216   1.701  0.00  0.00    +0.008 A 
ATOM     27  C   UNL     1      -3.236  -0.386   0.330  0.00  0.00    -0.026 A 
ATOM     28  F   UNL     1      -6.346   1.675   2.071  0.00  0.00    -0.205 F 
ENDBRANCH  21  27
BRANCH  21  29
ATOM     29  C   UNL     1      -0.909  -0.227  -0.453  0.00  0.00    -0.026 A 
ATOM     30  C   UNL     1      -0.110   0.047   0.641  0.00  0.00    +0.008 A 
ATOM     31  C   UNL     1       0.981   0.885   0.509  0.00  0.00    +0.038 A 
ATOM     32  C   UNL     1       1.274   1.450  -0.721  0.00  0.00    +0.123 A 
ATOM     33  C   UNL     1       0.473   1.175  -1.816  0.00  0.00    +0.038 A 
ATOM     34  C   UNL     1      -0.614   0.333  -1.683  0.00  0.00    +0.008 A 
ATOM     35  F   UNL     1       2.340   2.269  -0.851  0.00  0.00    -0.205 F 
ENDBRANCH  21  29
ENDBRANCH   1  21
TORSDOF 6
