REMARK  Name = ZINC52993698
REMARK  7 active torsions:
REMARK  status: ('A' for Active; 'I' for Inactive)
REMARK    1  A    between atoms: C_1  and  C_2
REMARK    2  A    between atoms: C_2  and  C_4
REMARK    3  A    between atoms: C_2  and  N_13
REMARK    4  A    between atoms: N_9  and  C_10
REMARK    5  A    between atoms: C_10  and  C_11
REMARK    6  A    between atoms: C_10  and  C_12
REMARK    7  A    between atoms: C_16  and  C_19
REMARK                            x       y       z     vdW  Elec       q    Type
REMARK                         _______ _______ _______ _____ _____    ______ ____
ROOT
ATOM      1  N   UNL     1       0.324  -0.924   1.101  0.00  0.00    +0.387 N 
ATOM      2  C   UNL     1      -0.449  -0.551   2.292  0.00  0.00    -0.077 C 
ATOM      3  C   UNL     1      -0.058  -1.456   3.462  0.00  0.00    -0.006 C 
ATOM      4  C   UNL     1      -0.354  -2.913   3.096  0.00  0.00    +0.072 C 
ATOM      5  C   UNL     1       0.399  -3.268   1.811  0.00  0.00    -0.006 C 
ATOM      6  C   UNL     1      -0.009  -2.297   0.701  0.00  0.00    -0.077 C 
ATOM      7  H   UNL     1       1.309  -0.866   1.310  0.00  0.00    -0.081 HD
ENDROOT
BRANCH   4   8
ATOM      8  C   UNL     1       0.101  -3.816   4.213  0.00  0.00    +0.200 A 
ATOM      9  N   UNL     1       1.323  -3.902   4.648  0.00  0.00    -0.213 NA
ATOM     10  C   UNL     1       1.365  -4.812   5.658  0.00  0.00    +0.111 A 
ATOM     11  C   UNL     1       2.386  -5.300   6.476  0.00  0.00    +0.051 A 
ATOM     12  C   UNL     1       2.099  -6.247   7.434  0.00  0.00    +0.043 A 
ATOM     13  C   UNL     1       0.803  -6.719   7.590  0.00  0.00    +0.024 A 
ATOM     14  C   UNL     1      -0.214  -6.246   6.788  0.00  0.00    +0.050 A 
ATOM     15  C   UNL     1       0.057  -5.292   5.819  0.00  0.00    +0.155 A 
ATOM     16  O   UNL     1      -0.698  -4.643   4.905  0.00  0.00    -0.439 OA
ATOM     17 CL   UNL     1       3.366  -6.856   8.453  0.00  0.00    -0.083 Cl
ENDBRANCH   4   8
BRANCH   1  19
ATOM     18  C   UNL     1       0.361   1.425   0.412  0.00  0.00    -0.004 C 
ATOM     19  C   UNL     1       0.002  -0.004   0.002  0.00  0.00    +0.017 C 
BRANCH  19  20
ATOM     20  C   UNL     1       0.792  -0.388  -1.223  0.00  0.00    +0.207 C 
ATOM     21  O   UNL     1       1.867  -0.935  -1.103  0.00  0.00    -0.277 OA
ATOM     22  N   UNL     1       0.302  -0.124  -2.450  0.00  0.00    -0.242 N 
ATOM     23  C   UNL     1       1.009  -0.468  -3.546  0.00  0.00    +0.306 C 
ATOM     24  O   UNL     1       2.087  -1.016  -3.426  0.00  0.00    -0.252 OA
ATOM     25  N   UNL     1       0.519  -0.203  -4.773  0.00  0.00    -0.297 N 
ATOM     26  H   UNL     1      -0.558   0.314  -2.546  0.00  0.00    +0.159 HD
ATOM     27  H   UNL     1      -0.341   0.234  -4.869  0.00  0.00    +0.151 HD
BRANCH  25  28
ATOM     28  C   UNL     1       1.287  -0.577  -5.964  0.00  0.00    +0.068 C 
ATOM     29  C   UNL     1       0.335  -0.762  -7.147  0.00  0.00    +0.027 C 
ATOM     30  C   UNL     1       2.295   0.527  -6.288  0.00  0.00    +0.027 C 
ENDBRANCH  25  28
ENDBRANCH  19  20
ENDBRANCH   1  19
TORSDOF 4
