REMARK  Name = ZINC11757776
REMARK  9 active torsions:
REMARK  status: ('A' for Active; 'I' for Inactive)
REMARK    1  A    between atoms: C_1  and  C_2
REMARK    2  A    between atoms: C_2  and  O_3
REMARK    3  A    between atoms: O_3  and  C_4
REMARK    4  A    between atoms: C_4  and  C_6
REMARK    5  A    between atoms: N_9  and  C_12
REMARK    6  A    between atoms: C_12  and  C_14
REMARK    7  A    between atoms: C_12  and  C_21
REMARK    8  A    between atoms: C_22  and  O_30
REMARK    9  A    between atoms: C_27  and  C_29
REMARK                            x       y       z     vdW  Elec       q    Type
REMARK                         _______ _______ _______ _____ _____    ______ ____
ROOT
ATOM      1  C   UNL     1       4.369  -4.570  -4.747  0.00  0.00    +0.005 C 
ENDROOT
BRANCH   1   2
ATOM      2  C   UNL     1       5.796  -4.089  -4.699  0.00  0.00    +0.045 A 
ATOM      3  C   UNL     1       6.516  -3.483  -5.651  0.00  0.00    +0.225 A 
ATOM      4  N   UNL     1       7.819  -3.115  -5.415  0.00  0.00    -0.173 N 
ATOM      5  C   UNL     1       8.332  -3.392  -4.185  0.00  0.00    +0.199 A 
ATOM      6  S   UNL     1       6.968  -4.170  -3.354  0.00  0.00    -0.050 S 
ATOM      7  N   UNL     1       9.570  -2.982  -4.125  0.00  0.00    -0.205 NA
ATOM      8  C   UNL     1       9.908  -2.432  -5.289  0.00  0.00    +0.150 A 
ATOM      9  N   UNL     1       8.889  -2.486  -6.103  0.00  0.00    -0.147 NA
ATOM     10  C   UNL     1      11.255  -1.839  -5.616  0.00  0.00    +0.090 C 
BRANCH   3  11
ATOM     11  O   UNL     1       5.953  -3.230  -6.863  0.00  0.00    -0.492 OA
ATOM     12  H   UNL     1       6.545  -2.791  -7.488  0.00  0.00    +0.294 HD
ENDBRANCH   3  11
ENDBRANCH   1   2
BRANCH   1  16
ATOM     13  C   UNL     1       1.468  -2.353  -2.550  0.00  0.00    +0.094 C 
ATOM     14  C   UNL     1       2.921  -1.871  -2.579  0.00  0.00    -0.004 C 
ATOM     15  C   UNL     1       3.640  -2.506  -3.772  0.00  0.00    -0.077 C 
ATOM     16  N   UNL     1       3.611  -3.968  -3.642  0.00  0.00    +0.387 N 
ATOM     17  C   UNL     1       2.223  -4.444  -3.685  0.00  0.00    -0.077 C 
ATOM     18  C   UNL     1       1.450  -3.884  -2.490  0.00  0.00    -0.004 C 
ATOM     19  H   UNL     1       4.030  -4.235  -2.764  0.00  0.00    -0.080 HD
BRANCH  13  20
ATOM     20  C   UNL     1       0.775  -1.794  -1.334  0.00  0.00    +0.310 C 
ATOM     21  O   UNL     1       0.314  -2.540  -0.504  0.00  0.00    -0.251 OA
BRANCH  20  22
ATOM     22  O   UNL     1       0.671  -0.465  -1.174  0.00  0.00    -0.465 OA
BRANCH  22  24
ATOM     23  C   UNL     1      -0.019   1.526   0.010  0.00  0.00    +0.048 C 
ATOM     24  C   UNL     1       0.002  -0.004   0.002  0.00  0.00    +0.229 C 
ENDBRANCH  22  24
ENDBRANCH  20  22
ENDBRANCH  13  20
ENDBRANCH   1  16
BRANCH   1  25
ATOM     25  C   UNL     1       4.340  -6.071  -4.616  0.00  0.00    -0.056 A 
ATOM     26  C   UNL     1       4.454  -6.658  -3.369  0.00  0.00    +0.004 A 
ATOM     27  C   UNL     1       4.428  -8.035  -3.248  0.00  0.00    +0.020 A 
ATOM     28  C   UNL     1       4.288  -8.825  -4.375  0.00  0.00    +0.041 A 
ATOM     29  C   UNL     1       4.174  -8.238  -5.622  0.00  0.00    +0.020 A 
ATOM     30  C   UNL     1       4.194  -6.861  -5.741  0.00  0.00    +0.004 A 
ATOM     31 CL   UNL     1       4.255 -10.555  -4.224  0.00  0.00    -0.084 Cl
ENDBRANCH   1  25
TORSDOF 7
