REMARK  Name = ZINC01845407
REMARK  10 active torsions:
REMARK  status: ('A' for Active; 'I' for Inactive)
REMARK    1  A    between atoms: C_1  and  C_2
REMARK    2  A    between atoms: C_2  and  C_3
REMARK    3  A    between atoms: C_3  and  C_4
REMARK    4  A    between atoms: C_4  and  C_5
REMARK    5  A    between atoms: C_5  and  N_6
REMARK    6  A    between atoms: C_7  and  C_33
REMARK    7  A    between atoms: C_8  and  N_18
REMARK    8  A    between atoms: C_19  and  C_21
REMARK    9  A    between atoms: C_21  and  N_22
REMARK   10  A    between atoms: C_33  and  C_35
REMARK                            x       y       z     vdW  Elec       q    Type
REMARK                         _______ _______ _______ _____ _____    ______ ____
ROOT
ATOM      1  N   UNL     1       0.906   5.137   1.078  0.00  0.00    -0.197 N 
ATOM      2  C   UNL     1       1.968   4.940   0.179  0.00  0.00    +0.120 C 
ATOM      3  C   UNL     1       1.779   4.410  -1.067  0.00  0.00    +0.069 C 
ATOM      4  C   UNL     1       0.474   3.990  -1.593  0.00  0.00    +0.025 A 
ATOM      5  C   UNL     1       0.400   3.160  -2.717  0.00  0.00    +0.012 A 
ATOM      6  C   UNL     1      -0.830   2.771  -3.202  0.00  0.00    +0.001 A 
ATOM      7  C   UNL     1      -1.995   3.198  -2.588  0.00  0.00    +0.002 A 
ATOM      8  C   UNL     1      -1.933   4.015  -1.470  0.00  0.00    +0.029 A 
ATOM      9  C   UNL     1      -0.713   4.410  -0.980  0.00  0.00    +0.118 A 
ATOM     10  S   UNL     1      -0.598   5.459   0.437  0.00  0.00    +0.075 S 
ATOM     11  O   UNL     1      -1.558   4.996   1.376  0.00  0.00    -0.150 OA
ATOM     12  O   UNL     1      -0.570   6.799  -0.037  0.00  0.00    -0.150 OA
ENDROOT
BRANCH   3  13
ATOM     13  N   UNL     1       2.888   4.261  -1.885  0.00  0.00    -0.282 N 
ATOM     14  C   UNL     1       3.296   3.028  -2.248  0.00  0.00    +0.235 C 
ATOM     15  O   UNL     1       2.656   2.054  -1.913  0.00  0.00    -0.274 OA
ATOM     16  H   UNL     1       3.371   5.042  -2.195  0.00  0.00    +0.155 HD
BRANCH  14  17
ATOM     17  C   UNL     1       4.547   2.861  -3.071  0.00  0.00    +0.213 C 
BRANCH  17  18
ATOM     18  N   UNL     1       4.673   1.463  -3.490  0.00  0.00    -0.225 N 
ATOM     19  C   UNL     1       5.309   0.511  -2.785  0.00  0.00    +0.254 C 
ATOM     20  O   UNL     1       5.862   0.671  -1.715  0.00  0.00    -0.270 OA
ATOM     21  C   UNL     1       5.221  -0.764  -3.527  0.00  0.00    +0.049 A 
ATOM     22  C   UNL     1       5.676  -2.052  -3.296  0.00  0.00    +0.014 A 
ATOM     23  C   UNL     1       5.420  -3.049  -4.225  0.00  0.00    +0.001 A 
ATOM     24  C   UNL     1       4.713  -2.766  -5.379  0.00  0.00    +0.001 A 
ATOM     25  C   UNL     1       4.251  -1.482  -5.623  0.00  0.00    +0.014 A 
ATOM     26  C   UNL     1       4.500  -0.476  -4.704  0.00  0.00    +0.049 A 
ATOM     27  C   UNL     1       4.171   0.963  -4.634  0.00  0.00    +0.254 C 
ATOM     28  O   UNL     1       3.552   1.590  -5.470  0.00  0.00    -0.270 OA
ENDBRANCH  17  18
ENDBRANCH  14  17
ENDBRANCH   3  13
BRANCH   2  29
ATOM     29  C   UNL     1       3.277   5.302   0.577  0.00  0.00    +0.210 C 
ATOM     30  O   UNL     1       3.532   6.462   0.849  0.00  0.00    -0.285 OA
BRANCH  29  31
ATOM     31  C   UNL     1       4.336   4.272   0.662  0.00  0.00    +0.024 A 
ATOM     32  C   UNL     1       4.020   2.925   0.477  0.00  0.00    +0.012 A 
ATOM     33  C   UNL     1       5.013   1.971   0.553  0.00  0.00    +0.001 A 
ATOM     34  C   UNL     1       6.317   2.345   0.822  0.00  0.00    +0.000 A 
ATOM     35  C   UNL     1       6.636   3.678   1.011  0.00  0.00    +0.001 A 
ATOM     36  C   UNL     1       5.654   4.643   0.933  0.00  0.00    +0.012 A 
ENDBRANCH  29  31
ENDBRANCH   2  29
BRANCH   1  37
ATOM     37  C   UNL     1       1.114   5.062   2.526  0.00  0.00    +0.132 C 
BRANCH  37  38
ATOM     38  C   UNL     1       1.556   6.430   3.049  0.00  0.00    +0.021 C 
BRANCH  38  39
ATOM     39  C   UNL     1       1.859   6.330   4.546  0.00  0.00    +0.001 C 
BRANCH  39  41
ATOM     40  C   UNL     1       2.604   7.598   6.565  0.00  0.00    +0.004 C 
ATOM     41  C   UNL     1       2.301   7.698   5.069  0.00  0.00    -0.003 C 
ENDBRANCH  39  41
ENDBRANCH  38  39
ENDBRANCH  37  38
ENDBRANCH   1  37
TORSDOF 9
