REMARK  Name = ZINC05017589
REMARK  8 active torsions:
REMARK  status: ('A' for Active; 'I' for Inactive)
REMARK    1  A    between atoms: C_1  and  C_2
REMARK    2  A    between atoms: C_2  and  C_3
REMARK    3  A    between atoms: C_3  and  C_4
REMARK    4  A    between atoms: C_4  and  S_5
REMARK    5  A    between atoms: S_5  and  C_6
REMARK    6  A    between atoms: C_19  and  C_22
REMARK    7  A    between atoms: C_26  and  C_31
REMARK    8  A    between atoms: C_28  and  C_30
REMARK                            x       y       z     vdW  Elec       q    Type
REMARK                         _______ _______ _______ _____ _____    ______ ____
ROOT
ATOM      1  C   UNL     1      -4.138   3.597   6.024  0.00  0.00    +0.212 A 
ATOM      2  N   UNL     1      -3.403   3.018   5.079  0.00  0.00    -0.184 NA
ATOM      3  C   UNL     1      -3.348   3.567   3.877  0.00  0.00    +0.248 A 
ATOM      4  C   UNL     1      -4.071   4.758   3.640  0.00  0.00    +0.156 A 
ATOM      5  N   UNL     1      -4.787   5.281   4.624  0.00  0.00    -0.141 NA
ATOM      6  N   UNL     1      -4.815   4.712   5.780  0.00  0.00    -0.122 NA
ATOM      7  C   UNL     1      -4.009   5.396   2.309  0.00  0.00    +0.028 A 
ATOM      8  C   UNL     1      -5.158   5.817   1.650  0.00  0.00    +0.012 A 
ATOM      9  C   UNL     1      -5.056   6.421   0.412  0.00  0.00    +0.001 A 
ATOM     10  C   UNL     1      -3.818   6.612  -0.175  0.00  0.00    +0.002 A 
ATOM     11  C   UNL     1      -2.667   6.194   0.468  0.00  0.00    +0.023 A 
ATOM     12  C   UNL     1      -2.752   5.581   1.704  0.00  0.00    +0.039 A 
ATOM     13  N   UNL     1      -1.614   5.114   2.365  0.00  0.00    -0.309 N 
ATOM     14  C   UNL     1      -1.418   3.674   2.500  0.00  0.00    +0.266 C 
ATOM     15  O   UNL     1      -2.619   3.011   2.880  0.00  0.00    -0.453 OA
ATOM     16  H   UNL     1      -0.965   5.737   2.728  0.00  0.00    +0.150 HD
ENDROOT
BRANCH  14  17
ATOM     17  C   UNL     1      -0.939   3.108   1.161  0.00  0.00    +0.055 C 
ATOM     18  C   UNL     1      -0.621   1.620   1.316  0.00  0.00    +0.036 C 
ATOM     19  C   UNL     1       0.090   1.113   0.096  0.00  0.00    -0.027 C 
ATOM     20  C   UNL     1       0.662   1.877  -0.779  0.00  0.00    -0.076 C 
ATOM     21  C   UNL     1       0.685   3.375  -0.701  0.00  0.00    +0.034 C 
ATOM     22  C   UNL     1       0.338   3.831   0.718  0.00  0.00    -0.002 C 
ATOM     23  C   UNL     1       1.486   3.480   1.667  0.00  0.00    +0.008 C 
ATOM     24  C   UNL     1       1.347   1.220  -1.950  0.00  0.00    +0.039 C 
ENDBRANCH  14  17
BRANCH   1  25
ATOM     25  S   UNL     1      -4.215   2.870   7.628  0.00  0.00    -0.084 S 
BRANCH  25  26
ATOM     26  C   UNL     1      -5.316   4.046   8.453  0.00  0.00    +0.077 C 
BRANCH  26  27
ATOM     27  C   UNL     1      -5.536   3.608   9.903  0.00  0.00    +0.011 C 
BRANCH  27  29
ATOM     28  C   UNL     1      -6.687   4.164  12.050  0.00  0.00    +0.004 C 
ATOM     29  C   UNL     1      -6.467   4.602  10.600  0.00  0.00    -0.003 C 
ENDBRANCH  27  29
ENDBRANCH  26  27
ENDBRANCH  25  26
ENDBRANCH   1  25
TORSDOF 5
