REMARK  Name = ZINC16000975
REMARK  3 active torsions:
REMARK  status: ('A' for Active; 'I' for Inactive)
REMARK    1  A    between atoms: C_1  and  C_2
REMARK    2  A    between atoms: C_7  and  C_8
REMARK    3  A    between atoms: N_25  and  C_28
REMARK                            x       y       z     vdW  Elec       q    Type
REMARK                         _______ _______ _______ _____ _____    ______ ____
ROOT
ATOM      1  C   UNL     1      -2.192  -3.027   4.130  0.00  0.00    +0.044 C 
ATOM      2  C   UNL     1      -2.030  -1.697   3.440  0.00  0.00    -0.046 A 
ATOM      3  C   UNL     1      -0.763  -1.204   3.188  0.00  0.00    +0.004 A 
ATOM      4  C   UNL     1      -0.613   0.017   2.555  0.00  0.00    +0.005 A 
ATOM      5  C   UNL     1      -1.724   0.738   2.178  0.00  0.00    -0.027 A 
ATOM      6  C   UNL     1      -3.004   0.252   2.427  0.00  0.00    +0.039 A 
ATOM      7  C   UNL     1      -3.146  -0.978   3.065  0.00  0.00    -0.026 A 
ATOM      8  C   UNL     1      -4.521  -1.525   3.346  0.00  0.00    +0.046 C 
ATOM      9  N   UNL     1      -3.962   1.153   1.957  0.00  0.00    -0.286 N 
ATOM     10  C   UNL     1      -3.404   2.241   1.395  0.00  0.00    +0.212 C 
ATOM     11  O   UNL     1      -3.989   3.184   0.905  0.00  0.00    -0.277 OA
ATOM     12  C   UNL     1      -1.913   2.062   1.490  0.00  0.00    +0.053 C 
ATOM     13  C   UNL     1      -1.258   2.068   0.099  0.00  0.00    +0.089 C 
ATOM     14  C   UNL     1      -0.701   3.510  -0.060  0.00  0.00    +0.074 C 
ATOM     15  C   UNL     1      -1.075   4.238   1.243  0.00  0.00    -0.054 C 
ATOM     16  N   UNL     1      -1.286   3.156   2.251  0.00  0.00    +0.395 N 
ATOM     17  C   UNL     1       0.080   2.759   2.668  0.00  0.00    -0.076 C 
ATOM     18  C   UNL     1       0.890   4.071   2.701  0.00  0.00    -0.020 C 
ATOM     19  C   UNL     1       0.143   5.029   1.753  0.00  0.00    -0.016 C 
ATOM     20  C   UNL     1       0.796   3.302  -0.107  0.00  0.00    +0.228 C 
ATOM     21  O   UNL     1       1.622   4.181  -0.227  0.00  0.00    -0.275 OA
ATOM     22  N   UNL     1       1.067   1.996   0.003  0.00  0.00    -0.209 N 
ATOM     23  C   UNL     1      -0.011   1.213   0.125  0.00  0.00    +0.229 C 
ATOM     24  O   UNL     1       0.008   0.006   0.235  0.00  0.00    -0.275 OA
ATOM     25  H   UNL     1      -5.033   0.926   2.071  0.00  0.00    +0.155 HD
ATOM     26  H   UNL     1      -1.900   3.419   3.125  0.00  0.00    -0.079 HD
ENDROOT
BRANCH  22  27
ATOM     27  C   UNL     1       2.375   1.489  -0.009  0.00  0.00    +0.062 A 
ATOM     28  C   UNL     1       3.070   1.332   1.182  0.00  0.00    +0.027 A 
ATOM     29  C   UNL     1       4.358   0.832   1.168  0.00  0.00    +0.022 A 
ATOM     30  C   UNL     1       4.955   0.488  -0.032  0.00  0.00    +0.042 A 
ATOM     31  C   UNL     1       4.265   0.643  -1.221  0.00  0.00    +0.042 A 
ATOM     32  C   UNL     1       2.974   1.138  -1.212  0.00  0.00    +0.064 A 
ATOM     33 CL   UNL     1       2.105   1.327  -2.703  0.00  0.00    -0.082 Cl
ATOM     34 CL   UNL     1       6.573  -0.141  -0.046  0.00  0.00    -0.083 Cl
ENDBRANCH  22  27
TORSDOF 1
