REMARK  Name = ZINC40342017
REMARK  5 active torsions:
REMARK  status: ('A' for Active; 'I' for Inactive)
REMARK    1  A    between atoms: C_6  and  C_7
REMARK    2  A    between atoms: N_15  and  C_27
REMARK    3  A    between atoms: C_16  and  C_18
REMARK    4  A    between atoms: C_21  and  N_24
REMARK    5  A    between atoms: C_27  and  C_28
REMARK                            x       y       z     vdW  Elec       q    Type
REMARK                         _______ _______ _______ _____ _____    ______ ____
ROOT
ATOM      1  C   UNL     1      -1.272  -0.766   0.011  0.00  0.00    +0.099 A 
ATOM      2  C   UNL     1      -1.513  -1.983  -0.636  0.00  0.00    +0.035 A 
ATOM      3  C   UNL     1      -2.825  -2.308  -0.348  0.00  0.00    +0.126 A 
ATOM      4  N   UNL     1      -3.303  -1.299   0.438  0.00  0.00    -0.272 N 
ATOM      5  H   UNL     1      -4.202  -1.251   0.798  0.00  0.00    +0.189 HD
ATOM      6  N   UNL     1      -2.382  -0.423   0.633  0.00  0.00    -0.173 NA
ATOM      7  C   UNL     1      -3.143  -3.583  -1.001  0.00  0.00    +0.266 C 
ATOM      8  O   UNL     1      -4.221  -4.144  -0.941  0.00  0.00    -0.268 OA
ATOM      9  N   UNL     1      -2.074  -4.045  -1.673  0.00  0.00    -0.281 N 
ATOM     10  C   UNL     1      -0.973  -3.088  -1.502  0.00  0.00    +0.142 C 
ENDROOT
BRANCH   1  16
ATOM     11  C   UNL     1      -0.017   1.389   0.010  0.00  0.00    +0.011 A 
ATOM     12  C   UNL     1       1.170   2.093   0.002  0.00  0.00    +0.020 A 
ATOM     13  C   UNL     1       2.378   1.417  -0.013  0.00  0.00    +0.041 A 
ATOM     14  C   UNL     1       2.402   0.033  -0.022  0.00  0.00    +0.020 A 
ATOM     15  C   UNL     1       1.220  -0.680  -0.014  0.00  0.00    +0.011 A 
ATOM     16  C   UNL     1       0.002  -0.004   0.002  0.00  0.00    +0.003 A 
ATOM     17 CL   UNL     1       3.868   2.308  -0.024  0.00  0.00    -0.084 Cl
ENDBRANCH   1  16
BRANCH  10  18
ATOM     18  C   UNL     1       0.194  -3.756  -0.823  0.00  0.00    -0.022 A 
ATOM     19  C   UNL     1      -0.028  -4.702   0.161  0.00  0.00    +0.008 A 
ATOM     20  C   UNL     1       1.043  -5.315   0.784  0.00  0.00    +0.033 A 
ATOM     21  C   UNL     1       2.335  -4.983   0.424  0.00  0.00    +0.126 A 
ATOM     22  C   UNL     1       2.557  -4.038  -0.561  0.00  0.00    +0.033 A 
ATOM     23  C   UNL     1       1.486  -3.428  -1.187  0.00  0.00    +0.008 A 
BRANCH  21  24
ATOM     24  N   UNL     1       3.482  -5.639   1.092  0.00  0.00    +0.056 N 
ATOM     25  O   UNL     1       3.288  -6.466   1.953  0.00  0.00    -0.126 OA
ATOM     26  O   UNL     1       4.612  -5.349   0.776  0.00  0.00    -0.126 OA
ENDBRANCH  21  24
ENDBRANCH  10  18
BRANCH   9  27
ATOM     27  C   UNL     1      -2.017  -5.289  -2.445  0.00  0.00    +0.144 C 
BRANCH  27  28
ATOM     28  C   UNL     1      -2.424  -5.015  -3.870  0.00  0.00    -0.027 A 
ATOM     29  C   UNL     1      -3.752  -5.107  -4.259  0.00  0.00    +0.025 A 
ATOM     30  C   UNL     1      -4.088  -4.849  -5.574  0.00  0.00    +0.111 A 
ATOM     31  N   UNL     1      -3.163  -4.519  -6.455  0.00  0.00    -0.263 NA
ATOM     32  C   UNL     1      -1.891  -4.422  -6.120  0.00  0.00    +0.111 A 
ATOM     33  C   UNL     1      -1.481  -4.660  -4.822  0.00  0.00    +0.025 A 
ENDBRANCH  27  28
ENDBRANCH   9  27
TORSDOF 5
