REMARK  Name = ZINC63996504
REMARK  12 active torsions:
REMARK  status: ('A' for Active; 'I' for Inactive)
REMARK    1  A    between atoms: C_1  and  C_2
REMARK    2  A    between atoms: C_2  and  C_3
REMARK    3  A    between atoms: C_2  and  C_4
REMARK    4  A    between atoms: C_4  and  C_6
REMARK    5  A    between atoms: C_4  and  N_29
REMARK    6  A    between atoms: N_8  and  C_9
REMARK    7  A    between atoms: C_9  and  C_10
REMARK    8  A    between atoms: C_10  and  C_12
REMARK    9  A    between atoms: C_10  and  C_20
REMARK   10  A    between atoms: C_15  and  O_18
REMARK   11  A    between atoms: O_18  and  C_19
REMARK   12  A    between atoms: C_30  and  C_32
REMARK                            x       y       z     vdW  Elec       q    Type
REMARK                         _______ _______ _______ _____ _____    ______ ____
ROOT
ATOM      1  C   UNL     1      -0.094  -4.659  -2.282  0.00  0.00    +0.064 C 
ENDROOT
BRANCH   1   2
ATOM      2  C   UNL     1      -0.889  -4.265  -3.500  0.00  0.00    -0.033 C 
ATOM      3  C   UNL     1      -0.475  -3.484  -4.524  0.00  0.00    -0.000 A 
ATOM      4  C   UNL     1       0.791  -2.795  -4.800  0.00  0.00    +0.010 A 
ATOM      5  C   UNL     1       0.910  -2.071  -5.936  0.00  0.00    +0.001 A 
ATOM      6  C   UNL     1      -0.143  -1.961  -6.854  0.00  0.00    +0.002 A 
ATOM      7  C   UNL     1      -1.337  -2.565  -6.670  0.00  0.00    +0.026 A 
ATOM      8  C   UNL     1      -1.572  -3.353  -5.510  0.00  0.00    +0.043 A 
ATOM      9  N   UNL     1      -2.623  -4.026  -5.110  0.00  0.00    -0.380 N 
ATOM     10  C   UNL     1      -2.310  -4.666  -3.827  0.00  0.00    +0.145 C 
ATOM     11  H   UNL     1      -3.467  -4.093  -5.585  0.00  0.00    +0.160 HD
ENDBRANCH   1   2
BRANCH   1  12
ATOM     12  C   UNL     1       0.035  -6.160  -2.231  0.00  0.00    -0.038 A 
ATOM     13  C   UNL     1      -1.099  -6.948  -2.166  0.00  0.00    +0.008 A 
ATOM     14  C   UNL     1      -0.983  -8.324  -2.119  0.00  0.00    +0.046 A 
ATOM     15  C   UNL     1       0.272  -8.914  -2.137  0.00  0.00    +0.120 A 
ATOM     16  C   UNL     1       1.408  -8.121  -2.203  0.00  0.00    +0.046 A 
ATOM     17  C   UNL     1       1.287  -6.746  -2.255  0.00  0.00    +0.008 A 
BRANCH  15  18
ATOM     18  O   UNL     1       0.389 -10.268  -2.090  0.00  0.00    -0.495 OA
ATOM     19  C   UNL     1       1.712 -10.806  -2.112  0.00  0.00    +0.277 C 
ENDBRANCH  15  18
ENDBRANCH   1  12
BRANCH   1  20
ATOM     20  C   UNL     1      -0.810  -4.166  -1.024  0.00  0.00    +0.116 C 
BRANCH  20  23
ATOM     21  C   UNL     1      -1.413  -2.041   0.005  0.00  0.00    +0.234 C 
ATOM     22  O   UNL     1      -1.921  -2.659   0.916  0.00  0.00    -0.274 OA
ATOM     23  N   UNL     1      -0.830  -2.701  -1.015  0.00  0.00    -0.313 N 
ATOM     24  H   UNL     1      -0.423  -2.206  -1.744  0.00  0.00    +0.149 HD
BRANCH  21  25
ATOM     25  C   UNL     1      -1.433  -0.534   0.013  0.00  0.00    +0.162 C 
BRANCH  25  26
ATOM     26  N   UNL     1      -2.119  -0.061   1.218  0.00  0.00    -0.299 N 
ATOM     27  C   UNL     1      -2.704   1.153   1.228  0.00  0.00    +0.251 C 
ATOM     28  O   UNL     1      -2.663   1.857   0.236  0.00  0.00    -0.270 OA
ATOM     29  H   UNL     1      -2.152  -0.622   2.009  0.00  0.00    +0.150 HD
BRANCH  27  30
ATOM     30  C   UNL     1      -3.390   1.626   2.434  0.00  0.00    +0.074 A 
ATOM     31  C   UNL     1      -4.053   2.824   2.650  0.00  0.00    +0.021 A 
ATOM     32  C   UNL     1      -4.604   2.986   3.898  0.00  0.00    +0.008 A 
ATOM     33  C   UNL     1      -4.469   1.993   4.812  0.00  0.00    +0.046 A 
ATOM     34  S   UNL     1      -3.597   0.806   4.004  0.00  0.00    -0.092 S 
ENDBRANCH  27  30
ENDBRANCH  25  26
BRANCH  25  36
ATOM     35  C   UNL     1      -0.019   1.526   0.010  0.00  0.00    +0.009 C 
ATOM     36  C   UNL     1       0.002  -0.004   0.002  0.00  0.00    +0.012 C 
ATOM     37  C   UNL     1       0.742  -0.511   1.242  0.00  0.00    +0.009 C 
ENDBRANCH  25  36
ENDBRANCH  21  25
ENDBRANCH  20  23
ENDBRANCH   1  20
TORSDOF 9
