REMARK  Name = ZINC23561856
REMARK  6 active torsions:
REMARK  status: ('A' for Active; 'I' for Inactive)
REMARK    1  A    between atoms: C_4  and  N_7
REMARK    2  A    between atoms: C_8  and  C_30
REMARK    3  A    between atoms: C_11  and  S_12
REMARK    4  A    between atoms: S_12  and  C_13
REMARK    5  A    between atoms: C_13  and  C_14
REMARK    6  A    between atoms: N_19  and  C_20
REMARK                            x       y       z     vdW  Elec       q    Type
REMARK                         _______ _______ _______ _____ _____    ______ ____
ROOT
ATOM      1  C   UNL     1      -0.198  -4.074   3.241  0.00  0.00    +0.173 C 
ENDROOT
BRANCH   1   2
ATOM      2  C   UNL     1      -0.812  -3.909   4.608  0.00  0.00    +0.231 C 
ATOM      3  O   UNL     1      -1.024  -2.799   5.047  0.00  0.00    -0.274 OA
ATOM      4  N   UNL     1      -1.126  -4.995   5.341  0.00  0.00    -0.239 N 
ATOM      5  C   UNL     1      -1.675  -4.847   6.563  0.00  0.00    +0.306 C 
ATOM      6  O   UNL     1      -1.887  -3.735   7.003  0.00  0.00    -0.252 OA
ATOM      7  N   UNL     1      -1.989  -5.934   7.296  0.00  0.00    -0.294 N 
ATOM      8  H   UNL     1      -0.934  -6.002   4.943  0.00  0.00    +0.159 HD
ATOM      9  H   UNL     1      -1.797  -6.941   6.898  0.00  0.00    +0.151 HD
BRANCH   7  10
ATOM     10  C   UNL     1      -2.586  -5.773   8.625  0.00  0.00    +0.037 C 
ATOM     11  C   UNL     1      -1.630  -4.985   9.522  0.00  0.00    +0.029 C 
ATOM     12  C   UNL     1      -2.253  -4.817  10.909  0.00  0.00    -0.008 C 
ATOM     13  C   UNL     1      -2.510  -6.195  11.523  0.00  0.00    +0.007 C 
ATOM     14  C   UNL     1      -3.466  -6.983  10.625  0.00  0.00    -0.008 C 
ATOM     15  C   UNL     1      -2.842  -7.151   9.238  0.00  0.00    +0.029 C 
ATOM     16  C   UNL     1      -4.790  -6.226  10.501  0.00  0.00    +0.007 C 
ATOM     17  C   UNL     1      -4.533  -4.848   9.887  0.00  0.00    -0.008 C 
ATOM     18  C   UNL     1      -3.577  -4.060  10.785  0.00  0.00    +0.007 C 
ATOM     19  C   UNL     1      -3.910  -5.016   8.501  0.00  0.00    +0.029 C 
ENDBRANCH   7  10
ENDBRANCH   1   2
BRANCH   1  20
ATOM     20  S   UNL     1       0.106  -2.444   2.515  0.00  0.00    -0.076 S 
BRANCH  20  25
ATOM     21  N   UNL     1       1.237  -2.082  -0.021  0.00  0.00    -0.268 N 
ATOM     22  C   UNL     1       1.704  -2.904  -1.025  0.00  0.00    +0.205 A 
ATOM     23  N   UNL     1       1.536  -4.143  -0.617  0.00  0.00    -0.125 NA
ATOM     24  N   UNL     1       1.004  -4.152   0.553  0.00  0.00    -0.122 NA
ATOM     25  C   UNL     1       0.804  -2.922   0.970  0.00  0.00    +0.197 A 
BRANCH  21  29
ATOM     26  C   UNL     1       1.171   2.086   0.002  0.00  0.00    +0.000 A 
ATOM     27  C   UNL     1      -0.017   1.377   0.010  0.00  0.00    +0.002 A 
ATOM     28  C   UNL     1       0.002  -0.004   0.002  0.00  0.00    +0.026 A 
ATOM     29  C   UNL     1       1.214  -0.680  -0.013  0.00  0.00    +0.051 A 
ATOM     30  C   UNL     1       2.405   0.034  -0.021  0.00  0.00    +0.026 A 
ATOM     31  C   UNL     1       2.380   1.415  -0.013  0.00  0.00    +0.002 A 
ENDBRANCH  21  29
BRANCH  22  32
ATOM     32  C   UNL     1       2.283  -2.476  -2.308  0.00  0.00    +0.172 A 
ATOM     33  C   UNL     1       3.001  -3.258  -3.162  0.00  0.00    +0.053 A 
ATOM     34  C   UNL     1       3.352  -2.445  -4.258  0.00  0.00    +0.042 A 
ATOM     35  C   UNL     1       2.845  -1.219  -4.019  0.00  0.00    +0.196 A 
ATOM     36  O   UNL     1       2.200  -1.241  -2.841  0.00  0.00    -0.460 OA
ENDBRANCH  22  32
ENDBRANCH  20  25
ENDBRANCH   1  20
TORSDOF 6
