REMARK  Name = ZINC66248154
REMARK  3 active torsions:
REMARK  status: ('A' for Active; 'I' for Inactive)
REMARK    1  A    between atoms: C_1  and  N_2
REMARK    2  A    between atoms: N_10  and  S_11
REMARK    3  A    between atoms: S_11  and  C_14
REMARK                            x       y       z     vdW  Elec       q    Type
REMARK                         _______ _______ _______ _____ _____    ______ ____
ROOT
ATOM      1  C   UNL     1      -0.018   1.465   0.010  0.00  0.00    +0.105 C 
ATOM      2  N   UNL     1       0.002  -0.004   0.002  0.00  0.00    -0.300 NA
ATOM      3  C   UNL     1      -1.363  -0.550   0.029  0.00  0.00    +0.090 C 
ATOM      4  C   UNL     1      -1.342  -2.034  -0.341  0.00  0.00    +0.069 C 
ATOM      5  C   UNL     1      -0.319  -2.738   0.549  0.00  0.00    +0.030 A 
ATOM      6  C   UNL     1       0.611  -2.011   1.185  0.00  0.00    +0.026 A 
ATOM      7  S   UNL     1       1.559  -3.212   2.080  0.00  0.00    -0.052 S 
ATOM      8  C   UNL     1       0.654  -4.661   1.555  0.00  0.00    +0.192 A 
ATOM      9  N   UNL     1      -0.299  -4.101   0.737  0.00  0.00    -0.336 N 
ATOM     10  N   UNL     1       0.848  -5.919   1.866  0.00  0.00    -0.103 NA
ATOM     11  C   UNL     1       0.789  -0.528   1.134  0.00  0.00    +0.128 C 
ATOM     12  H   UNL     1      -0.954  -4.664   0.295  0.00  0.00    +0.168 HD
ENDROOT
BRANCH  10  13
ATOM     13  S   UNL     1       2.083  -6.340   2.886  0.00  0.00    +0.107 S 
ATOM     14  O   UNL     1       3.293  -6.036   2.206  0.00  0.00    -0.146 OA
ATOM     15  O   UNL     1       1.764  -5.790   4.157  0.00  0.00    -0.146 OA
BRANCH  13  16
ATOM     16  C   UNL     1       2.034  -8.092   3.069  0.00  0.00    +0.183 A 
ATOM     17  C   UNL     1       1.274  -8.662   4.076  0.00  0.00    +0.156 A 
ATOM     18  C   UNL     1       1.236 -10.038   4.220  0.00  0.00    +0.079 A 
ATOM     19  C   UNL     1       1.957 -10.844   3.356  0.00  0.00    +0.129 A 
ATOM     20  C   UNL     1       2.715 -10.274   2.348  0.00  0.00    +0.079 A 
ATOM     21  C   UNL     1       2.750  -8.898   2.202  0.00  0.00    +0.156 A 
ATOM     22  F   UNL     1       3.487  -8.342   1.215  0.00  0.00    -0.203 F 
ATOM     23  F   UNL     1       1.920 -12.187   3.496  0.00  0.00    -0.205 F 
ATOM     24  F   UNL     1       0.571  -7.875   4.919  0.00  0.00    -0.203 F 
ENDBRANCH  13  16
ENDBRANCH  10  13
TORSDOF 2
