REMARK  Name = ZINC15959626
REMARK  6 active torsions:
REMARK  status: ('A' for Active; 'I' for Inactive)
REMARK    1  A    between atoms: C_1  and  C_2
REMARK    2  A    between atoms: C_5  and  C_8
REMARK    3  A    between atoms: N_26  and  C_29
REMARK    4  A    between atoms: C_32  and  C_35
REMARK    5  A    between atoms: N_37  and  C_38
REMARK    6  A    between atoms: C_38  and  C_39
REMARK                            x       y       z     vdW  Elec       q    Type
REMARK                         _______ _______ _______ _____ _____    ______ ____
ROOT
ATOM      1  C   UNL     1      -2.409   6.640   0.013  0.00  0.00    +0.155 C 
ATOM      2  C   UNL     1      -1.651   5.328   0.056  0.00  0.00    +0.046 A 
ATOM      3  C   UNL     1      -0.304   5.243   0.077  0.00  0.00    -0.015 A 
ATOM      4  C   UNL     1       0.025   3.829   0.101  0.00  0.00    +0.003 A 
ATOM      5  C   UNL     1       1.243   3.143   0.125  0.00  0.00    +0.010 A 
ATOM      6  C   UNL     1       1.181   1.772   0.149  0.00  0.00    +0.001 A 
ATOM      7  C   UNL     1      -0.024   1.089   0.148  0.00  0.00    +0.002 A 
ATOM      8  C   UNL     1      -1.244   1.743   0.118  0.00  0.00    +0.026 A 
ATOM      9  C   UNL     1      -1.212   3.136   0.099  0.00  0.00    +0.047 A 
ATOM     10  N   UNL     1      -2.203   4.075   0.070  0.00  0.00    -0.356 N 
ATOM     11  H   UNL     1      -3.153   3.883   0.062  0.00  0.00    +0.166 HD
ATOM     12  C   UNL     1       0.654   6.407   0.086  0.00  0.00    +0.069 C 
ATOM     13  C   UNL     1      -0.066   7.662  -0.421  0.00  0.00    +0.170 C 
ATOM     14  N   UNL     1      -1.409   7.699   0.198  0.00  0.00    -0.260 N 
ATOM     15  C   UNL     1      -1.486   8.823   0.913  0.00  0.00    +0.317 C 
ATOM     16  O   UNL     1      -2.486   9.185   1.501  0.00  0.00    -0.252 OA
ATOM     17  N   UNL     1      -0.332   9.506   0.907  0.00  0.00    -0.193 N 
ATOM     18  C   UNL     1       0.603   8.897   0.148  0.00  0.00    +0.248 C 
ATOM     19  O   UNL     1       1.743   9.263  -0.039  0.00  0.00    -0.273 OA
ENDROOT
BRANCH   1  24
ATOM     20  C   UNL     1      -5.035   7.249  -5.099  0.00  0.00    +0.044 C 
ATOM     21  C   UNL     1      -4.350   7.089  -3.766  0.00  0.00    -0.050 A 
ATOM     22  C   UNL     1      -2.969   7.069  -3.696  0.00  0.00    +0.004 A 
ATOM     23  C   UNL     1      -2.341   6.924  -2.474  0.00  0.00    +0.006 A 
ATOM     24  C   UNL     1      -3.094   6.798  -1.321  0.00  0.00    -0.021 A 
ATOM     25  C   UNL     1      -4.474   6.813  -1.391  0.00  0.00    +0.006 A 
ATOM     26  C   UNL     1      -5.102   6.963  -2.613  0.00  0.00    +0.004 A 
ENDBRANCH   1  24
BRANCH  17  27
ATOM     27  C   UNL     1      -0.124  10.701   1.601  0.00  0.00    +0.045 A 
ATOM     28  C   UNL     1       1.067  11.400   1.436  0.00  0.00    +0.025 A 
ATOM     29  C   UNL     1       1.273  12.581   2.115  0.00  0.00    +0.015 A 
ATOM     30  C   UNL     1       0.289  13.070   2.978  0.00  0.00    +0.037 A 
ATOM     31  C   UNL     1      -0.903  12.362   3.145  0.00  0.00    +0.015 A 
ATOM     32  C   UNL     1      -1.105  11.185   2.459  0.00  0.00    +0.025 A 
BRANCH  30  33
ATOM     33  C   UNL     1       0.510  14.332   3.711  0.00  0.00    +0.244 C 
ATOM     34  O   UNL     1      -0.347  14.756   4.462  0.00  0.00    -0.270 OA
ATOM     35  N   UNL     1       1.661  15.014   3.549  0.00  0.00    -0.308 N 
ATOM     36  H   UNL     1       2.345  14.675   2.950  0.00  0.00    +0.149 HD
BRANCH  35  37
ATOM     37  C   UNL     1       1.880  16.266   4.277  0.00  0.00    +0.131 C 
BRANCH  37  38
ATOM     38  C   UNL     1       3.234  16.824   3.921  0.00  0.00    -0.016 C 
ATOM     39  C   UNL     1       3.338  18.046   3.462  0.00  0.00    +0.005 C 
ENDBRANCH  37  38
ENDBRANCH  35  37
ENDBRANCH  30  33
ENDBRANCH  17  27
TORSDOF 5
