REMARK  Name = ZINC13131857
REMARK  5 active torsions:
REMARK  status: ('A' for Active; 'I' for Inactive)
REMARK    1  A    between atoms: C_1  and  C_2
REMARK    2  A    between atoms: C_2  and  C_3
REMARK    3  A    between atoms: C_6  and  C_9
REMARK    4  A    between atoms: C_12  and  C_21
REMARK    5  A    between atoms: C_26  and  C_27
REMARK                            x       y       z     vdW  Elec       q    Type
REMARK                         _______ _______ _______ _____ _____    ______ ____
ROOT
ATOM      1  C   UNL     1       3.382  -2.356   4.216  0.00  0.00    +0.106 C 
ATOM      2  C   UNL     1       2.981  -3.812   4.479  0.00  0.00    +0.058 C 
ATOM      3  C   UNL     1       1.459  -3.908   4.640  0.00  0.00    +0.143 C 
ATOM      4  N   UNL     1       1.019  -2.887   5.589  0.00  0.00    -0.224 N 
ATOM      5  C   UNL     1       1.748  -1.796   5.929  0.00  0.00    +0.216 A 
ATOM      6  N   UNL     1       1.061  -1.102   6.797  0.00  0.00    -0.180 NA
ATOM      7  C   UNL     1      -0.108  -1.714   7.034  0.00  0.00    +0.233 A 
ATOM      8  N   UNL     1      -0.172  -2.811   6.313  0.00  0.00    -0.132 NA
ATOM      9  N   UNL     1      -1.098  -1.260   7.907  0.00  0.00    -0.326 N 
ATOM     10  N   UNL     1       3.005  -1.542   5.388  0.00  0.00    -0.307 N 
ATOM     11  H   UNL     1      -0.968  -0.436   8.402  0.00  0.00    +0.145 HD
ATOM     12  H   UNL     1      -1.917  -1.768   8.019  0.00  0.00    +0.145 HD
ATOM     13  H   UNL     1       3.600  -0.871   5.759  0.00  0.00    +0.149 HD
ENDROOT
BRANCH   3  14
ATOM     14  C   UNL     1       1.091  -5.275   5.158  0.00  0.00    -0.020 A 
ATOM     15  C   UNL     1       1.674  -5.755   6.316  0.00  0.00    +0.006 A 
ATOM     16  C   UNL     1       1.337  -7.008   6.792  0.00  0.00    +0.000 A 
ATOM     17  C   UNL     1       0.417  -7.782   6.109  0.00  0.00    +0.000 A 
ATOM     18  C   UNL     1      -0.166  -7.302   4.952  0.00  0.00    +0.004 A 
ATOM     19  C   UNL     1       0.168  -6.046   4.478  0.00  0.00    -0.045 A 
ATOM     20  C   UNL     1      -0.472  -5.521   3.219  0.00  0.00    +0.044 C 
ENDBRANCH   3  14
BRANCH   1  24
ATOM     21  C   UNL     1       1.347  -0.912   0.749  0.00  0.00    -0.048 A 
ATOM     22  C   UNL     1       2.665  -1.321   0.657  0.00  0.00    +0.004 A 
ATOM     23  C   UNL     1       3.323  -1.788   1.779  0.00  0.00    +0.006 A 
ATOM     24  C   UNL     1       2.665  -1.846   2.993  0.00  0.00    -0.027 A 
ATOM     25  C   UNL     1       1.348  -1.436   3.086  0.00  0.00    +0.006 A 
ATOM     26  C   UNL     1       0.691  -0.964   1.964  0.00  0.00    +0.004 A 
BRANCH  21  28
ATOM     27  C   UNL     1       0.830   1.110  -0.590  0.00  0.00    +0.009 C 
ATOM     28  C   UNL     1       0.630  -0.402  -0.474  0.00  0.00    +0.032 C 
ENDBRANCH  21  28
ENDBRANCH   1  24
TORSDOF 3
