REMARK  Name = ZINC63137841
REMARK  7 active torsions:
REMARK  status: ('A' for Active; 'I' for Inactive)
REMARK    1  A    between atoms: C_1  and  O_2
REMARK    2  A    between atoms: O_2  and  C_3
REMARK    3  A    between atoms: C_6  and  C_11
REMARK    4  A    between atoms: C_8  and  O_9
REMARK    5  A    between atoms: O_9  and  C_10
REMARK    6  A    between atoms: N_30  and  C_33
REMARK    7  A    between atoms: C_33  and  C_34
REMARK                            x       y       z     vdW  Elec       q    Type
REMARK                         _______ _______ _______ _____ _____    ______ ____
ROOT
ATOM      1  C   UNL     1      -4.987  -2.627   0.035  0.00  0.00    +0.134 C 
ATOM      2  C   UNL     1      -5.639  -2.518  -1.346  0.00  0.00    +0.131 C 
ATOM      3  C   UNL     1      -6.040  -1.059  -1.528  0.00  0.00    -0.034 C 
ATOM      4  C   UNL     1      -5.463  -0.649  -2.652  0.00  0.00    -0.001 A 
ATOM      5  C   UNL     1      -5.536   0.627  -3.381  0.00  0.00    +0.010 A 
ATOM      6  C   UNL     1      -4.793   0.712  -4.516  0.00  0.00    +0.001 A 
ATOM      7  C   UNL     1      -3.994  -0.332  -4.992  0.00  0.00    +0.002 A 
ATOM      8  C   UNL     1      -3.873  -1.541  -4.389  0.00  0.00    +0.026 A 
ATOM      9  C   UNL     1      -4.611  -1.753  -3.189  0.00  0.00    +0.043 A 
ATOM     10  N   UNL     1      -4.696  -2.825  -2.423  0.00  0.00    -0.375 N 
ATOM     11  C   UNL     1      -6.868  -0.315  -0.509  0.00  0.00    +0.065 C 
ATOM     12  C   UNL     1      -6.203  -0.558   0.859  0.00  0.00    +0.167 C 
ATOM     13  N   UNL     1      -5.888  -1.976   1.012  0.00  0.00    -0.279 N 
ATOM     14  C   UNL     1      -6.382  -2.724   2.005  0.00  0.00    +0.234 C 
ATOM     15  O   UNL     1      -6.075  -3.897   2.032  0.00  0.00    -0.274 OA
ATOM     16  C   UNL     1      -7.284  -2.219   3.081  0.00  0.00    +0.204 C 
ATOM     17  N   UNL     1      -7.568  -0.800   2.939  0.00  0.00    -0.287 N 
ATOM     18  C   UNL     1      -7.090  -0.046   1.946  0.00  0.00    +0.237 C 
ATOM     19  O   UNL     1      -7.393   1.128   1.926  0.00  0.00    -0.274 OA
ATOM     20  H   UNL     1      -4.222  -3.663  -2.540  0.00  0.00    +0.160 HD
ENDROOT
BRANCH   1  24
ATOM     21  C   UNL     1      -1.201  -0.638   0.009  0.00  0.00    +0.162 A 
ATOM     22  C   UNL     1      -2.357   0.062  -0.297  0.00  0.00    +0.050 A 
ATOM     23  C   UNL     1      -3.579  -0.583  -0.288  0.00  0.00    +0.009 A 
ATOM     24  C   UNL     1      -3.652  -1.928   0.026  0.00  0.00    -0.021 A 
ATOM     25  C   UNL     1      -2.502  -2.632   0.332  0.00  0.00    +0.055 A 
ATOM     26  C   UNL     1      -1.274  -1.992   0.319  0.00  0.00    +0.162 A 
BRANCH  21  28
ATOM     27  C   UNL     1       0.000   1.387  -0.328  0.00  0.00    +0.277 C 
ATOM     28  O   UNL     1       0.002  -0.004  -0.001  0.00  0.00    -0.491 OA
ENDBRANCH  21  28
BRANCH  26  29
ATOM     29  O   UNL     1      -0.141  -2.686   0.614  0.00  0.00    -0.491 OA
ATOM     30  C   UNL     1      -0.291  -4.072   0.923  0.00  0.00    +0.277 C 
ENDBRANCH  26  29
ENDBRANCH   1  24
BRANCH  17  31
ATOM     31  C   UNL     1      -8.427  -0.163   3.940  0.00  0.00    +0.143 C 
BRANCH  31  32
ATOM     32  C   UNL     1      -7.579   0.363   5.069  0.00  0.00    -0.030 A 
ATOM     33  C   UNL     1      -7.297  -0.444   6.155  0.00  0.00    +0.006 A 
ATOM     34  C   UNL     1      -6.519   0.037   7.191  0.00  0.00    +0.020 A 
ATOM     35  C   UNL     1      -6.022   1.327   7.141  0.00  0.00    +0.041 A 
ATOM     36  C   UNL     1      -6.305   2.135   6.054  0.00  0.00    +0.020 A 
ATOM     37  C   UNL     1      -7.078   1.651   5.016  0.00  0.00    +0.006 A 
ATOM     38 CL   UNL     1      -5.045   1.933   8.442  0.00  0.00    -0.084 Cl
ENDBRANCH  31  32
ENDBRANCH  17  31
TORSDOF 5
