REMARK  Name = ZINC11935955
REMARK  7 active torsions:
REMARK  status: ('A' for Active; 'I' for Inactive)
REMARK    1  A    between atoms: C_1  and  N_2
REMARK    2  A    between atoms: N_2  and  C_3
REMARK    3  A    between atoms: C_3  and  C_4
REMARK    4  A    between atoms: C_14  and  C_16
REMARK    5  A    between atoms: C_16  and  C_17
REMARK    6  A    between atoms: C_24  and  C_25
REMARK    7  A    between atoms: C_24  and  N_58
REMARK                            x       y       z     vdW  Elec       q    Type
REMARK                         _______ _______ _______ _____ _____    ______ ____
ROOT
ATOM      1  C   UNL     1      -5.320   1.258   0.767  0.00  0.00    +0.090 C 
ENDROOT
BRANCH   1   2
ATOM      2  C   UNL     1      -4.338   0.247   1.363  0.00  0.00    +0.028 C 
ATOM      3  C   UNL     1      -2.932   0.727   1.141  0.00  0.00    +0.200 C 
ATOM      4  O   UNL     1      -2.683   1.901   1.320  0.00  0.00    -0.278 OA
ATOM      5  N   UNL     1      -1.943  -0.085   0.753  0.00  0.00    -0.318 N 
ATOM      6  C   UNL     1      -2.144  -1.504   0.475  0.00  0.00    +0.085 C 
ATOM      7  C   UNL     1      -3.453  -1.982   1.108  0.00  0.00    -0.058 C 
ATOM      8  H   UNL     1      -1.052   0.285   0.651  0.00  0.00    +0.149 HD
ATOM      9  N   UNL     1      -4.525  -1.054   0.694  0.00  0.00    +0.391 N 
ATOM     10  H   UNL     1      -4.479  -0.919  -0.322  0.00  0.00    -0.080 HD
BRANCH   9  11
ATOM     11  C   UNL     1      -5.849  -1.618   1.045  0.00  0.00    -0.042 C 
BRANCH  11  12
ATOM     12  C   UNL     1      -6.173  -2.735   0.087  0.00  0.00    -0.064 A 
ATOM     13  C   UNL     1      -5.803  -4.033   0.388  0.00  0.00    +0.002 A 
ATOM     14  C   UNL     1      -6.105  -5.058  -0.489  0.00  0.00    +0.000 A 
ATOM     15  C   UNL     1      -6.772  -4.785  -1.669  0.00  0.00    +0.000 A 
ATOM     16  C   UNL     1      -7.137  -3.487  -1.972  0.00  0.00    +0.000 A 
ATOM     17  C   UNL     1      -6.835  -2.461  -1.095  0.00  0.00    +0.002 A 
ENDBRANCH  11  12
ENDBRANCH   9  11
ENDBRANCH   1   2
BRANCH   1  20
ATOM     18  C   UNL     1      -6.739   3.158  -0.785  0.00  0.00    +0.132 C 
ATOM     19  N   UNL     1      -5.778   2.270  -1.443  0.00  0.00    -0.299 N 
ATOM     20  C   UNL     1      -5.094   1.361  -0.720  0.00  0.00    +0.215 C 
ATOM     21  O   UNL     1      -4.298   0.626  -1.265  0.00  0.00    -0.276 OA
BRANCH  19  22
ATOM     22  C   UNL     1      -5.559   2.370  -2.888  0.00  0.00    +0.164 C 
BRANCH  22  23
ATOM     23  C   UNL     1      -6.514   1.453  -3.606  0.00  0.00    +0.083 A 
ATOM     24  C   UNL     1      -7.790   1.788  -4.053  0.00  0.00    -0.002 A 
ATOM     25  C   UNL     1      -8.329   0.692  -4.646  0.00  0.00    +0.040 A 
ATOM     26  N   UNL     1      -7.424  -0.299  -4.578  0.00  0.00    -0.281 N 
ATOM     27  H   UNL     1      -7.540  -1.227  -4.930  0.00  0.00    +0.189 HD
ATOM     28  N   UNL     1      -6.288   0.202  -3.924  0.00  0.00    -0.177 NA
ATOM     29  C   UNL     1      -9.707   0.652  -5.257  0.00  0.00    +0.055 C 
ATOM     30  C   UNL     1     -10.503   1.855  -4.736  0.00  0.00    +0.006 C 
ATOM     31  C   UNL     1      -9.675   3.130  -4.910  0.00  0.00    +0.005 C 
ATOM     32  C   UNL     1      -8.497   3.115  -3.928  0.00  0.00    +0.039 C 
ENDBRANCH  22  23
ENDBRANCH  19  22
ENDBRANCH   1  20
TORSDOF 6
