REMARK  Name = ZINC14470911
REMARK  7 active torsions:
REMARK  status: ('A' for Active; 'I' for Inactive)
REMARK    1  A    between atoms: C_1  and  C_2
REMARK    2  A    between atoms: C_2  and  C_3
REMARK    3  A    between atoms: C_3  and  N_4
REMARK    4  A    between atoms: N_4  and  S_5
REMARK    5  A    between atoms: S_5  and  C_8
REMARK    6  A    between atoms: C_21  and  C_24
REMARK    7  A    between atoms: C_28  and  N_30
REMARK                            x       y       z     vdW  Elec       q    Type
REMARK                         _______ _______ _______ _____ _____    ______ ____
ROOT
ATOM      1  C   UNL     1       4.131   0.313  -2.234  0.00  0.00    +0.106 A 
ATOM      2  C   UNL     1       3.413   0.076  -3.392  0.00  0.00    +0.030 A 
ATOM      3  C   UNL     1       2.061   0.351  -3.438  0.00  0.00    +0.025 A 
ATOM      4  C   UNL     1       1.412   0.866  -2.322  0.00  0.00    +0.031 A 
ATOM      5  C   UNL     1       2.148   1.116  -1.158  0.00  0.00    -0.018 A 
ATOM      6  C   UNL     1       3.496   0.832  -1.121  0.00  0.00    +0.034 A 
ATOM      7  C   UNL     1       1.425   1.687  -0.003  0.00  0.00    +0.049 C 
ATOM      8  C   UNL     1       1.888   1.486   1.394  0.00  0.00    -0.023 C 
ATOM      9  C   UNL     1       0.829   1.474   2.195  0.00  0.00    -0.030 C 
ATOM     10  C   UNL     1      -0.450   1.636   1.372  0.00  0.00    +0.033 C 
ATOM     11  C   UNL     1      -0.013   1.086   0.008  0.00  0.00    +0.029 C 
ATOM     12  C   UNL     1      -0.692   1.638  -1.233  0.00  0.00    +0.105 C 
ATOM     13  N   UNL     1       0.033   1.102  -2.380  0.00  0.00    -0.336 N 
ATOM     14  H   UNL     1      -0.451   0.899  -3.196  0.00  0.00    +0.147 HD
ENDROOT
BRANCH  12  15
ATOM     15  C   UNL     1      -2.134   1.203  -1.274  0.00  0.00    -0.025 A 
ATOM     16  C   UNL     1      -2.460  -0.067  -1.715  0.00  0.00    +0.007 A 
ATOM     17  C   UNL     1      -3.782  -0.467  -1.753  0.00  0.00    +0.022 A 
ATOM     18  C   UNL     1      -4.780   0.404  -1.351  0.00  0.00    +0.071 A 
ATOM     19  C   UNL     1      -4.453   1.674  -0.911  0.00  0.00    +0.145 A 
ATOM     20  C   UNL     1      -3.129   2.071  -0.868  0.00  0.00    +0.039 A 
ATOM     21 CL   UNL     1      -6.441  -0.098  -1.399  0.00  0.00    -0.081 Cl
BRANCH  19  22
ATOM     22  N   UNL     1      -5.519   2.605  -0.480  0.00  0.00    +0.058 N 
ATOM     23  O   UNL     1      -5.232   3.723  -0.093  0.00  0.00    -0.126 OA
ATOM     24  O   UNL     1      -6.685   2.253  -0.514  0.00  0.00    -0.126 OA
ENDBRANCH  19  22
ENDBRANCH  12  15
BRANCH   1  25
ATOM     25  S   UNL     1       5.855  -0.048  -2.178  0.00  0.00    +0.058 S 
ATOM     26  O   UNL     1       6.321  -0.014  -3.520  0.00  0.00    -0.153 OA
ATOM     27  O   UNL     1       6.408   0.773  -1.158  0.00  0.00    -0.153 OA
BRANCH  25  28
ATOM     28  N   UNL     1       6.011  -1.613  -1.662  0.00  0.00    -0.190 NA
ATOM     29  H   UNL     1       6.437  -1.804  -0.811  0.00  0.00    +0.148 HD
BRANCH  28  30
ATOM     30  C   UNL     1       5.507  -2.711  -2.490  0.00  0.00    +0.105 C 
BRANCH  30  32
ATOM     31  C   UNL     1       5.564  -5.182  -2.859  0.00  0.00    +0.005 C 
ATOM     32  C   UNL     1       6.091  -4.035  -1.994  0.00  0.00    +0.013 C 
ENDBRANCH  30  32
ENDBRANCH  28  30
ENDBRANCH  25  28
ENDBRANCH   1  25
TORSDOF 6
