REMARK  Name = ZINC58846896
REMARK  7 active torsions:
REMARK  status: ('A' for Active; 'I' for Inactive)
REMARK    1  A    between atoms: C_1  and  C_2
REMARK    2  A    between atoms: C_5  and  C_40
REMARK    3  A    between atoms: C_6  and  C_8
REMARK    4  A    between atoms: C_19  and  S_24
REMARK    5  A    between atoms: S_24  and  N_27
REMARK    6  A    between atoms: N_27  and  C_28
REMARK    7  A    between atoms: C_31  and  C_34
REMARK                            x       y       z     vdW  Elec       q    Type
REMARK                         _______ _______ _______ _____ _____    ______ ____
ROOT
ATOM      1  C   UNL     1       4.195  -3.438   4.195  0.00  0.00    +0.105 C 
ATOM      2  C   UNL     1       2.854  -3.526   3.531  0.00  0.00    +0.029 C 
ATOM      3  C   UNL     1       2.486  -2.230   2.781  0.00  0.00    +0.033 C 
ATOM      4  C   UNL     1       0.972  -2.214   2.808  0.00  0.00    -0.030 C 
ATOM      5  C   UNL     1       0.513  -3.026   3.723  0.00  0.00    -0.023 C 
ATOM      6  C   UNL     1       1.654  -3.680   4.462  0.00  0.00    +0.049 C 
ATOM      7  C   UNL     1       1.828  -2.966   5.773  0.00  0.00    -0.018 A 
ATOM      8  C   UNL     1       0.709  -2.772   6.570  0.00  0.00    +0.034 A 
ATOM      9  C   UNL     1       0.816  -2.112   7.778  0.00  0.00    +0.109 A 
ATOM     10  C   UNL     1       2.043  -1.637   8.203  0.00  0.00    +0.030 A 
ATOM     11  C   UNL     1       3.162  -1.828   7.419  0.00  0.00    +0.025 A 
ATOM     12  C   UNL     1       3.057  -2.499   6.203  0.00  0.00    +0.031 A 
ATOM     13  N   UNL     1       4.196  -2.723   5.454  0.00  0.00    -0.336 N 
ATOM     14  H   UNL     1       5.033  -2.357   5.780  0.00  0.00    +0.147 HD
ENDROOT
BRANCH   1  20
ATOM     15  C   UNL     1       6.715   0.657   2.810  0.00  0.00    +0.044 C 
ATOM     16  C   UNL     1       6.354  -0.789   2.591  0.00  0.00    -0.050 A 
ATOM     17  C   UNL     1       6.899  -1.484   1.527  0.00  0.00    +0.003 A 
ATOM     18  C   UNL     1       6.567  -2.811   1.326  0.00  0.00    +0.004 A 
ATOM     19  C   UNL     1       5.693  -3.443   2.190  0.00  0.00    -0.045 A 
ATOM     20  C   UNL     1       5.149  -2.749   3.254  0.00  0.00    -0.024 A 
ATOM     21  C   UNL     1       5.484  -1.423   3.458  0.00  0.00    +0.009 A 
ATOM     22  C   UNL     1       5.331  -4.890   1.970  0.00  0.00    +0.044 C 
ENDBRANCH   1  20
BRANCH   9  23
ATOM     23  S   UNL     1      -0.614  -1.875   8.780  0.00  0.00    +0.072 S 
ATOM     24  O   UNL     1      -0.400  -0.678   9.515  0.00  0.00    -0.150 OA
ATOM     25  O   UNL     1      -1.739  -2.057   7.931  0.00  0.00    -0.150 OA
BRANCH  23  26
ATOM     26  N   UNL     1      -0.649  -3.109   9.883  0.00  0.00    -0.216 N 
ATOM     27  H   UNL     1      -0.569  -2.915  10.831  0.00  0.00    +0.174 HD
BRANCH  26  28
ATOM     28  C   UNL     1      -0.794  -4.428   9.451  0.00  0.00    +0.048 A 
ATOM     29  C   UNL     1      -2.033  -4.883   9.015  0.00  0.00    +0.025 A 
ATOM     30  C   UNL     1      -2.179  -6.186   8.587  0.00  0.00    +0.010 A 
ATOM     31  C   UNL     1      -1.082  -7.046   8.592  0.00  0.00    -0.018 A 
ATOM     32  C   UNL     1       0.160  -6.588   9.029  0.00  0.00    +0.010 A 
ATOM     33  C   UNL     1       0.302  -5.283   9.451  0.00  0.00    +0.025 A 
BRANCH  31  34
ATOM     34  C   UNL     1      -1.236  -8.448   8.133  0.00  0.00    -0.018 A 
ATOM     35  C   UNL     1      -2.476  -8.907   7.690  0.00  0.00    +0.008 A 
ATOM     36  C   UNL     1      -2.613 -10.212   7.264  0.00  0.00    +0.001 A 
ATOM     37  C   UNL     1      -1.524 -11.065   7.275  0.00  0.00    +0.000 A 
ATOM     38  C   UNL     1      -0.292 -10.615   7.714  0.00  0.00    +0.001 A 
ATOM     39  C   UNL     1      -0.141  -9.310   8.137  0.00  0.00    +0.008 A 
ENDBRANCH  31  34
ENDBRANCH  26  28
ENDBRANCH  23  26
ENDBRANCH   9  23
TORSDOF 5
