REMARK  Name = ZINC39656093
REMARK  9 active torsions:
REMARK  status: ('A' for Active; 'I' for Inactive)
REMARK    1  A    between atoms: C_1  and  C_2
REMARK    2  A    between atoms: C_8  and  C_11
REMARK    3  A    between atoms: C_11  and  C_12
REMARK    4  A    between atoms: C_12  and  N_13
REMARK    5  A    between atoms: C_14  and  C_16
REMARK    6  A    between atoms: C_27  and  C_29
REMARK    7  A    between atoms: C_30  and  C_41
REMARK    8  A    between atoms: C_33  and  C_35
REMARK    9  A    between atoms: C_37  and  C_40
REMARK                            x       y       z     vdW  Elec       q    Type
REMARK                         _______ _______ _______ _____ _____    ______ ____
ROOT
ATOM      1  C   UNL     1       5.002  -0.353  -7.405  0.00  0.00    +0.100 C 
ATOM      2  C   UNL     1       4.945   0.565  -8.647  0.00  0.00    +0.121 C 
ATOM      3  N   UNL     1       5.733  -0.151  -9.678  0.00  0.00    -0.296 N 
ATOM      4  C   UNL     1       5.374  -1.577  -9.492  0.00  0.00    +0.115 C 
ATOM      5  C   UNL     1       5.282  -1.758  -7.964  0.00  0.00    -0.004 C 
ATOM      6  C   UNL     1       4.139  -2.704  -7.612  0.00  0.00    -0.010 C 
ATOM      7  C   UNL     1       4.468  -4.108  -8.128  0.00  0.00    -0.082 C 
ATOM      8  N   UNL     1       5.721  -4.574  -7.520  0.00  0.00    +0.379 N 
ATOM      9  C   UNL     1       6.832  -3.711  -7.939  0.00  0.00    -0.082 C 
ATOM     10  C   UNL     1       6.603  -2.290  -7.415  0.00  0.00    -0.010 C 
ATOM     11  C   UNL     1       6.586   0.376 -10.579  0.00  0.00    +0.247 C 
ATOM     12  O   UNL     1       7.092  -0.337 -11.427  0.00  0.00    -0.270 OA
ATOM     13  H   UNL     1       5.636  -4.546  -6.515  0.00  0.00    -0.086 HD
ATOM     14  H   UNL     1       5.904  -5.522  -7.814  0.00  0.00    -0.086 HD
ENDROOT
BRANCH  11  15
ATOM     15  C   UNL     1       6.892   1.756 -10.541  0.00  0.00    +0.072 C 
ATOM     16  C   UNL     1       7.732   2.366  -9.683  0.00  0.00    +0.047 C 
ATOM     17  N   UNL     1       7.792   3.702  -9.928  0.00  0.00    -0.269 N 
ATOM     18  O   UNL     1       6.951   4.045 -11.013  0.00  0.00    -0.260 OA
ATOM     19  C   UNL     1       6.342   2.824 -11.459  0.00  0.00    +0.237 C 
ATOM     20  C   UNL     1       8.502   1.661  -8.596  0.00  0.00    +0.066 C 
ATOM     21  H   UNL     1       8.336   4.332  -9.428  0.00  0.00    +0.194 HD
BRANCH  19  22
ATOM     22  C   UNL     1       4.843   2.910 -11.325  0.00  0.00    +0.120 A 
ATOM     23  C   UNL     1       4.110   4.056 -10.970  0.00  0.00    +0.073 A 
ATOM     24  C   UNL     1       2.803   3.731 -10.958  0.00  0.00    +0.135 A 
ATOM     25  O   UNL     1       2.695   2.435 -11.290  0.00  0.00    -0.360 OA
ATOM     26  N   UNL     1       4.000   1.937 -11.523  0.00  0.00    -0.080 NA
ATOM     27  C   UNL     1       1.662   4.659 -10.629  0.00  0.00    +0.089 C 
ENDBRANCH  19  22
ENDBRANCH  11  15
BRANCH   1  29
ATOM     28  N   UNL     1       3.627  -0.670  -5.373  0.00  0.00    -0.315 N 
ATOM     29  C   UNL     1       3.683  -0.332  -6.676  0.00  0.00    +0.218 C 
ATOM     30  O   UNL     1       2.671  -0.010  -7.263  0.00  0.00    -0.275 OA
ATOM     31  H   UNL     1       4.437  -0.928  -4.904  0.00  0.00    +0.149 HD
BRANCH  28  32
ATOM     32  C   UNL     1       2.345  -0.650  -4.665  0.00  0.00    +0.109 C 
BRANCH  32  33
ATOM     33  C   UNL     1       2.559  -1.073  -3.210  0.00  0.00    +0.056 C 
BRANCH  33  41
ATOM     34  C   UNL     1      -0.988  -5.568  -3.383  0.00  0.00    +0.044 C 
ATOM     35  C   UNL     1      -0.915  -4.190  -2.777  0.00  0.00    -0.050 A 
ATOM     36  C   UNL     1      -1.961  -3.728  -1.991  0.00  0.00    +0.005 A 
ATOM     37  C   UNL     1      -1.915  -2.472  -1.427  0.00  0.00    +0.026 A 
ATOM     38  C   UNL     1      -0.810  -1.656  -1.647  0.00  0.00    +0.047 A 
ATOM     39  N   UNL     1      -0.472  -0.386  -1.237  0.00  0.00    -0.360 N 
ATOM     40  C   UNL     1       0.752  -0.043  -1.743  0.00  0.00    +0.087 A 
ATOM     41  C   UNL     1       1.240  -1.052  -2.482  0.00  0.00    -0.021 A 
ATOM     42  C   UNL     1       0.248  -2.130  -2.445  0.00  0.00    +0.003 A 
ATOM     43  C   UNL     1       0.183  -3.408  -3.002  0.00  0.00    +0.013 A 
ATOM     44  H   UNL     1      -1.021   0.182  -0.673  0.00  0.00    +0.165 HD
ENDBRANCH  33  41
ENDBRANCH  32  33
ENDBRANCH  28  32
ENDBRANCH   1  29
TORSDOF 6
