REMARK  Name = ZINC01407845
REMARK  14 active torsions:
REMARK  status: ('A' for Active; 'I' for Inactive)
REMARK    1  A    between atoms: C_1  and  C_2
REMARK    2  A    between atoms: C_4  and  C_41
REMARK    3  A    between atoms: C_6  and  S_8
REMARK    4  A    between atoms: S_8  and  C_9
REMARK    5  A    between atoms: C_9  and  C_10
REMARK    6  A    between atoms: N_12  and  C_13
REMARK    7  A    between atoms: N_12  and  C_20
REMARK    8  A    between atoms: C_13  and  C_14
REMARK    9  A    between atoms: C_20  and  C_22
REMARK   10  A    between atoms: C_20  and  C_29
REMARK   11  A    between atoms: N_31  and  C_32
REMARK   12  A    between atoms: C_35  and  N_38
REMARK   13  A    between atoms: N_38  and  C_39
REMARK   14  A    between atoms: N_38  and  C_40
REMARK                            x       y       z     vdW  Elec       q    Type
REMARK                         _______ _______ _______ _____ _____    ______ ____
ROOT
ATOM      1  C   UNL     1       2.057  -2.575  -2.517  0.00  0.00    +0.227 C 
ATOM      2  O   UNL     1       1.558  -2.607  -3.623  0.00  0.00    -0.275 OA
ATOM      3  N   UNL     1       1.270  -2.599  -1.423  0.00  0.00    -0.285 N 
ENDROOT
BRANCH   1   4
ATOM      4  C   UNL     1       3.555  -2.509  -2.368  0.00  0.00    +0.173 C 
BRANCH   4   5
ATOM      5  S   UNL     1       4.319  -2.384  -4.003  0.00  0.00    -0.077 S 
BRANCH   5  11
ATOM      6  C   UNL     1       7.970  -2.392  -0.417  0.00  0.00    +0.066 C 
ATOM      7  C   UNL     1       7.610  -2.333  -1.879  0.00  0.00    +0.043 A 
ATOM      8  C   UNL     1       8.602  -2.232  -2.842  0.00  0.00    +0.046 A 
ATOM      9  C   UNL     1       8.227  -2.180  -4.176  0.00  0.00    +0.043 A 
ATOM     10  N   UNL     1       6.943  -2.228  -4.488  0.00  0.00    -0.227 NA
ATOM     11  C   UNL     1       6.019  -2.324  -3.542  0.00  0.00    +0.189 A 
ATOM     12  N   UNL     1       6.343  -2.370  -2.258  0.00  0.00    -0.227 NA
ATOM     13  C   UNL     1       9.271  -2.072  -5.257  0.00  0.00    +0.066 C 
ENDBRANCH   5  11
ENDBRANCH   4   5
ENDBRANCH   1   4
BRANCH   3  14
ATOM     14  C   UNL     1       1.864  -2.455  -0.091  0.00  0.00    +0.145 C 
BRANCH  14  15
ATOM     15  C   UNL     1       1.833  -1.006   0.319  0.00  0.00    -0.012 A 
ATOM     16  C   UNL     1       0.803  -0.522   1.112  0.00  0.00    +0.008 A 
ATOM     17  C   UNL     1       0.816   0.819   1.464  0.00  0.00    +0.020 A 
ATOM     18  C   UNL     1       1.847   1.623   1.017  0.00  0.00    +0.111 A 
ATOM     19  N   UNL     1       2.810   1.129   0.264  0.00  0.00    -0.263 NA
ATOM     20  C   UNL     1       2.830  -0.141  -0.091  0.00  0.00    +0.115 A 
ENDBRANCH  14  15
ENDBRANCH   3  14
BRANCH   3  21
ATOM     21  C   UNL     1      -0.178  -2.768  -1.565  0.00  0.00    +0.166 C 
BRANCH  21  22
ATOM     22  C   UNL     1      -0.892  -1.535  -1.009  0.00  0.00    +0.023 C 
ATOM     23  C   UNL     1      -2.405  -1.676  -1.220  0.00  0.00    +0.010 C 
ATOM     24  C   UNL     1      -3.104  -0.519  -0.505  0.00  0.00    +0.027 C 
ATOM     25  C   UNL     1      -2.457   0.785  -0.869  0.00  0.00    -0.031 C 
ATOM     26  C   UNL     1      -1.284   0.887  -1.406  0.00  0.00    -0.031 C 
ATOM     27  C   UNL     1      -0.411  -0.284  -1.749  0.00  0.00    +0.032 C 
ENDBRANCH  21  22
BRANCH  21  28
ATOM     28  C   UNL     1      -0.618  -3.990  -0.801  0.00  0.00    +0.238 C 
ATOM     29  O   UNL     1       0.113  -4.480   0.034  0.00  0.00    -0.273 OA
ATOM     30  N   UNL     1      -1.825  -4.539  -1.045  0.00  0.00    -0.284 N 
ATOM     31  H   UNL     1      -2.378  -4.195  -1.764  0.00  0.00    +0.155 HD
BRANCH  30  32
ATOM     32  C   UNL     1      -2.280  -5.607  -0.260  0.00  0.00    +0.034 A 
ATOM     33  C   UNL     1      -3.079  -6.593  -0.825  0.00  0.00    +0.025 A 
ATOM     34  C   UNL     1      -3.524  -7.647  -0.054  0.00  0.00    +0.025 A 
ATOM     35  C   UNL     1      -3.182  -7.717   1.291  0.00  0.00    +0.029 A 
ATOM     36  C   UNL     1      -2.388  -6.728   1.857  0.00  0.00    +0.025 A 
ATOM     37  C   UNL     1      -1.938  -5.676   1.084  0.00  0.00    +0.025 A 
BRANCH  35  38
ATOM     38  N   UNL     1      -3.638  -8.782   2.075  0.00  0.00    -0.336 N 
ATOM     39  C   UNL     1      -3.378  -8.795   3.516  0.00  0.00    +0.129 C 
ATOM     40  C   UNL     1      -4.376  -9.885   1.454  0.00  0.00    +0.129 C 
ENDBRANCH  35  38
ENDBRANCH  30  32
ENDBRANCH  21  28
ENDBRANCH   3  21
TORSDOF 10
