REMARK  Name = ZINC04831736
REMARK  7 active torsions:
REMARK  status: ('A' for Active; 'I' for Inactive)
REMARK    1  A    between atoms: C_4  and  C_7
REMARK    2  A    between atoms: C_7  and  N_38
REMARK    3  A    between atoms: C_8  and  C_10
REMARK    4  A    between atoms: C_8  and  N_14
REMARK    5  A    between atoms: C_8  and  N_38
REMARK    6  A    between atoms: C_15  and  C_17
REMARK    7  A    between atoms: C_22  and  N_23
REMARK                            x       y       z     vdW  Elec       q    Type
REMARK                         _______ _______ _______ _____ _____    ______ ____
ROOT
ATOM      1  C   UNL     1       5.376  -1.609  -1.375  0.00  0.00    +0.068 C 
ENDROOT
BRANCH   1   2
ATOM      2  C   UNL     1       5.255  -2.737  -2.403  0.00  0.00    +0.194 C 
ATOM      3 CL   UNL     1       4.865  -2.038  -4.019  0.00  0.00    -0.084 Cl
ATOM      4 CL   UNL     1       6.816  -3.634  -2.496  0.00  0.00    -0.084 Cl
ATOM      5 CL   UNL     1       3.941  -3.866  -1.903  0.00  0.00    -0.084 Cl
ENDBRANCH   1   2
BRANCH   1   6
ATOM      6  N   UNL     1       6.443  -0.691  -1.781  0.00  0.00    -0.321 N 
ATOM      7  C   UNL     1       7.337  -0.254  -0.873  0.00  0.00    +0.245 C 
ATOM      8  O   UNL     1       7.258  -0.621   0.283  0.00  0.00    -0.270 OA
ATOM      9  H   UNL     1       6.506  -0.398  -2.704  0.00  0.00    +0.147 HD
BRANCH   7  10
ATOM     10  C   UNL     1       8.415   0.672  -1.282  0.00  0.00    +0.067 A 
ATOM     11  C   UNL     1       8.101   1.875  -1.918  0.00  0.00    +0.015 A 
ATOM     12  C   UNL     1       9.111   2.737  -2.293  0.00  0.00    +0.001 A 
ATOM     13  C   UNL     1      10.432   2.407  -2.050  0.00  0.00    +0.002 A 
ATOM     14  C   UNL     1      10.750   1.214  -1.425  0.00  0.00    +0.033 A 
ATOM     15  C   UNL     1       9.750   0.345  -1.040  0.00  0.00    +0.138 A 
BRANCH  15  16
ATOM     16  N   UNL     1      10.091  -0.930  -0.371  0.00  0.00    +0.057 N 
ATOM     17  O   UNL     1      11.244  -1.162  -0.054  0.00  0.00    -0.126 OA
ATOM     18  O   UNL     1       9.220  -1.749  -0.139  0.00  0.00    -0.126 OA
ENDBRANCH  15  16
ENDBRANCH   7  10
ENDBRANCH   1   6
BRANCH   1  19
ATOM     19  N   UNL     1       4.098  -0.875  -1.308  0.00  0.00    +0.397 N 
ATOM     20  H   UNL     1       4.199   0.025  -1.793  0.00  0.00    -0.083 HD
ATOM     21  H   UNL     1       3.364  -1.429  -1.764  0.00  0.00    -0.083 HD
BRANCH  19  22
ATOM     22  C   UNL     1       3.722  -0.630   0.097  0.00  0.00    -0.044 C 
BRANCH  22  26
ATOM     23  C   UNL     1       0.019   1.496   0.205  0.00  0.00    +0.000 A 
ATOM     24  C   UNL     1       1.214   2.191   0.167  0.00  0.00    +0.000 A 
ATOM     25  C   UNL     1       2.412   1.502   0.132  0.00  0.00    +0.002 A 
ATOM     26  C   UNL     1       2.415   0.120   0.135  0.00  0.00    -0.064 A 
ATOM     27  C   UNL     1       1.221  -0.574   0.174  0.00  0.00    +0.002 A 
ATOM     28  C   UNL     1       0.022   0.114   0.209  0.00  0.00    +0.000 A 
ENDBRANCH  22  26
ENDBRANCH  19  22
ENDBRANCH   1  19
TORSDOF 7
