REMARK  Name = ZINC20681696
REMARK  5 active torsions:
REMARK  status: ('A' for Active; 'I' for Inactive)
REMARK    1  A    between atoms: C_3  and  C_9
REMARK    2  A    between atoms: C_4  and  O_8
REMARK    3  A    between atoms: C_6  and  O_7
REMARK    4  A    between atoms: C_20  and  S_25
REMARK    5  A    between atoms: S_25  and  N_28
REMARK                            x       y       z     vdW  Elec       q    Type
REMARK                         _______ _______ _______ _____ _____    ______ ____
ROOT
ATOM      1  C   UNL     1      -8.290   1.160  -1.127  0.00  0.00    +0.108 C 
ATOM      2  C   UNL     1      -8.010   2.252  -2.144  0.00  0.00    +0.029 C 
ATOM      3  C   UNL     1      -8.439   1.984  -3.593  0.00  0.00    +0.033 C 
ATOM      4  C   UNL     1      -7.414   2.808  -4.375  0.00  0.00    -0.030 C 
ATOM      5  C   UNL     1      -6.304   2.949  -3.660  0.00  0.00    -0.023 C 
ATOM      6  C   UNL     1      -6.470   2.218  -2.378  0.00  0.00    +0.049 C 
ATOM      7  C   UNL     1      -5.810   2.661  -1.131  0.00  0.00    -0.018 A 
ATOM      8  C   UNL     1      -4.644   3.396  -1.132  0.00  0.00    +0.034 A 
ATOM      9  C   UNL     1      -4.044   3.752   0.062  0.00  0.00    +0.106 A 
ATOM     10  C   UNL     1      -4.618   3.379   1.263  0.00  0.00    +0.030 A 
ATOM     11  C   UNL     1      -5.792   2.654   1.274  0.00  0.00    +0.025 A 
ATOM     12  C   UNL     1      -6.405   2.293   0.081  0.00  0.00    +0.031 A 
ATOM     13  N   UNL     1      -7.614   1.588   0.117  0.00  0.00    -0.336 N 
ATOM     14  H   UNL     1      -8.062   1.354   1.094  0.00  0.00    +0.147 HD
ENDROOT
BRANCH   1  17
ATOM     15  C   UNL     1     -11.728   1.582   0.373  0.00  0.00    +0.046 A 
ATOM     16  C   UNL     1     -10.367   1.693   0.162  0.00  0.00    +0.012 A 
ATOM     17  C   UNL     1      -9.773   1.031  -0.896  0.00  0.00    +0.015 A 
ATOM     18  C   UNL     1     -10.542   0.244  -1.742  0.00  0.00    +0.125 A 
ATOM     19  C   UNL     1     -11.906   0.127  -1.529  0.00  0.00    +0.091 A 
ATOM     20  C   UNL     1     -12.500   0.796  -0.470  0.00  0.00    +0.120 A 
BRANCH  20  21
ATOM     21  O   UNL     1     -13.838   0.683  -0.259  0.00  0.00    -0.507 OA
ATOM     22  H   UNL     1     -14.450   0.060  -0.928  0.00  0.00    +0.292 HD
ENDBRANCH  20  21
BRANCH  18  23
ATOM     23  O   UNL     1      -9.956  -0.410  -2.780  0.00  0.00    -0.506 OA
ATOM     24  H   UNL     1     -10.566  -1.034  -3.450  0.00  0.00    +0.292 HD
ENDBRANCH  18  23
ENDBRANCH   1  17
BRANCH   9  25
ATOM     25  S   UNL     1      -2.550   4.687   0.052  0.00  0.00    +0.061 S 
ATOM     26  O   UNL     1      -2.486   5.363   1.300  0.00  0.00    -0.153 OA
ATOM     27  O   UNL     1      -2.510   5.376  -1.190  0.00  0.00    -0.153 OA
BRANCH  25  28
ATOM     28  N   UNL     1      -1.296   3.606   0.034  0.00  0.00    -0.177 NA
ATOM     29  C   UNL     1      -0.741   3.124  -1.238  0.00  0.00    +0.109 C 
ATOM     30  C   UNL     1      -0.752   1.593  -1.232  0.00  0.00    +0.017 C 
ATOM     31  C   UNL     1      -0.013   1.086   0.008  0.00  0.00    +0.003 C 
ATOM     32  C   UNL     1      -0.729   1.579   1.268  0.00  0.00    +0.017 C 
ATOM     33  C   UNL     1      -0.717   3.111   1.290  0.00  0.00    +0.109 C 
ENDBRANCH  25  28
ENDBRANCH   9  25
TORSDOF 5
