REMARK  Name = ZINC12302194
REMARK  13 active torsions:
REMARK  status: ('A' for Active; 'I' for Inactive)
REMARK    1  A    between atoms: C_1  and  C_2
REMARK    2  A    between atoms: C_2  and  O_3
REMARK    3  A    between atoms: O_3  and  C_4
REMARK    4  A    between atoms: C_4  and  C_6
REMARK    5  A    between atoms: C_7  and  C_12
REMARK    6  A    between atoms: C_12  and  N_67
REMARK    7  A    between atoms: C_13  and  C_14
REMARK    8  A    between atoms: C_13  and  N_67
REMARK    9  A    between atoms: C_14  and  O_15
REMARK   10  A    between atoms: O_15  and  C_16
REMARK   11  A    between atoms: C_17  and  C_18
REMARK   12  A    between atoms: C_17  and  N_67
REMARK   13  A    between atoms: C_24  and  N_69
REMARK                            x       y       z     vdW  Elec       q    Type
REMARK                         _______ _______ _______ _____ _____    ______ ____
ROOT
ATOM      1  N   UNL     1      -2.729   5.528   1.243  0.00  0.00    +0.384 N 
ATOM      2  H   UNL     1      -3.664   5.107   1.293  0.00  0.00    -0.081 HD
ENDROOT
BRANCH   1   3
ATOM      3  C   UNL     1      -2.861   6.943   0.835  0.00  0.00    -0.039 C 
BRANCH   3   5
ATOM      4  C   UNL     1      -5.102   6.862  -0.516  0.00  0.00    +0.170 A 
ATOM      5  C   UNL     1      -3.698   7.012  -0.416  0.00  0.00    -0.012 A 
ATOM      6  C   UNL     1      -3.266   7.225  -1.680  0.00  0.00    +0.107 A 
ATOM      7  N   UNL     1      -4.352   7.209  -2.483  0.00  0.00    -0.284 N 
ATOM      8  H   UNL     1      -4.333   7.340  -3.474  0.00  0.00    +0.188 HD
ATOM      9  N   UNL     1      -5.413   7.000  -1.790  0.00  0.00    -0.167 NA
BRANCH   4  10
ATOM     10  C   UNL     1      -6.040   6.605   0.594  0.00  0.00    +0.360 C 
ATOM     11  O   UNL     1      -5.636   6.598   1.740  0.00  0.00    -0.243 OA
BRANCH  10  12
ATOM     12  O   UNL     1      -7.343   6.378   0.337  0.00  0.00    -0.460 OA
BRANCH  12  14
ATOM     13  C   UNL     1      -9.638   5.898   0.992  0.00  0.00    +0.048 C 
ATOM     14  C   UNL     1      -8.207   6.133   1.478  0.00  0.00    +0.229 C 
ENDBRANCH  12  14
ENDBRANCH  10  12
ENDBRANCH   4  10
ENDBRANCH   3   5
ENDBRANCH   1   3
BRANCH   1  15
ATOM     15  C   UNL     1      -2.092   5.443   2.574  0.00  0.00    -0.050 C 
BRANCH  15  16
ATOM     16  C   UNL     1      -3.113   5.862   3.634  0.00  0.00    +0.141 C 
BRANCH  16  17
ATOM     17  O   UNL     1      -4.189   4.922   3.657  0.00  0.00    -0.385 OA
ATOM     18  C   UNL     1      -5.203   5.223   4.618  0.00  0.00    +0.193 C 
ENDBRANCH  16  17
ENDBRANCH  15  16
ENDBRANCH   1  15
BRANCH   1  19
ATOM     19  C   UNL     1      -1.922   4.789   0.249  0.00  0.00    -0.077 C 
BRANCH  19  20
ATOM     20  C   UNL     1      -2.176   3.291   0.427  0.00  0.00    -0.044 C 
ATOM     21  C   UNL     1      -1.260   2.502  -0.512  0.00  0.00    -0.002 C 
ATOM     22  C   UNL     1      -1.563   1.008  -0.371  0.00  0.00    -0.018 C 
ATOM     23  C   UNL     1      -3.040   0.760  -0.685  0.00  0.00    -0.078 C 
ATOM     24  C   UNL     1      -3.636   2.977   0.090  0.00  0.00    -0.077 C 
ATOM     25  N   UNL     1      -3.868   1.528   0.268  0.00  0.00    +0.382 N 
ATOM     26  H   UNL     1      -3.606   1.264   1.225  0.00  0.00    -0.081 HD
BRANCH  25  27
ATOM     27  C   UNL     1      -5.298   1.217   0.059  0.00  0.00    -0.060 C 
ATOM     28  C   UNL     1      -6.152   1.879   1.161  0.00  0.00    +0.020 C 
ATOM     29  C   UNL     1      -7.260   0.884   1.449  0.00  0.00    -0.046 A 
ATOM     30  C   UNL     1      -8.472   1.055   2.097  0.00  0.00    +0.004 A 
ATOM     31  C   UNL     1      -9.339  -0.010   2.243  0.00  0.00    +0.000 A 
ATOM     32  C   UNL     1      -8.997  -1.252   1.742  0.00  0.00    +0.000 A 
ATOM     33  C   UNL     1      -7.789  -1.425   1.095  0.00  0.00    +0.004 A 
ATOM     34  C   UNL     1      -6.918  -0.358   0.948  0.00  0.00    -0.046 A 
ATOM     35  C   UNL     1      -5.556  -0.287   0.291  0.00  0.00    +0.020 C 
ENDBRANCH  25  27
ENDBRANCH  19  20
ENDBRANCH   1  19
TORSDOF 11
