REMARK  Name = ZINC12190487
REMARK  12 active torsions:
REMARK  status: ('A' for Active; 'I' for Inactive)
REMARK    1  A    between atoms: C_1  and  C_2
REMARK    2  A    between atoms: C_2  and  C_3
REMARK    3  A    between atoms: C_3  and  C_18
REMARK    4  A    between atoms: N_6  and  C_10
REMARK    5  A    between atoms: C_10  and  C_11
REMARK    6  A    between atoms: C_11  and  C_12
REMARK    7  A    between atoms: C_13  and  C_17
REMARK    8  A    between atoms: C_23  and  C_24
REMARK    9  A    between atoms: C_23  and  N_68
REMARK   10  A    between atoms: C_29  and  O_30
REMARK   11  A    between atoms: O_30  and  C_31
REMARK   12  A    between atoms: C_31  and  C_32
REMARK                            x       y       z     vdW  Elec       q    Type
REMARK                         _______ _______ _______ _____ _____    ______ ____
ROOT
ATOM      1  C   UNL     1       1.181   2.140   0.002  0.00  0.00    +0.115 C 
ATOM      2  C   UNL     1      -0.014   1.208   0.009  0.00  0.00    +0.247 C 
ATOM      3  O   UNL     1       0.002  -0.004   0.002  0.00  0.00    -0.273 OA
ATOM      4  N   UNL     1      -1.099   2.007   0.017  0.00  0.00    -0.224 N 
ATOM      5  C   UNL     1      -0.759   3.301   0.026  0.00  0.00    +0.309 C 
ATOM      6  O   UNL     1      -1.564   4.212   0.038  0.00  0.00    -0.252 OA
ATOM      7  N   UNL     1       0.574   3.482   0.015  0.00  0.00    -0.285 N 
ATOM      8  H   UNL     1       1.044   4.331   0.014  0.00  0.00    +0.151 HD
ENDROOT
BRANCH   1   9
ATOM      9  C   UNL     1       2.038   1.925   1.252  0.00  0.00    +0.018 C 
ATOM     10  C   UNL     1       2.651   0.523   1.216  0.00  0.00    -0.013 C 
ATOM     11  C   UNL     1       3.455   0.291   2.498  0.00  0.00    -0.078 C 
ATOM     12  C   UNL     1       2.013   1.786   3.744  0.00  0.00    -0.078 C 
ATOM     13  C   UNL     1       1.164   2.062   2.501  0.00  0.00    -0.013 C 
ATOM     14  N   UNL     1       2.552   0.412   3.662  0.00  0.00    +0.382 N 
ATOM     15  H   UNL     1       1.772  -0.246   3.548  0.00  0.00    -0.081 HD
BRANCH  14  16
ATOM     16  C   UNL     1       3.282   0.081   4.903  0.00  0.00    -0.039 C 
BRANCH  16  17
ATOM     17  C   UNL     1       4.048  -1.201   4.699  0.00  0.00    -0.022 A 
ATOM     18  C   UNL     1       3.534  -2.395   5.165  0.00  0.00    +0.005 A 
ATOM     19  C   UNL     1       4.234  -3.572   4.974  0.00  0.00    +0.000 A 
ATOM     20  C   UNL     1       5.455  -3.555   4.325  0.00  0.00    +0.004 A 
ATOM     21  C   UNL     1       5.975  -2.363   3.861  0.00  0.00    +0.046 A 
ATOM     22  C   UNL     1       5.272  -1.181   4.047  0.00  0.00    +0.122 A 
BRANCH  22  23
ATOM     23  O   UNL     1       5.782  -0.007   3.592  0.00  0.00    -0.488 OA
BRANCH  23  24
ATOM     24  C   UNL     1       7.048  -0.062   2.930  0.00  0.00    +0.256 C 
BRANCH  24  25
ATOM     25  C   UNL     1       7.450   1.325   2.499  0.00  0.00    +0.006 C 
ATOM     26  C   UNL     1       8.675   1.744   2.700  0.00  0.00    +0.007 C 
ENDBRANCH  24  25
ENDBRANCH  23  24
ENDBRANCH  22  23
ENDBRANCH  16  17
ENDBRANCH  14  16
ENDBRANCH   1   9
BRANCH   1  28
ATOM     27  C   UNL     1       1.190   2.327  -2.489  0.00  0.00    +0.006 C 
ATOM     28  C   UNL     1       2.017   1.935  -1.263  0.00  0.00    +0.032 C 
ENDBRANCH   1  28
BRANCH   4  29
ATOM     29  C   UNL     1      -2.481   1.520   0.020  0.00  0.00    +0.123 C 
BRANCH  29  30
ATOM     30  C   UNL     1      -2.956   1.342   1.463  0.00  0.00    +0.064 C 
BRANCH  30  31
ATOM     31  C   UNL     1      -4.377   0.840   1.466  0.00  0.00    +0.014 A 
ATOM     32  C   UNL     1      -4.847  -0.433   1.461  0.00  0.00    +0.049 A 
ATOM     33  N   UNL     1      -6.151  -0.619   1.465  0.00  0.00    -0.252 NA
ATOM     34  C   UNL     1      -6.987   0.393   1.474  0.00  0.00    +0.156 A 
ATOM     35  S   UNL     1      -5.911   1.757   1.485  0.00  0.00    -0.080 S 
ATOM     36  C   UNL     1      -3.901  -1.605   1.451  0.00  0.00    +0.066 C 
ENDBRANCH  30  31
ENDBRANCH  29  30
ENDBRANCH   4  29
TORSDOF 10
