REMARK  Name = ZINC39688424
REMARK  7 active torsions:
REMARK  status: ('A' for Active; 'I' for Inactive)
REMARK    1  A    between atoms: C_1  and  C_2
REMARK    2  A    between atoms: C_2  and  C_4
REMARK    3  A    between atoms: C_2  and  N_12
REMARK    4  A    between atoms: C_4  and  C_5
REMARK    5  A    between atoms: C_13  and  C_15
REMARK    6  A    between atoms: C_26  and  C_28
REMARK    7  A    between atoms: C_34  and  C_36
REMARK                            x       y       z     vdW  Elec       q    Type
REMARK                         _______ _______ _______ _____ _____    ______ ____
ROOT
ATOM      1  C   UNL     1       0.780  -1.133   3.576  0.00  0.00    +0.100 C 
ATOM      2  C   UNL     1       1.973  -0.207   3.907  0.00  0.00    +0.121 C 
ATOM      3  N   UNL     1       1.444   0.739   4.916  0.00  0.00    -0.299 N 
ATOM      4  C   UNL     1       0.577  -0.093   5.784  0.00  0.00    +0.115 C 
ATOM      5  C   UNL     1      -0.132  -1.058   4.812  0.00  0.00    -0.004 C 
ATOM      6  C   UNL     1      -0.275  -2.438   5.448  0.00  0.00    -0.010 C 
ATOM      7  C   UNL     1      -1.232  -2.349   6.640  0.00  0.00    -0.082 C 
ATOM      8  N   UNL     1      -2.539  -1.860   6.184  0.00  0.00    +0.379 N 
ATOM      9  C   UNL     1      -2.409  -0.496   5.660  0.00  0.00    -0.082 C 
ATOM     10  C   UNL     1      -1.501  -0.506   4.426  0.00  0.00    -0.010 C 
ATOM     11  C   UNL     1       1.694   2.059   5.022  0.00  0.00    +0.236 C 
ATOM     12  O   UNL     1       1.181   2.705   5.912  0.00  0.00    -0.274 OA
ATOM     13  H   UNL     1      -2.889  -2.466   5.458  0.00  0.00    -0.086 HD
ATOM     14  H   UNL     1      -3.186  -1.861   6.959  0.00  0.00    -0.086 HD
ENDROOT
BRANCH  11  15
ATOM     15  C   UNL     1       2.612   2.734   4.035  0.00  0.00    +0.162 C 
ATOM     16  C   UNL     1       4.082   2.475   4.425  0.00  0.00    +0.033 C 
ATOM     17  C   UNL     1       4.769   3.830   4.106  0.00  0.00    +0.021 C 
ATOM     18  C   UNL     1       3.656   4.839   4.484  0.00  0.00    +0.109 C 
ATOM     19  N   UNL     1       2.398   4.188   4.066  0.00  0.00    -0.283 N 
ATOM     20  C   UNL     1       1.246   4.819   3.764  0.00  0.00    +0.320 C 
ATOM     21  O   UNL     1       0.272   4.177   3.432  0.00  0.00    -0.266 OA
BRANCH  20  22
ATOM     22  C   UNL     1       1.168   6.322   3.838  0.00  0.00    +0.470 C 
ATOM     23  F   UNL     1      -0.119   6.740   3.482  0.00  0.00    -0.162 F 
ATOM     24  F   UNL     1       1.449   6.739   5.144  0.00  0.00    -0.162 F 
ATOM     25  F   UNL     1       2.100   6.881   2.959  0.00  0.00    -0.162 F 
ENDBRANCH  20  22
ENDBRANCH  11  15
BRANCH   1  27
ATOM     26  N   UNL     1      -0.554  -1.508   1.528  0.00  0.00    -0.312 N 
ATOM     27  C   UNL     1       0.051  -0.633   2.355  0.00  0.00    +0.218 C 
ATOM     28  O   UNL     1       0.009   0.555   2.118  0.00  0.00    -0.275 OA
ATOM     29  H   UNL     1      -0.521  -2.458   1.718  0.00  0.00    +0.149 HD
BRANCH  26  31
ATOM     30  C   UNL     1      -0.270  -0.846  -0.810  0.00  0.00    +0.028 C 
ATOM     31  C   UNL     1      -1.263  -1.022   0.341  0.00  0.00    +0.074 C 
BRANCH  31  32
ATOM     32  C   UNL     1      -2.336  -2.036  -0.063  0.00  0.00    +0.057 C 
BRANCH  32  33
ATOM     33  C   UNL     1      -3.381  -2.118   1.020  0.00  0.00    -0.045 A 
ATOM     34  C   UNL     1      -3.235  -3.024   2.054  0.00  0.00    +0.006 A 
ATOM     35  C   UNL     1      -4.192  -3.100   3.047  0.00  0.00    +0.038 A 
ATOM     36  C   UNL     1      -5.299  -2.269   3.007  0.00  0.00    +0.123 A 
ATOM     37  C   UNL     1      -5.444  -1.362   1.971  0.00  0.00    +0.038 A 
ATOM     38  C   UNL     1      -4.483  -1.284   0.981  0.00  0.00    +0.006 A 
ATOM     39  F   UNL     1      -6.236  -2.343   3.977  0.00  0.00    -0.205 F 
ENDBRANCH  32  33
ENDBRANCH  31  32
ENDBRANCH  26  31
ENDBRANCH   1  27
TORSDOF 6
