REMARK  Name = ZINC08738060
REMARK  5 active torsions:
REMARK  status: ('A' for Active; 'I' for Inactive)
REMARK    1  A    between atoms: C_1  and  C_2
REMARK    2  A    between atoms: C_2  and  C_26
REMARK    3  A    between atoms: N_11  and  C_16
REMARK    4  A    between atoms: C_16  and  C_17
REMARK    5  A    between atoms: C_17  and  C_18
REMARK                            x       y       z     vdW  Elec       q    Type
REMARK                         _______ _______ _______ _____ _____    ______ ____
ROOT
ATOM      1  C   UNL     1       0.107   5.662   0.006  0.00  0.00    +0.041 C 
ATOM      2  C   UNL     1       0.050   4.172  -0.336  0.00  0.00    +0.069 C 
ATOM      3  C   UNL     1       1.396   3.512   0.007  0.00  0.00    +0.077 C 
ATOM      4  C   UNL     1       1.190   2.029   0.002  0.00  0.00    +0.001 A 
ATOM      5  C   UNL     1      -0.017   1.387   0.010  0.00  0.00    +0.013 A 
ATOM      6  C   UNL     1       0.002  -0.004   0.002  0.00  0.00    +0.068 A 
ATOM      7  C   UNL     1       1.273  -0.602  -0.013  0.00  0.00    +0.101 A 
ATOM      8  S   UNL     1       2.373   0.777  -0.016  0.00  0.00    -0.086 S 
ATOM      9  C   UNL     1       1.477  -1.985  -0.021  0.00  0.00    +0.271 A 
ATOM     10  O   UNL     1       2.591  -2.476  -0.033  0.00  0.00    -0.266 OA
ATOM     11  N   UNL     1       0.349  -2.746  -0.015  0.00  0.00    -0.260 N 
ATOM     12  C   UNL     1      -0.872  -2.193  -0.001  0.00  0.00    +0.330 A 
ATOM     13  O   UNL     1      -1.831  -2.941   0.004  0.00  0.00    -0.246 OA
ATOM     14  N   UNL     1      -1.111  -0.866   0.008  0.00  0.00    -0.306 N 
ATOM     15  H   UNL     1      -2.129  -0.449   0.019  0.00  0.00    +0.170 HD
ATOM     16  C   UNL     1      -1.303   2.210   0.033  0.00  0.00    +0.198 C 
ATOM     17  O   UNL     1      -0.980   3.542   0.431  0.00  0.00    -0.369 OA
ATOM     18  C   UNL     1      -0.241   3.999  -1.829  0.00  0.00    +0.041 C 
ENDROOT
BRANCH  11  19
ATOM     19  C   UNL     1       0.473  -4.206  -0.023  0.00  0.00    +0.134 C 
BRANCH  19  20
ATOM     20  C   UNL     1       0.503  -4.707  -1.468  0.00  0.00    +0.057 C 
BRANCH  20  21
ATOM     21  C   UNL     1       0.630  -6.209  -1.476  0.00  0.00    -0.046 A 
ATOM     22  C   UNL     1       1.881  -6.797  -1.496  0.00  0.00    +0.004 A 
ATOM     23  C   UNL     1       1.997  -8.174  -1.499  0.00  0.00    +0.000 A 
ATOM     24  C   UNL     1       0.863  -8.964  -1.492  0.00  0.00    +0.000 A 
ATOM     25  C   UNL     1      -0.388  -8.376  -1.478  0.00  0.00    +0.000 A 
ATOM     26  C   UNL     1      -0.505  -6.999  -1.470  0.00  0.00    +0.004 A 
ENDBRANCH  20  21
ENDBRANCH  19  20
ENDBRANCH  11  19
TORSDOF 3
