REMARK  Name = ZINC36970756
REMARK  7 active torsions:
REMARK  status: ('A' for Active; 'I' for Inactive)
REMARK    1  A    between atoms: C_1  and  C_2
REMARK    2  A    between atoms: C_2  and  C_4
REMARK    3  A    between atoms: C_2  and  N_12
REMARK    4  A    between atoms: C_7  and  O_10
REMARK    5  A    between atoms: O_10  and  C_11
REMARK    6  A    between atoms: N_12  and  C_13
REMARK    7  A    between atoms: C_18  and  N_19
REMARK                            x       y       z     vdW  Elec       q    Type
REMARK                         _______ _______ _______ _____ _____    ______ ____
ROOT
ATOM      1  N   UNL     1      -1.277  -1.022   0.059  0.00  0.00    -0.335 N 
ATOM      2  H   UNL     1      -1.726  -1.270  -0.764  0.00  0.00    +0.147 HD
ENDROOT
BRANCH   1   3
ATOM      3  C   UNL     1      -2.005  -0.915   1.246  0.00  0.00    +0.060 A 
ATOM      4  C   UNL     1      -1.348  -0.676   2.447  0.00  0.00    +0.045 A 
ATOM      5  C   UNL     1      -2.071  -0.571   3.620  0.00  0.00    +0.043 A 
ATOM      6  C   UNL     1      -3.449  -0.704   3.599  0.00  0.00    +0.022 A 
ATOM      7  C   UNL     1      -4.105  -0.942   2.405  0.00  0.00    +0.036 A 
ATOM      8  C   UNL     1      -3.388  -1.042   1.229  0.00  0.00    +0.147 A 
ATOM      9 CL   UNL     1      -1.251  -0.272   5.120  0.00  0.00    -0.083 Cl
BRANCH   8  10
ATOM     10  N   UNL     1      -4.093  -1.290  -0.049  0.00  0.00    +0.058 N 
ATOM     11  O   UNL     1      -3.712  -0.753  -1.063  0.00  0.00    -0.126 OA
ATOM     12  O   UNL     1      -5.049  -2.030  -0.078  0.00  0.00    -0.126 OA
ENDBRANCH   8  10
ENDBRANCH   1   3
BRANCH   1  14
ATOM     13  C   UNL     1       0.409   0.743  -0.100  0.00  0.00    +0.033 C 
ATOM     14  C   UNL     1       0.164  -0.760   0.058  0.00  0.00    +0.098 C 
BRANCH  14  15
ATOM     15  C   UNL     1       0.807  -1.496  -1.089  0.00  0.00    -0.027 A 
ATOM     16  C   UNL     1       0.174  -1.550  -2.317  0.00  0.00    +0.009 A 
ATOM     17  C   UNL     1       0.761  -2.225  -3.369  0.00  0.00    +0.046 A 
ATOM     18  C   UNL     1       1.988  -2.848  -3.194  0.00  0.00    +0.120 A 
ATOM     19  C   UNL     1       2.622  -2.792  -1.961  0.00  0.00    +0.046 A 
ATOM     20  C   UNL     1       2.033  -2.111  -0.913  0.00  0.00    +0.009 A 
BRANCH  18  21
ATOM     21  O   UNL     1       2.568  -3.513  -4.228  0.00  0.00    -0.495 OA
ATOM     22  C   UNL     1       3.831  -4.131  -3.975  0.00  0.00    +0.277 C 
ENDBRANCH  18  21
ENDBRANCH  14  15
ENDBRANCH   1  14
TORSDOF 5
