REMARK  Name = ZINC35464215
REMARK  15 active torsions:
REMARK  status: ('A' for Active; 'I' for Inactive)
REMARK    1  A    between atoms: C_2  and  C_3
REMARK    2  A    between atoms: C_3  and  C_4
REMARK    3  A    between atoms: C_7  and  O_10
REMARK    4  A    between atoms: O_10  and  C_11
REMARK    5  A    between atoms: C_13  and  O_42
REMARK    6  A    between atoms: C_15  and  O_41
REMARK    7  A    between atoms: C_17  and  O_40
REMARK    8  A    between atoms: C_19  and  C_22
REMARK    9  A    between atoms: C_22  and  O_23
REMARK   10  A    between atoms: O_23  and  C_24
REMARK   11  A    between atoms: C_26  and  O_39
REMARK   12  A    between atoms: C_28  and  O_38
REMARK   13  A    between atoms: C_30  and  O_37
REMARK   14  A    between atoms: C_32  and  C_35
REMARK   15  A    between atoms: C_35  and  O_36
REMARK                            x       y       z     vdW  Elec       q    Type
REMARK                         _______ _______ _______ _____ _____    ______ ____
ROOT
ATOM      1  C   UNL     1       1.023  -5.661   4.081  0.00  0.00    +0.339 C 
ATOM      2  C   UNL     1       0.923  -6.410   5.412  0.00  0.00    +0.214 C 
ATOM      3  C   UNL     1       0.456  -7.845   5.147  0.00  0.00    +0.180 C 
ATOM      4  C   UNL     1       1.431  -8.516   4.174  0.00  0.00    +0.177 C 
ATOM      5  C   UNL     1       1.512  -7.685   2.891  0.00  0.00    +0.179 C 
ATOM      6  O   UNL     1       1.921  -6.354   3.212  0.00  0.00    -0.331 OA
ENDROOT
BRANCH   4   7
ATOM      7  O   UNL     1       2.725  -8.596   4.774  0.00  0.00    -0.386 OA
ATOM      8  H   UNL     1       2.747  -9.106   5.596  0.00  0.00    +0.210 HD
ENDBRANCH   4   7
BRANCH   3   9
ATOM      9  O   UNL     1       0.428  -8.573   6.377  0.00  0.00    -0.386 OA
ATOM     10  H   UNL     1      -0.165  -8.199   7.042  0.00  0.00    +0.210 HD
ENDBRANCH   3   9
BRANCH   2  11
ATOM     11  O   UNL     1      -0.017  -5.750   6.262  0.00  0.00    -0.383 OA
ATOM     12  H   UNL     1       0.214  -4.834   6.468  0.00  0.00    +0.210 HD
ENDBRANCH   2  11
BRANCH   1  13
ATOM     13  O   UNL     1       1.512  -4.338   4.314  0.00  0.00    -0.461 OA
BRANCH  13  17
ATOM     14  C   UNL     1       1.369  -1.702   1.144  0.00  0.00    -0.043 A 
ATOM     15  C   UNL     1       1.873  -1.289   2.363  0.00  0.00    +0.007 A 
ATOM     16  C   UNL     1       1.922  -2.170   3.426  0.00  0.00    +0.046 A 
ATOM     17  C   UNL     1       1.464  -3.470   3.270  0.00  0.00    +0.124 A 
ATOM     18  C   UNL     1       0.958  -3.882   2.046  0.00  0.00    +0.046 A 
ATOM     19  C   UNL     1       0.907  -2.996   0.987  0.00  0.00    +0.007 A 
BRANCH  14  20
ATOM     20  C   UNL     1       1.317  -0.740  -0.015  0.00  0.00    +0.061 C 
BRANCH  20  22
ATOM     21  C   UNL     1      -0.016   1.306   0.009  0.00  0.00    +0.004 C 
ATOM     22  C   UNL     1       0.002  -0.004   0.002  0.00  0.00    -0.030 C 
ENDBRANCH  20  22
ENDBRANCH  14  20
ENDBRANCH  13  17
ENDBRANCH   1  13
BRANCH   5  23
ATOM     23  C   UNL     1       2.528  -8.316   1.938  0.00  0.00    +0.197 C 
BRANCH  23  24
ATOM     24  O   UNL     1       2.519  -7.609   0.696  0.00  0.00    -0.346 OA
BRANCH  24  25
ATOM     25  C   UNL     1       3.438  -8.121  -0.271  0.00  0.00    +0.282 C 
ATOM     26  C   UNL     1       3.526  -7.154  -1.454  0.00  0.00    +0.201 C 
ATOM     27  C   UNL     1       4.467  -7.738  -2.513  0.00  0.00    +0.179 C 
ATOM     28  C   UNL     1       3.954  -9.120  -2.929  0.00  0.00    +0.177 C 
ATOM     29  C   UNL     1       3.849 -10.011  -1.689  0.00  0.00    +0.178 C 
ATOM     30  O   UNL     1       2.985  -9.396  -0.732  0.00  0.00    -0.341 OA
BRANCH  28  31
ATOM     31  O   UNL     1       2.666  -8.989  -3.534  0.00  0.00    -0.386 OA
ATOM     32  H   UNL     1       2.658  -8.432  -4.325  0.00  0.00    +0.210 HD
ENDBRANCH  28  31
BRANCH  27  33
ATOM     33  O   UNL     1       4.500  -6.875  -3.652  0.00  0.00    -0.386 OA
ATOM     34  H   UNL     1       4.810  -5.980  -3.458  0.00  0.00    +0.210 HD
ENDBRANCH  27  33
BRANCH  26  35
ATOM     35  O   UNL     1       2.226  -6.970  -2.018  0.00  0.00    -0.384 OA
ATOM     36  H   UNL     1       1.577  -6.606  -1.401  0.00  0.00    +0.210 HD
ENDBRANCH  26  35
BRANCH  29  37
ATOM     37  C   UNL     1       3.281 -11.375  -2.087  0.00  0.00    +0.190 C 
BRANCH  37  38
ATOM     38  O   UNL     1       3.292 -12.245  -0.954  0.00  0.00    -0.392 OA
ATOM     39  H   UNL     1       2.944 -13.130  -1.134  0.00  0.00    +0.210 HD
ENDBRANCH  37  38
ENDBRANCH  29  37
ENDBRANCH  24  25
ENDBRANCH  23  24
ENDBRANCH   5  23
TORSDOF 15
