REMARK  Name = ZINC19794892
REMARK  12 active torsions:
REMARK  status: ('A' for Active; 'I' for Inactive)
REMARK    1  A    between atoms: C_1  and  C_2
REMARK    2  A    between atoms: C_5  and  O_12
REMARK    3  A    between atoms: C_8  and  C_10
REMARK    4  A    between atoms: C_8  and  C_11
REMARK    5  A    between atoms: O_12  and  C_13
REMARK    6  A    between atoms: C_13  and  C_14
REMARK    7  A    between atoms: C_14  and  C_16
REMARK    8  A    between atoms: C_14  and  O_40
REMARK    9  A    between atoms: C_16  and  N_17
REMARK   10  A    between atoms: N_20  and  C_23
REMARK   11  A    between atoms: C_23  and  C_24
REMARK   12  A    between atoms: C_24  and  N_25
REMARK                            x       y       z     vdW  Elec       q    Type
REMARK                         _______ _______ _______ _____ _____    ______ ____
ROOT
ATOM      1  N   UNL     1       0.577  -3.182   5.299  0.00  0.00    -0.303 NA
ATOM      2  C   UNL     1       1.897  -3.680   4.890  0.00  0.00    +0.066 C 
ATOM      3  C   UNL     1       2.719  -4.019   6.136  0.00  0.00    -0.063 C 
ATOM      4  N   UNL     1       2.004  -5.025   6.933  0.00  0.00    +0.382 N 
ATOM      5  C   UNL     1       0.683  -4.527   7.342  0.00  0.00    -0.063 C 
ATOM      6  C   UNL     1      -0.139  -4.188   6.096  0.00  0.00    +0.066 C 
ATOM      7  H   UNL     1       1.851  -5.913   6.302  0.00  0.00    -0.082 HD
ENDROOT
BRANCH   1   8
ATOM      8  C   UNL     1      -0.216  -2.774   4.132  0.00  0.00    +0.117 C 
BRANCH   8   9
ATOM      9  C   UNL     1       0.438  -1.560   3.470  0.00  0.00    +0.154 C 
BRANCH   9  10
ATOM     10  O   UNL     1       0.498  -0.481   4.405  0.00  0.00    -0.388 OA
ATOM     11  H   UNL     1       1.052  -0.601   5.348  0.00  0.00    +0.210 HD
ENDBRANCH   9  10
BRANCH   9  12
ATOM     12  C   UNL     1      -0.388  -1.134   2.254  0.00  0.00    +0.192 C 
BRANCH  12  13
ATOM     13  O   UNL     1       0.284  -0.076   1.568  0.00  0.00    -0.374 OA
BRANCH  13  17
ATOM     14  C   UNL     1       2.000  -1.024  -2.237  0.00  0.00    +0.007 C 
ATOM     15  C   UNL     1       1.550  -0.225  -1.012  0.00  0.00    -0.011 C 
ATOM     16  C   UNL     1       0.043  -0.401  -0.814  0.00  0.00    +0.035 C 
ATOM     17  C   UNL     1      -0.407   0.398   0.410  0.00  0.00    +0.119 C 
ATOM     18  C   UNL     1      -0.090   1.879   0.198  0.00  0.00    +0.038 C 
ATOM     19  C   UNL     1       1.417   2.055  -0.000  0.00  0.00    -0.032 C 
ATOM     20  C   UNL     1       1.867   1.257  -1.225  0.00  0.00    +0.009 C 
ATOM     21  C   UNL     1       1.734   3.537  -0.213  0.00  0.00    +0.011 C 
ATOM     22  C   UNL     1       2.157   1.548   1.239  0.00  0.00    +0.011 C 
ENDBRANCH  13  17
ENDBRANCH  12  13
ENDBRANCH   9  12
ENDBRANCH   8   9
ENDBRANCH   1   8
BRANCH   4  23
ATOM     23  C   UNL     1       2.796  -5.433   8.100  0.00  0.00    -0.059 C 
BRANCH  23  24
ATOM     24  C   UNL     1       4.052  -6.171   7.631  0.00  0.00    +0.098 C 
BRANCH  24  25
ATOM     25  N   UNL     1       4.843  -6.579   8.796  0.00  0.00    -0.236 N 
ATOM     26  C   UNL     1       5.783  -5.738   9.267  0.00  0.00    +0.254 C 
ATOM     27  O   UNL     1       5.960  -4.663   8.725  0.00  0.00    -0.270 OA
ATOM     28  C   UNL     1       6.593  -6.109  10.436  0.00  0.00    +0.046 A 
ATOM     29  C   UNL     1       7.569  -5.272  10.957  0.00  0.00    +0.014 A 
ATOM     30  C   UNL     1       8.313  -5.670  12.061  0.00  0.00    +0.001 A 
ATOM     31  C   UNL     1       8.112  -6.880  12.662  0.00  0.00    +0.008 A 
ATOM     32  C   UNL     1       7.133  -7.757  12.165  0.00  0.00    -0.016 A 
ATOM     33  C   UNL     1       6.371  -7.365  11.044  0.00  0.00    +0.006 A 
ATOM     34  C   UNL     1       5.379  -8.226  10.521  0.00  0.00    +0.046 A 
ATOM     35  C   UNL     1       5.169  -9.456  11.124  0.00  0.00    +0.014 A 
ATOM     36  C   UNL     1       5.926  -9.831  12.228  0.00  0.00    +0.001 A 
ATOM     37  C   UNL     1       6.887  -9.013  12.748  0.00  0.00    +0.008 A 
ATOM     38  C   UNL     1       4.606  -7.782   9.351  0.00  0.00    +0.254 C 
ATOM     39  O   UNL     1       3.748  -8.506   8.884  0.00  0.00    -0.270 OA
ENDBRANCH  24  25
ENDBRANCH  23  24
ENDBRANCH   4  23
TORSDOF 9
