REMARK  Name = ZINC21529564
REMARK  9 active torsions:
REMARK  status: ('A' for Active; 'I' for Inactive)
REMARK    1  A    between atoms: C_1  and  C_2
REMARK    2  A    between atoms: N_5  and  S_8
REMARK    3  A    between atoms: S_8  and  N_11
REMARK    4  A    between atoms: C_15  and  C_18
REMARK    5  A    between atoms: N_20  and  C_21
REMARK    6  A    between atoms: C_21  and  C_22
REMARK    7  A    between atoms: C_22  and  C_23
REMARK    8  A    between atoms: C_23  and  N_24
REMARK    9  A    between atoms: C_27  and  N_30
REMARK                            x       y       z     vdW  Elec       q    Type
REMARK                         _______ _______ _______ _____ _____    ______ ____
ROOT
ATOM      1  C   UNL     1      -0.377   4.519   4.429  0.00  0.00    +0.217 C 
ATOM      2  O   UNL     1      -0.673   5.622   4.023  0.00  0.00    -0.275 OA
ATOM      3  N   UNL     1       0.257   4.383   5.611  0.00  0.00    -0.315 N 
ATOM      4  H   UNL     1       0.525   3.382   5.979  0.00  0.00    +0.149 HD
ENDROOT
BRANCH   1   9
ATOM      5  N   UNL     1      -1.871   2.524   1.607  0.00  0.00    -0.166 NA
ATOM      6  C   UNL     1      -2.694   1.537   2.318  0.00  0.00    +0.110 C 
ATOM      7  C   UNL     1      -1.964   1.131   3.607  0.00  0.00    +0.018 C 
ATOM      8  C   UNL     1      -1.643   2.385   4.423  0.00  0.00    +0.015 C 
ATOM      9  C   UNL     1      -0.719   3.299   3.613  0.00  0.00    +0.091 C 
ATOM     10  C   UNL     1      -1.431   3.727   2.326  0.00  0.00    +0.123 C 
BRANCH   5  11
ATOM     11  S   UNL     1      -1.454   2.289   0.021  0.00  0.00    +0.100 S 
ATOM     12  O   UNL     1      -1.189   3.575  -0.524  0.00  0.00    -0.141 OA
ATOM     13  O   UNL     1      -2.429   1.414  -0.530  0.00  0.00    -0.141 OA
BRANCH  11  18
ATOM     14  C   UNL     1       3.154  -0.355   2.186  0.00  0.00    +0.007 C 
ATOM     15  C   UNL     1       2.263   0.156   1.052  0.00  0.00    -0.012 C 
ATOM     16  C   UNL     1       0.880  -0.492   1.159  0.00  0.00    +0.020 C 
ATOM     17  C   UNL     1       0.002  -0.004   0.002  0.00  0.00    +0.111 C 
ATOM     18  N   UNL     1      -0.018   1.465   0.010  0.00  0.00    -0.166 NA
ATOM     19  C   UNL     1       1.261   2.189   0.002  0.00  0.00    +0.111 C 
ATOM     20  C   UNL     1       2.125   1.677   1.158  0.00  0.00    +0.020 C 
ENDBRANCH  11  18
ENDBRANCH   5  11
ENDBRANCH   1   9
BRANCH   3  21
ATOM     21  C   UNL     1       0.589   5.569   6.404  0.00  0.00    +0.105 C 
BRANCH  21  22
ATOM     22  C   UNL     1       1.300   5.141   7.689  0.00  0.00    +0.034 C 
BRANCH  22  23
ATOM     23  C   UNL     1       1.647   6.380   8.518  0.00  0.00    +0.086 C 
BRANCH  23  24
ATOM     24  N   UNL     1       2.329   5.968   9.752  0.00  0.00    -0.302 NA
ATOM     25  C   UNL     1       3.368   4.968   9.471  0.00  0.00    +0.083 C 
ATOM     26  C   UNL     1       3.955   4.457  10.788  0.00  0.00    +0.000 C 
ATOM     27  C   UNL     1       4.551   5.634  11.566  0.00  0.00    -0.066 C 
ATOM     28  C   UNL     1       3.460   6.682  11.804  0.00  0.00    +0.000 C 
ATOM     29  C   UNL     1       2.886   7.129  10.457  0.00  0.00    +0.083 C 
BRANCH  27  30
ATOM     30  N   UNL     1       5.065   5.160  12.858  0.00  0.00    +0.382 N 
ATOM     31  C   UNL     1       5.547   6.280  13.676  0.00  0.00    -0.078 C 
ATOM     32  C   UNL     1       5.939   5.769  15.064  0.00  0.00    -0.019 C 
ATOM     33  C   UNL     1       7.034   4.708  14.921  0.00  0.00    -0.004 C 
ATOM     34  C   UNL     1       6.524   3.576  14.026  0.00  0.00    -0.019 C 
ATOM     35  C   UNL     1       6.115   4.151  12.668  0.00  0.00    -0.078 C 
ATOM     36  H   UNL     1       4.236   4.682  13.400  0.00  0.00    -0.081 HD
ENDBRANCH  27  30
ENDBRANCH  23  24
ENDBRANCH  22  23
ENDBRANCH  21  22
ENDBRANCH   3  21
TORSDOF 8
