REMARK  Name = ZINC19703172
REMARK  7 active torsions:
REMARK  status: ('A' for Active; 'I' for Inactive)
REMARK    1  A    between atoms: C_1  and  C_2
REMARK    2  A    between atoms: C_17  and  C_37
REMARK    3  A    between atoms: C_22  and  C_23
REMARK    4  A    between atoms: C_22  and  O_36
REMARK    5  A    between atoms: C_23  and  N_24
REMARK    6  A    between atoms: C_25  and  C_26
REMARK    7  A    between atoms: C_28  and  N_33
REMARK                            x       y       z     vdW  Elec       q    Type
REMARK                         _______ _______ _______ _____ _____    ______ ____
ROOT
ATOM      1  C   UNL     1       0.040   1.395   0.032  0.00  0.00    +0.012 C 
ATOM      2  C   UNL     1       0.104  -0.129   0.011  0.00  0.00    -0.026 C 
ATOM      3  C   UNL     1      -1.314  -0.685   0.213  0.00  0.00    +0.007 C 
ATOM      4  C   UNL     1      -1.888  -0.223   1.550  0.00  0.00    +0.001 C 
ATOM      5  C   UNL     1      -0.993  -0.677   2.702  0.00  0.00    +0.000 C 
ATOM      6  C   UNL     1       0.427  -0.141   2.504  0.00  0.00    +0.004 C 
ATOM      7  C   UNL     1       0.973  -0.633   1.169  0.00  0.00    -0.005 C 
ATOM      8  C   UNL     1       2.416  -0.177   0.975  0.00  0.00    +0.004 C 
ATOM      9  C   UNL     1       2.974  -0.803  -0.304  0.00  0.00    +0.004 C 
ATOM     10  C   UNL     1       2.139  -0.396  -1.516  0.00  0.00    -0.004 C 
ATOM     11  C   UNL     1       0.665  -0.663  -1.297  0.00  0.00    -0.001 C 
ATOM     12  C   UNL     1      -0.152  -0.273  -2.518  0.00  0.00    +0.005 C 
ATOM     13  C   UNL     1       0.142   1.125  -3.026  0.00  0.00    +0.010 C 
ATOM     14  C   UNL     1       1.605   1.474  -3.135  0.00  0.00    +0.001 C 
ATOM     15  C   UNL     1       2.454   1.033  -1.935  0.00  0.00    +0.001 C 
ATOM     16  C   UNL     1       3.897   1.029  -2.519  0.00  0.00    +0.007 C 
ATOM     17  C   UNL     1       3.726   0.559  -3.977  0.00  0.00    +0.037 C 
ATOM     18  C   UNL     1       2.276   0.888  -4.381  0.00  0.00    +0.089 C 
ATOM     19  C   UNL     1       1.702   3.009  -3.236  0.00  0.00    +0.014 C 
ENDROOT
BRANCH  18  20
ATOM     20  O   UNL     1       1.606  -0.295  -4.816  0.00  0.00    -0.386 OA
ATOM     21  H   UNL     1       1.996  -0.701  -5.602  0.00  0.00    +0.210 HD
ENDBRANCH  18  20
BRANCH  18  22
ATOM     22  C   UNL     1       2.277   1.927  -5.509  0.00  0.00    +0.147 C 
BRANCH  22  23
ATOM     23  N   UNL     1       2.920   1.359  -6.696  0.00  0.00    -0.387 N 
ATOM     24  C   UNL     1       2.207   1.159  -7.814  0.00  0.00    +0.090 C 
ATOM     25  H   UNL     1       3.862   1.127  -6.673  0.00  0.00    +0.159 HD
BRANCH  24  26
ATOM     26  C   UNL     1       2.783   0.496  -8.901  0.00  0.00    +0.039 A 
ATOM     27  C   UNL     1       2.090   0.381 -10.126  0.00  0.00    +0.045 A 
ATOM     28  C   UNL     1       2.667  -0.268 -11.172  0.00  0.00    +0.127 A 
ATOM     29  C   UNL     1       3.937  -0.828 -11.069  0.00  0.00    +0.036 A 
ATOM     30  C   UNL     1       4.658  -0.753  -9.916  0.00  0.00    +0.054 A 
ATOM     31  C   UNL     1       4.125  -0.090  -8.797  0.00  0.00    +0.188 A 
ATOM     32  O   UNL     1       4.763  -0.010  -7.756  0.00  0.00    -0.287 OA
BRANCH  28  33
ATOM     33  N   UNL     1       1.928  -0.380 -12.450  0.00  0.00    +0.056 N 
ATOM     34  O   UNL     1       0.824   0.102 -12.554  0.00  0.00    -0.126 OA
ATOM     35  O   UNL     1       2.429  -0.954 -13.389  0.00  0.00    -0.126 OA
ENDBRANCH  28  33
ENDBRANCH  24  26
ENDBRANCH  22  23
ENDBRANCH  18  22
TORSDOF 5
