REMARK  Name = ZINC15225156
REMARK  7 active torsions:
REMARK  status: ('A' for Active; 'I' for Inactive)
REMARK    1  A    between atoms: C_7  and  C_17
REMARK    2  A    between atoms: C_9  and  C_11
REMARK    3  A    between atoms: C_17  and  O_19
REMARK    4  A    between atoms: O_19  and  C_20
REMARK    5  A    between atoms: C_20  and  C_21
REMARK    6  A    between atoms: N_23  and  C_24
REMARK    7  A    between atoms: C_25  and  C_29
REMARK                            x       y       z     vdW  Elec       q    Type
REMARK                         _______ _______ _______ _____ _____    ______ ____
ROOT
ATOM      1  C   UNL     1      -3.672   1.484   0.028  0.00  0.00    +0.340 C 
ATOM      2  O   UNL     1      -3.848   2.686   0.028  0.00  0.00    -0.245 OA
ENDROOT
BRANCH   1   9
ATOM      3  C   UNL     1      -7.756   2.871   0.372  0.00  0.00    +0.001 A 
ATOM      4  C   UNL     1      -8.813   1.964   0.366  0.00  0.00    +0.002 A 
ATOM      5  C   UNL     1      -8.590   0.625   0.254  0.00  0.00    +0.028 A 
ATOM      6  C   UNL     1      -7.272   0.145   0.140  0.00  0.00    +0.072 A 
ATOM      7  C   UNL     1      -6.201   1.073   0.146  0.00  0.00    +0.014 A 
ATOM      8  C   UNL     1      -6.466   2.441   0.263  0.00  0.00    +0.011 A 
ATOM      9  C   UNL     1      -4.832   0.568   0.028  0.00  0.00    +0.070 A 
ATOM     10  C   UNL     1      -4.667  -0.804  -0.089  0.00  0.00    +0.044 A 
ATOM     11  C   UNL     1      -5.798  -1.639  -0.080  0.00  0.00    +0.079 A 
ATOM     12  N   UNL     1      -7.024  -1.161   0.028  0.00  0.00    -0.246 NA
BRANCH  11  13
ATOM     13  C   UNL     1      -5.610  -3.096  -0.200  0.00  0.00    +0.039 A 
ATOM     14  C   UNL     1      -6.553  -4.091  -0.212  0.00  0.00    +0.019 A 
ATOM     15  C   UNL     1      -6.137  -5.396  -0.340  0.00  0.00    +0.028 A 
ATOM     16  C   UNL     1      -4.806  -5.660  -0.438  0.00  0.00    +0.079 A 
ATOM     17  S   UNL     1      -4.093  -4.025  -0.358  0.00  0.00    -0.075 S 
ATOM     18 CL   UNL     1      -4.006  -7.192  -0.599  0.00  0.00    -0.076 Cl
ENDBRANCH  11  13
ENDBRANCH   1   9
BRANCH   1  19
ATOM     19  O   UNL     1      -2.420   0.986   0.026  0.00  0.00    -0.452 OA
BRANCH  19  20
ATOM     20  C   UNL     1      -1.329   1.944   0.026  0.00  0.00    +0.328 C 
BRANCH  20  21
ATOM     21  C   UNL     1      -0.014   1.209   0.024  0.00  0.00    +0.255 C 
ATOM     22  O   UNL     1       0.002  -0.004   0.024  0.00  0.00    -0.272 OA
ATOM     23  N   UNL     1       1.144   1.898   0.018  0.00  0.00    -0.277 N 
ATOM     24  H   UNL     1       1.130   2.868   0.019  0.00  0.00    +0.155 HD
BRANCH  23  25
ATOM     25  C   UNL     1       2.354   1.221   0.011  0.00  0.00    +0.084 A 
ATOM     26  C   UNL     1       3.639   1.750  -0.002  0.00  0.00    +0.065 A 
ATOM     27  C   UNL     1       4.730   0.805  -0.002  0.00  0.00    +0.022 A 
ATOM     28  C   UNL     1       4.411  -0.501  -0.001  0.00  0.00    +0.048 A 
ATOM     29  S   UNL     1       2.630  -0.488   0.008  0.00  0.00    -0.081 S 
BRANCH  26  30
ATOM     30  C   UNL     1       3.875   3.197  -0.010  0.00  0.00    +0.244 C 
ATOM     31  O   UNL     1       2.932   3.968  -0.006  0.00  0.00    -0.270 OA
ATOM     32  N   UNL     1       5.135   3.675  -0.022  0.00  0.00    -0.325 N 
ATOM     33  H   UNL     1       5.886   3.061  -0.025  0.00  0.00    +0.145 HD
ATOM     34  H   UNL     1       5.291   4.632  -0.028  0.00  0.00    +0.145 HD
ENDBRANCH  26  30
ENDBRANCH  23  25
ENDBRANCH  20  21
ENDBRANCH  19  20
ENDBRANCH   1  19
TORSDOF 7
