REMARK  Name = ZINC06168247
REMARK  10 active torsions:
REMARK  status: ('A' for Active; 'I' for Inactive)
REMARK    1  A    between atoms: C_1  and  C_2
REMARK    2  A    between atoms: C_2  and  C_3
REMARK    3  A    between atoms: C_3  and  C_5
REMARK    4  A    between atoms: C_3  and  C_6
REMARK    5  A    between atoms: C_6  and  C_8
REMARK    6  A    between atoms: C_6  and  N_23
REMARK    7  A    between atoms: N_10  and  N_11
REMARK    8  A    between atoms: C_12  and  C_14
REMARK    9  A    between atoms: C_14  and  O_15
REMARK   10  A    between atoms: O_15  and  C_16
REMARK                            x       y       z     vdW  Elec       q    Type
REMARK                         _______ _______ _______ _____ _____    ______ ____
ROOT
ATOM      1  C   UNL     1      -0.044   0.961   4.983  0.00  0.00    +0.250 C 
ATOM      2  O   UNL     1      -0.404  -0.061   5.529  0.00  0.00    -0.272 OA
ATOM      3  N   UNL     1       1.008   1.649   5.468  0.00  0.00    -0.233 N 
ATOM      4  H   UNL     1       1.297   2.466   5.032  0.00  0.00    +0.173 HD
ENDROOT
BRANCH   3   5
ATOM      5  N   UNL     1       1.686   1.185   6.603  0.00  0.00    -0.232 N 
ATOM      6  C   UNL     1       2.738   1.873   7.088  0.00  0.00    +0.267 C 
ATOM      7  O   UNL     1       3.099   2.895   6.542  0.00  0.00    -0.271 OA
ATOM      8  H   UNL     1       1.398   0.368   7.040  0.00  0.00    +0.173 HD
BRANCH   6   9
ATOM      9  C   UNL     1       3.467   1.374   8.309  0.00  0.00    +0.326 C 
BRANCH   9  10
ATOM     10  O   UNL     1       4.536   2.269   8.625  0.00  0.00    -0.483 OA
BRANCH  10  11
ATOM     11  C   UNL     1       5.298   1.961   9.707  0.00  0.00    +0.122 A 
ATOM     12  C   UNL     1       5.020   0.825  10.453  0.00  0.00    +0.046 A 
ATOM     13  C   UNL     1       5.798   0.512  11.550  0.00  0.00    +0.005 A 
ATOM     14  C   UNL     1       6.849   1.335  11.912  0.00  0.00    +0.015 A 
ATOM     15  C   UNL     1       7.126   2.472  11.172  0.00  0.00    +0.021 A 
ATOM     16  C   UNL     1       6.352   2.786  10.071  0.00  0.00    +0.061 A 
ATOM     17 BR   UNL     1       8.563   3.595  11.670  0.00  0.00    -0.050 Br
ENDBRANCH  10  11
ENDBRANCH   9  10
ENDBRANCH   6   9
ENDBRANCH   3   5
BRANCH   1  18
ATOM     18  C   UNL     1      -0.772   1.460   3.762  0.00  0.00    +0.165 C 
BRANCH  18  19
ATOM     19  N   UNL     1      -2.107   0.858   3.710  0.00  0.00    -0.288 N 
ATOM     20  C   UNL     1      -2.240  -0.482   3.643  0.00  0.00    +0.298 C 
ATOM     21  O   UNL     1      -1.252  -1.191   3.627  0.00  0.00    -0.253 OA
ATOM     22  N   UNL     1      -3.468  -1.036   3.595  0.00  0.00    -0.313 N 
ATOM     23  H   UNL     1      -2.895   1.423   3.723  0.00  0.00    +0.151 HD
ATOM     24  H   UNL     1      -4.256  -0.470   3.609  0.00  0.00    +0.146 HD
ATOM     25  H   UNL     1      -3.563  -2.000   3.547  0.00  0.00    +0.146 HD
ENDBRANCH  18  19
BRANCH  18  26
ATOM     26  C   UNL     1       0.011   1.072   2.506  0.00  0.00    +0.015 C 
ATOM     27  C   UNL     1       1.405   1.701   2.561  0.00  0.00    +0.010 C 
BRANCH  26  29
ATOM     28  C   UNL     1      -0.013   1.086   0.008  0.00  0.00    +0.004 C 
ATOM     29  C   UNL     1      -0.729   1.579   1.267  0.00  0.00    +0.002 C 
ENDBRANCH  26  29
ENDBRANCH  18  26
ENDBRANCH   1  18
TORSDOF 8
