REMARK  Name = ZINC04623398
REMARK  2 active torsions:
REMARK  status: ('A' for Active; 'I' for Inactive)
REMARK    1  A    between atoms: C_5  and  C_7
REMARK    2  A    between atoms: C_17  and  N_24
REMARK                            x       y       z     vdW  Elec       q    Type
REMARK                         _______ _______ _______ _____ _____    ______ ____
ROOT
ATOM      1  C   UNL     1       3.733  -0.940  -0.000  0.00  0.00    +0.123 C 
ATOM      2  C   UNL     1       3.748  -1.892   1.185  0.00  0.00    +0.030 C 
ATOM      3  C   UNL     1       5.175  -2.451   1.408  0.00  0.00    +0.033 C 
ATOM      4  C   UNL     1       5.228  -2.673   2.908  0.00  0.00    -0.030 C 
ATOM      5  C   UNL     1       4.328  -1.940   3.513  0.00  0.00    -0.023 C 
ATOM      6  C   UNL     1       3.541  -1.120   2.503  0.00  0.00    +0.051 C 
ATOM      7  C   UNL     1       4.158   0.252   2.437  0.00  0.00    +0.012 A 
ATOM      8  C   UNL     1       4.112   1.035   3.584  0.00  0.00    +0.132 A 
ATOM      9  C   UNL     1       4.655   2.303   3.592  0.00  0.00    +0.034 A 
ATOM     10  C   UNL     1       5.253   2.807   2.451  0.00  0.00    +0.024 A 
ATOM     11  C   UNL     1       5.304   2.037   1.307  0.00  0.00    +0.062 A 
ATOM     12  C   UNL     1       4.755   0.754   1.297  0.00  0.00    +0.052 A 
ATOM     13  N   UNL     1       4.834   0.018   0.114  0.00  0.00    -0.334 N 
ATOM     14 CL   UNL     1       6.055   2.668  -0.126  0.00  0.00    -0.082 Cl
ATOM     15  H   UNL     1       5.727  -0.446   0.036  0.00  0.00    +0.147 HD
ENDROOT
BRANCH   1  20
ATOM     16  C   UNL     1       1.213   1.862  -0.074  0.00  0.00    +0.003 A 
ATOM     17  C   UNL     1       0.042   1.119  -0.072  0.00  0.00    +0.020 A 
ATOM     18  C   UNL     1       0.120  -0.261  -0.048  0.00  0.00    +0.111 A 
ATOM     19  N   UNL     1       1.290  -0.870  -0.026  0.00  0.00    -0.258 NA
ATOM     20  C   UNL     1       2.423  -0.195  -0.027  0.00  0.00    +0.062 A 
ATOM     21  C   UNL     1       2.423   1.187  -0.051  0.00  0.00    +0.025 A 
ENDBRANCH   1  20
BRANCH   8  22
ATOM     22  N   UNL     1       3.474   0.503   4.809  0.00  0.00    +0.057 N 
ATOM     23  O   UNL     1       2.468  -0.179   4.725  0.00  0.00    -0.126 OA
ATOM     24  O   UNL     1       3.954   0.748   5.901  0.00  0.00    -0.126 OA
ENDBRANCH   8  22
TORSDOF 2
