REMARK  Name = ZINC63375963
REMARK  6 active torsions:
REMARK  status: ('A' for Active; 'I' for Inactive)
REMARK    1  A    between atoms: C_1  and  C_2
REMARK    2  A    between atoms: C_13  and  C_16
REMARK    3  A    between atoms: C_16  and  C_17
REMARK    4  A    between atoms: N_28  and  C_31
REMARK    5  A    between atoms: C_34  and  O_37
REMARK    6  A    between atoms: O_37  and  C_38
REMARK                            x       y       z     vdW  Elec       q    Type
REMARK                         _______ _______ _______ _____ _____    ______ ____
ROOT
ATOM      1  C   UNL     1       0.290   1.930   0.631  0.00  0.00    +0.044 C 
ATOM      2  C   UNL     1       0.382   0.435   0.465  0.00  0.00    -0.050 A 
ATOM      3  C   UNL     1       0.579  -0.111  -0.791  0.00  0.00    +0.005 A 
ATOM      4  C   UNL     1       0.663  -1.479  -0.949  0.00  0.00    +0.024 A 
ATOM      5  C   UNL     1       0.552  -2.321   0.155  0.00  0.00    +0.039 A 
ATOM      6  C   UNL     1       0.355  -1.759   1.414  0.00  0.00    +0.004 A 
ATOM      7  C   UNL     1       0.275  -0.393   1.567  0.00  0.00    +0.011 A 
ATOM      8  C   UNL     1       0.282  -2.914   2.372  0.00  0.00    +0.136 C 
ATOM      9  C   UNL     1      -1.052  -2.941   3.126  0.00  0.00    +0.123 C 
ATOM     10  C   UNL     1      -0.738  -2.292   4.503  0.00  0.00    +0.107 C 
ATOM     11  C   UNL     1       0.761  -1.929   4.436  0.00  0.00    +0.072 C 
ATOM     12  N   UNL     1       1.331  -2.827   3.405  0.00  0.00    -0.295 NA
ATOM     13  C   UNL     1      -1.569  -1.029   4.490  0.00  0.00    +0.232 C 
ATOM     14  O   UNL     1      -1.623  -0.216   5.388  0.00  0.00    -0.274 OA
ATOM     15  N   UNL     1      -2.237  -0.948   3.333  0.00  0.00    -0.210 N 
ATOM     16  C   UNL     1      -2.024  -1.978   2.483  0.00  0.00    +0.233 C 
ATOM     17  O   UNL     1      -2.522  -2.113   1.387  0.00  0.00    -0.274 OA
ATOM     18  C   UNL     1       0.455  -4.142   1.518  0.00  0.00    +0.243 C 
ATOM     19  O   UNL     1       0.459  -5.293   1.899  0.00  0.00    -0.273 OA
ATOM     20  N   UNL     1       0.603  -3.713   0.250  0.00  0.00    -0.283 N 
ATOM     21  H   UNL     1       1.527  -3.735   3.799  0.00  0.00    +0.124 HD
ATOM     22  H   UNL     1       0.731  -4.303  -0.509  0.00  0.00    +0.155 HD
ENDROOT
BRANCH  15  23
ATOM     23  C   UNL     1      -3.096   0.119   3.026  0.00  0.00    +0.044 A 
ATOM     24  C   UNL     1      -4.458  -0.107   2.878  0.00  0.00    +0.027 A 
ATOM     25  C   UNL     1      -5.303   0.942   2.577  0.00  0.00    +0.047 A 
ATOM     26  C   UNL     1      -4.791   2.222   2.421  0.00  0.00    +0.120 A 
ATOM     27  C   UNL     1      -3.431   2.449   2.568  0.00  0.00    +0.047 A 
ATOM     28  C   UNL     1      -2.586   1.401   2.876  0.00  0.00    +0.027 A 
BRANCH  26  29
ATOM     29  O   UNL     1      -5.624   3.255   2.124  0.00  0.00    -0.495 OA
ATOM     30  C   UNL     1      -5.029   4.546   1.978  0.00  0.00    +0.277 C 
ENDBRANCH  26  29
ENDBRANCH  15  23
BRANCH  11  31
ATOM     31  C   UNL     1       1.426  -2.160   5.795  0.00  0.00    +0.052 C 
BRANCH  31  32
ATOM     32  C   UNL     1       2.855  -1.685   5.741  0.00  0.00    -0.040 C 
ATOM     33  C   UNL     1       3.326  -0.477   6.127  0.00  0.00    -0.001 A 
ATOM     34  C   UNL     1       2.673   0.711   6.688  0.00  0.00    +0.010 A 
ATOM     35  C   UNL     1       3.426   1.797   6.979  0.00  0.00    +0.001 A 
ATOM     36  C   UNL     1       4.810   1.815   6.759  0.00  0.00    +0.002 A 
ATOM     37  C   UNL     1       5.480   0.762   6.247  0.00  0.00    +0.026 A 
ATOM     38  C   UNL     1       4.789  -0.433   5.904  0.00  0.00    +0.043 A 
ATOM     39  N   UNL     1       5.206  -1.569   5.400  0.00  0.00    -0.380 N 
ATOM     40  C   UNL     1       4.055  -2.466   5.252  0.00  0.00    +0.144 C 
ATOM     41  H   UNL     1       6.124  -1.782   5.168  0.00  0.00    +0.160 HD
ENDBRANCH  31  32
ENDBRANCH  11  31
TORSDOF 4
