REMARK  Name = ZINC13500550
REMARK  14 active torsions:
REMARK  status: ('A' for Active; 'I' for Inactive)
REMARK    1  A    between atoms: C_1  and  C_2
REMARK    2  A    between atoms: C_9  and  C_14
REMARK    3  A    between atoms: C_14  and  N_66
REMARK    4  A    between atoms: C_15  and  C_16
REMARK    5  A    between atoms: C_15  and  N_66
REMARK    6  A    between atoms: C_16  and  C_17
REMARK    7  A    between atoms: C_17  and  O_18
REMARK    8  A    between atoms: C_19  and  C_21
REMARK    9  A    between atoms: C_19  and  C_34
REMARK   10  A    between atoms: C_19  and  N_66
REMARK   11  A    between atoms: N_25  and  C_26
REMARK   12  A    between atoms: C_26  and  C_27
REMARK   13  A    between atoms: C_34  and  C_35
REMARK   14  A    between atoms: C_34  and  C_36
REMARK                            x       y       z     vdW  Elec       q    Type
REMARK                         _______ _______ _______ _____ _____    ______ ____
ROOT
ATOM      1  N   UNL     1      -2.566   4.568   0.695  0.00  0.00    +0.389 N 
ATOM      2  H   UNL     1      -2.613   3.614   1.072  0.00  0.00    -0.080 HD
ENDROOT
BRANCH   1   3
ATOM      3  C   UNL     1      -2.447   4.497  -0.776  0.00  0.00    -0.037 C 
BRANCH   3  12
ATOM      4  C   UNL     1      -0.539  -2.462  -2.659  0.00  0.00    +0.044 C 
ATOM      5  C   UNL     1      -0.166  -1.036  -2.347  0.00  0.00    -0.050 A 
ATOM      6  C   UNL     1       1.168  -0.650  -2.381  0.00  0.00    +0.005 A 
ATOM      7  C   UNL     1       1.532   0.648  -2.099  0.00  0.00    +0.026 A 
ATOM      8  C   UNL     1       0.555   1.584  -1.775  0.00  0.00    +0.049 A 
ATOM      9  C   UNL     1      -0.796   1.190  -1.741  0.00  0.00    -0.001 A 
ATOM     10  C   UNL     1      -1.142  -0.134  -2.032  0.00  0.00    +0.013 A 
ATOM     11  C   UNL     1      -1.816   2.181  -1.394  0.00  0.00    +0.017 A 
ATOM     12  C   UNL     1      -1.422   3.451  -1.129  0.00  0.00    +0.001 A 
ATOM     13  C   UNL     1      -0.054   3.795  -1.177  0.00  0.00    +0.251 A 
ATOM     14  O   UNL     1       0.280   4.941  -0.930  0.00  0.00    -0.268 OA
ATOM     15  N   UNL     1       0.891   2.890  -1.489  0.00  0.00    -0.322 N 
ATOM     16  H   UNL     1       1.822   3.161  -1.512  0.00  0.00    +0.169 HD
ENDBRANCH   3  12
ENDBRANCH   1   3
BRANCH   1  17
ATOM     17  C   UNL     1      -1.386   5.252   1.265  0.00  0.00    -0.075 C 
BRANCH  17  18
ATOM     18  C   UNL     1      -1.369   5.025   2.778  0.00  0.00    +0.009 C 
BRANCH  18  19
ATOM     19  C   UNL     1      -0.077   5.597   3.365  0.00  0.00    +0.154 C 
BRANCH  19  20
ATOM     20  O   UNL     1      -0.008   5.287   4.758  0.00  0.00    -0.395 OA
ATOM     21  H   UNL     1       0.787   5.619   5.196  0.00  0.00    +0.209 HD
ENDBRANCH  19  20
ENDBRANCH  18  19
ENDBRANCH  17  18
ENDBRANCH   1  17
BRANCH   1  22
ATOM     22  C   UNL     1      -3.799   5.293   1.068  0.00  0.00    +0.006 C 
BRANCH  22  23
ATOM     23  C   UNL     1      -4.136   6.327   0.026  0.00  0.00    +0.139 A 
ATOM     24  N   UNL     1      -4.142   6.155  -1.274  0.00  0.00    -0.115 NA
ATOM     25  N   UNL     1      -4.481   7.272  -1.821  0.00  0.00    -0.023 NA
ATOM     26  N   UNL     1      -4.691   8.151  -0.904  0.00  0.00    -0.044 NA
ATOM     27  N   UNL     1      -4.494   7.606   0.248  0.00  0.00    -0.226 N 
BRANCH  27  28
ATOM     28  C   UNL     1      -4.630   8.256   1.554  0.00  0.00    +0.182 C 
BRANCH  28  29
ATOM     29  C   UNL     1      -3.373   9.028   1.863  0.00  0.00    -0.026 A 
ATOM     30  C   UNL     1      -2.323   8.407   2.514  0.00  0.00    +0.008 A 
ATOM     31  C   UNL     1      -1.168   9.113   2.794  0.00  0.00    +0.038 A 
ATOM     32  C   UNL     1      -1.067  10.445   2.433  0.00  0.00    +0.123 A 
ATOM     33  C   UNL     1      -2.121  11.068   1.786  0.00  0.00    +0.038 A 
ATOM     34  C   UNL     1      -3.273  10.359   1.502  0.00  0.00    +0.008 A 
ATOM     35  F   UNL     1       0.059  11.138   2.710  0.00  0.00    -0.205 F 
ENDBRANCH  28  29
ENDBRANCH  27  28
ENDBRANCH  22  23
BRANCH  22  36
ATOM     36  C   UNL     1      -4.944   4.283   1.174  0.00  0.00    -0.024 C 
ATOM     37  C   UNL     1      -6.234   5.013   1.552  0.00  0.00    +0.006 C 
ATOM     38  C   UNL     1      -5.131   3.582  -0.173  0.00  0.00    +0.006 C 
ENDBRANCH  22  36
ENDBRANCH   1  22
TORSDOF 11
