REMARK  Name = ZINC64015339
REMARK  7 active torsions:
REMARK  status: ('A' for Active; 'I' for Inactive)
REMARK    1  A    between atoms: C_1  and  S_2
REMARK    2  A    between atoms: S_2  and  C_3
REMARK    3  A    between atoms: C_6  and  N_9
REMARK    4  A    between atoms: C_10  and  C_12
REMARK    5  A    between atoms: C_21  and  C_23
REMARK    6  A    between atoms: C_23  and  C_24
REMARK    7  A    between atoms: C_24  and  C_25
REMARK                            x       y       z     vdW  Elec       q    Type
REMARK                         _______ _______ _______ _____ _____    ______ ____
ROOT
ATOM      1  C   UNL     1      -7.486  -3.409   0.051  0.00  0.00    +0.082 C 
ATOM      2  C   UNL     1      -8.006  -4.056   1.337  0.00  0.00    +0.021 C 
ATOM      3  C   UNL     1      -7.710  -4.920   0.111  0.00  0.00    -0.015 C 
ATOM      4  C   UNL     1      -6.473  -5.822   0.157  0.00  0.00    +0.026 C 
ATOM      5  C   UNL     1      -6.877  -7.185   0.733  0.00  0.00    +0.108 C 
ATOM      6  N   UNL     1      -8.043  -7.684  -0.007  0.00  0.00    -0.301 N 
ATOM      7  C   UNL     1      -9.259  -6.864  -0.068  0.00  0.00    +0.108 C 
ATOM      8  C   UNL     1      -8.903  -5.494  -0.659  0.00  0.00    +0.026 C 
ATOM      9  C   UNL     1      -7.997  -8.882  -0.624  0.00  0.00    +0.216 C 
ATOM     10  O   UNL     1      -6.989  -9.553  -0.570  0.00  0.00    -0.276 OA
ENDROOT
BRANCH   1  12
ATOM     11  N   UNL     1      -5.372  -2.863  -1.109  0.00  0.00    -0.285 N 
ATOM     12  C   UNL     1      -6.062  -2.916   0.047  0.00  0.00    +0.221 C 
ATOM     13  O   UNL     1      -5.538  -2.568   1.083  0.00  0.00    -0.275 OA
ATOM     14  H   UNL     1      -5.813  -3.069  -1.948  0.00  0.00    +0.155 HD
BRANCH  11  18
ATOM     15  C   UNL     1      -1.335  -1.813  -1.081  0.00  0.00    +0.008 A 
ATOM     16  C   UNL     1      -1.876  -2.523  -0.016  0.00  0.00    +0.016 A 
ATOM     17  C   UNL     1      -3.212  -2.870  -0.026  0.00  0.00    +0.024 A 
ATOM     18  C   UNL     1      -4.015  -2.510  -1.100  0.00  0.00    +0.033 A 
ATOM     19  C   UNL     1      -3.475  -1.800  -2.164  0.00  0.00    +0.024 A 
ATOM     20  C   UNL     1      -2.141  -1.447  -2.152  0.00  0.00    +0.016 A 
BRANCH  15  22
ATOM     21  C   UNL     1       0.989  -2.049   0.495  0.00  0.00    +0.090 C 
ATOM     22  S   UNL     1       0.370  -1.369  -1.069  0.00  0.00    -0.129 S 
ENDBRANCH  15  22
ENDBRANCH  11  18
ENDBRANCH   1  12
BRANCH   9  23
ATOM     23  C   UNL     1      -9.199  -9.386  -1.381  0.00  0.00    +0.100 C 
BRANCH  23  24
ATOM     24  C   UNL     1      -8.884 -10.758  -1.981  0.00  0.00    +0.056 C 
BRANCH  24  25
ATOM     25  C   UNL     1     -10.104 -11.269  -2.750  0.00  0.00    +0.174 C 
ATOM     26  N   UNL     1     -11.241 -11.440  -1.836  0.00  0.00    -0.363 N 
ATOM     27  C   UNL     1     -11.579 -12.697  -1.863  0.00  0.00    +0.060 A 
ATOM     28  C   UNL     1     -12.625 -13.464  -1.172  0.00  0.00    +0.030 A 
ATOM     29  C   UNL     1     -12.742 -14.786  -1.402  0.00  0.00    +0.040 A 
ATOM     30  C   UNL     1     -11.894 -15.480  -2.289  0.00  0.00    +0.125 A 
ATOM     31  C   UNL     1     -10.901 -14.869  -2.973  0.00  0.00    +0.065 A 
ATOM     32  C   UNL     1     -10.682 -13.429  -2.799  0.00  0.00    +0.063 A 
ATOM     33  N   UNL     1      -9.823 -12.595  -3.316  0.00  0.00    -0.363 N 
ATOM     34  F   UNL     1     -12.080 -16.807  -2.461  0.00  0.00    -0.205 F 
ATOM     35  H   UNL     1     -11.662 -10.744  -1.308  0.00  0.00    +0.162 HD
ATOM     36  H   UNL     1      -9.127 -12.810  -3.956  0.00  0.00    +0.162 HD
ENDBRANCH  24  25
ENDBRANCH  23  24
ENDBRANCH   9  23
TORSDOF 6
