REMARK  Name = ZINC35174009
REMARK  16 active torsions:
REMARK  status: ('A' for Active; 'I' for Inactive)
REMARK    1  A    between atoms: C_1  and  C_2
REMARK    2  A    between atoms: C_2  and  C_3
REMARK    3  A    between atoms: C_3  and  C_4
REMARK    4  A    between atoms: C_4  and  C_5
REMARK    5  A    between atoms: C_5  and  C_6
REMARK    6  A    between atoms: C_6  and  C_7
REMARK    7  A    between atoms: C_10  and  C_13
REMARK    8  A    between atoms: C_13  and  O_15
REMARK    9  A    between atoms: O_15  and  C_16
REMARK   10  A    between atoms: C_20  and  C_22
REMARK   11  A    between atoms: C_23  and  N_32
REMARK   12  A    between atoms: C_27  and  C_31
REMARK   13  A    between atoms: N_32  and  C_33
REMARK   14  A    between atoms: C_33  and  C_34
REMARK   15  A    between atoms: C_33  and  C_35
REMARK   16  A    between atoms: C_33  and  C_36
REMARK                            x       y       z     vdW  Elec       q    Type
REMARK                         _______ _______ _______ _____ _____    ______ ____
ROOT
ATOM      1  C   UNL     1       0.863  -6.116  11.746  0.00  0.00    +0.133 A 
ATOM      2  C   UNL     1       2.121  -5.582  11.497  0.00  0.00    +0.046 A 
ATOM      3  C   UNL     1       3.214  -6.005  12.230  0.00  0.00    +0.004 A 
ATOM      4  C   UNL     1       3.061  -6.960  13.215  0.00  0.00    +0.010 A 
ATOM      5  C   UNL     1       1.802  -7.501  13.472  0.00  0.00    +0.005 A 
ATOM      6  C   UNL     1       0.700  -7.071  12.735  0.00  0.00    +0.056 A 
ENDROOT
BRANCH   5   7
ATOM      7  C   UNL     1       1.635  -8.527  14.528  0.00  0.00    +0.087 A 
ATOM      8  C   UNL     1       2.455  -9.616  14.736  0.00  0.00    +0.129 A 
ATOM      9  N   UNL     1       1.944 -10.298  15.806  0.00  0.00    -0.289 N 
ATOM     10  C   UNL     1       2.343 -11.439  16.448  0.00  0.00    +0.094 A 
ATOM     11  C   UNL     1       1.649 -11.912  17.501  0.00  0.00    +0.021 A 
ATOM     12  C   UNL     1       0.502 -11.238  17.957  0.00  0.00    -0.046 A 
ATOM     13  C   UNL     1       0.092 -10.103  17.332  0.00  0.00    +0.048 A 
ATOM     14  C   UNL     1       0.826  -9.616  16.229  0.00  0.00    +0.117 A 
ATOM     15  N   UNL     1       0.661  -8.556  15.455  0.00  0.00    -0.338 N 
ATOM     16  C   UNL     1      -0.271 -11.773  19.135  0.00  0.00    +0.044 C 
ATOM     17  H   UNL     1      -0.052  -7.904  15.541  0.00  0.00    +0.167 HD
BRANCH   8  18
ATOM     18  N   UNL     1       3.588  -9.957  13.997  0.00  0.00    -0.324 N 
ATOM     19  H   UNL     1       3.923  -9.354  13.316  0.00  0.00    +0.148 HD
BRANCH  18  20
ATOM     20  C   UNL     1       4.273 -11.227  14.251  0.00  0.00    +0.025 C 
ATOM     21  C   UNL     1       3.275 -12.380  14.122  0.00  0.00    +0.031 C 
ATOM     22  C   UNL     1       5.400 -11.412  13.232  0.00  0.00    +0.031 C 
ATOM     23  C   UNL     1       4.861 -11.217  15.664  0.00  0.00    +0.031 C 
ENDBRANCH  18  20
ENDBRANCH   8  18
ENDBRANCH   5   7
BRANCH   1  24
ATOM     24  O   UNL     1      -0.208  -5.697  11.023  0.00  0.00    -0.422 OA
BRANCH  24  25
ATOM     25  C   UNL     1      -0.347  -6.166   9.768  0.00  0.00    +0.344 C 
ATOM     26  O   UNL     1       0.517  -6.869   9.283  0.00  0.00    -0.245 OA
BRANCH  25  30
ATOM     27  C   UNL     1      -3.807  -5.192   7.506  0.00  0.00    -0.047 A 
ATOM     28  C   UNL     1      -2.824  -5.992   6.951  0.00  0.00    +0.004 A 
ATOM     29  C   UNL     1      -1.698  -6.312   7.680  0.00  0.00    +0.015 A 
ATOM     30  C   UNL     1      -1.550  -5.827   8.981  0.00  0.00    +0.059 A 
ATOM     31  C   UNL     1      -2.546  -5.020   9.535  0.00  0.00    +0.015 A 
ATOM     32  C   UNL     1      -3.665  -4.703   8.793  0.00  0.00    +0.004 A 
BRANCH  27  33
ATOM     33  C   UNL     1      -5.035  -4.846   6.704  0.00  0.00    +0.035 C 
BRANCH  33  34
ATOM     34  C   UNL     1      -4.783  -3.560   5.914  0.00  0.00    +0.005 C 
BRANCH  34  35
ATOM     35  C   UNL     1      -6.029  -3.209   5.099  0.00  0.00    +0.000 C 
BRANCH  35  36
ATOM     36  C   UNL     1      -5.777  -1.923   4.310  0.00  0.00    -0.000 C 
BRANCH  36  38
ATOM     37  C   UNL     1      -6.772  -0.286   2.706  0.00  0.00    +0.004 C 
ATOM     38  C   UNL     1      -7.024  -1.573   3.495  0.00  0.00    -0.003 C 
ENDBRANCH  36  38
ENDBRANCH  35  36
ENDBRANCH  34  35
ENDBRANCH  33  34
ENDBRANCH  27  33
ENDBRANCH  25  30
ENDBRANCH  24  25
ENDBRANCH   1  24
TORSDOF 11
