REMARK  Name = ZINC63494694
REMARK  6 active torsions:
REMARK  status: ('A' for Active; 'I' for Inactive)
REMARK    1  A    between atoms: C_1  and  C_2
REMARK    2  A    between atoms: C_6  and  C_8
REMARK    3  A    between atoms: C_19  and  N_23
REMARK    4  A    between atoms: N_23  and  C_24
REMARK    5  A    between atoms: C_24  and  C_25
REMARK    6  A    between atoms: C_25  and  C_26
REMARK                            x       y       z     vdW  Elec       q    Type
REMARK                         _______ _______ _______ _____ _____    ______ ____
ROOT
ATOM      1  C   UNL     1       0.054  -2.845   2.489  0.00  0.00    +0.188 C 
ATOM      2  N   UNL     1      -0.711  -2.119   3.523  0.00  0.00    -0.311 N 
ATOM      3  C   UNL     1      -1.907  -2.743   3.591  0.00  0.00    +0.114 C 
ATOM      4  C   UNL     1      -3.144  -2.268   4.062  0.00  0.00    +0.035 A 
ATOM      5  C   UNL     1      -3.319  -0.992   4.605  0.00  0.00    +0.013 A 
ATOM      6  C   UNL     1      -4.570  -0.587   4.970  0.00  0.00    +0.001 A 
ATOM      7  C   UNL     1      -5.675  -1.421   4.820  0.00  0.00    +0.002 A 
ATOM      8  C   UNL     1      -5.565  -2.683   4.326  0.00  0.00    +0.026 A 
ATOM      9  C   UNL     1      -4.296  -3.178   3.956  0.00  0.00    +0.048 A 
ATOM     10  N   UNL     1      -4.133  -4.427   3.561  0.00  0.00    -0.353 N 
ATOM     11  C   UNL     1      -2.829  -5.039   3.319  0.00  0.00    +0.258 C 
ATOM     12  N   UNL     1      -1.808  -4.013   3.081  0.00  0.00    -0.216 N 
ATOM     13  N   UNL     1      -0.664  -4.130   2.347  0.00  0.00    -0.212 NA
ATOM     14  H   UNL     1      -0.417  -1.355   4.043  0.00  0.00    +0.149 HD
ATOM     15  H   UNL     1      -0.872  -4.324   1.379  0.00  0.00    +0.147 HD
ATOM     16  H   UNL     1      -4.925  -4.970   3.424  0.00  0.00    +0.163 HD
ENDROOT
BRANCH   1  22
ATOM     17  C   UNL     1      -0.018   1.503   0.010  0.00  0.00    +0.044 C 
ATOM     18  C   UNL     1       0.002  -0.004   0.002  0.00  0.00    -0.050 A 
ATOM     19  C   UNL     1       0.006  -0.689  -1.199  0.00  0.00    +0.003 A 
ATOM     20  C   UNL     1       0.025  -2.071  -1.207  0.00  0.00    +0.001 A 
ATOM     21  C   UNL     1       0.040  -2.768  -0.013  0.00  0.00    +0.007 A 
ATOM     22  C   UNL     1       0.037  -2.084   1.188  0.00  0.00    -0.011 A 
ATOM     23  C   UNL     1       0.023  -0.702   1.195  0.00  0.00    +0.010 A 
ENDBRANCH   1  22
BRANCH  11  24
ATOM     24  N   UNL     1      -2.444  -5.838   4.490  0.00  0.00    -0.280 NA
ATOM     25  H   UNL     1      -1.451  -6.017   4.496  0.00  0.00    +0.125 HD
BRANCH  24  26
ATOM     26  C   UNL     1      -3.205  -7.094   4.543  0.00  0.00    +0.089 C 
BRANCH  26  27
ATOM     27  C   UNL     1      -2.778  -7.898   5.773  0.00  0.00    +0.048 C 
BRANCH  27  28
ATOM     28  C   UNL     1      -3.558  -9.186   5.827  0.00  0.00    -0.040 C 
ATOM     29  C   UNL     1      -3.169 -10.393   5.357  0.00  0.00    -0.001 A 
ATOM     30  C   UNL     1      -1.949 -10.850   4.681  0.00  0.00    +0.010 A 
ATOM     31  C   UNL     1      -1.846 -12.150   4.321  0.00  0.00    +0.001 A 
ATOM     32  C   UNL     1      -2.873 -13.069   4.578  0.00  0.00    +0.002 A 
ATOM     33  C   UNL     1      -4.022 -12.724   5.195  0.00  0.00    +0.026 A 
ATOM     34  C   UNL     1      -4.238 -11.383   5.617  0.00  0.00    +0.043 A 
ATOM     35  N   UNL     1      -5.249 -10.811   6.224  0.00  0.00    -0.380 N 
ATOM     36  C   UNL     1      -4.933  -9.392   6.423  0.00  0.00    +0.144 C 
ATOM     37  H   UNL     1      -6.068 -11.252   6.499  0.00  0.00    +0.160 HD
ENDBRANCH  27  28
ENDBRANCH  26  27
ENDBRANCH  24  26
ENDBRANCH  11  24
TORSDOF 5
