REMARK  Name = ZINC15856577
REMARK  4 active torsions:
REMARK  status: ('A' for Active; 'I' for Inactive)
REMARK    1  A    between atoms: C_3  and  C_11
REMARK    2  A    between atoms: C_4  and  O_10
REMARK    3  A    between atoms: C_5  and  N_7
REMARK    4  A    between atoms: C_13  and  C_18
REMARK                            x       y       z     vdW  Elec       q    Type
REMARK                         _______ _______ _______ _____ _____    ______ ____
ROOT
ATOM      1  C   UNL     1       3.657   2.174   0.112  0.00  0.00    +0.235 A 
ATOM      2  N   UNL     1       4.793   1.516   0.090  0.00  0.00    -0.212 NA
ATOM      3  C   UNL     1       5.965   2.155  -0.050  0.00  0.00    +0.083 A 
ATOM      4  C   UNL     1       5.978   3.538  -0.173  0.00  0.00    +0.120 A 
ATOM      5  C   UNL     1       4.752   4.223  -0.147  0.00  0.00    +0.341 A 
ATOM      6  O   UNL     1       4.716   5.437  -0.252  0.00  0.00    -0.245 OA
ATOM      7  O   UNL     1       3.613   3.512  -0.009  0.00  0.00    -0.403 OA
ENDROOT
BRANCH   3   8
ATOM      8  C   UNL     1       7.234   1.393  -0.071  0.00  0.00    +0.019 A 
ATOM      9  C   UNL     1       8.245   1.688   0.844  0.00  0.00    +0.013 A 
ATOM     10  C   UNL     1       9.424   0.975   0.819  0.00  0.00    +0.021 A 
ATOM     11  C   UNL     1       9.608  -0.035  -0.112  0.00  0.00    +0.042 A 
ATOM     12  C   UNL     1       8.610  -0.333  -1.023  0.00  0.00    +0.040 A 
ATOM     13  C   UNL     1       7.421   0.371  -1.004  0.00  0.00    +0.052 A 
ATOM     14 CL   UNL     1       6.167  -0.009  -2.143  0.00  0.00    -0.083 Cl
ATOM     15 CL   UNL     1      11.096  -0.928  -0.137  0.00  0.00    -0.083 Cl
ENDBRANCH   3   8
BRANCH   1  18
ATOM     16  C   UNL     1       0.000   1.397   0.433  0.00  0.00    +0.003 A 
ATOM     17  C   UNL     1       1.175   2.103   0.288  0.00  0.00    +0.017 A 
ATOM     18  C   UNL     1       2.397   1.426   0.267  0.00  0.00    +0.081 A 
ATOM     19  C   UNL     1       2.417   0.029   0.395  0.00  0.00    +0.159 A 
ATOM     20  C   UNL     1       1.226  -0.664   0.540  0.00  0.00    +0.168 A 
ATOM     21  C   UNL     1       0.025   0.018   0.559  0.00  0.00    +0.036 A 
BRANCH  20  22
ATOM     22  N   UNL     1       1.240  -2.138   0.674  0.00  0.00    +0.060 N 
ATOM     23  O   UNL     1       0.202  -2.744   0.801  0.00  0.00    -0.126 OA
ATOM     24  O   UNL     1       2.291  -2.737   0.658  0.00  0.00    -0.126 OA
ENDBRANCH  20  22
BRANCH  19  25
ATOM     25  O   UNL     1       3.597  -0.640   0.376  0.00  0.00    -0.504 OA
ATOM     26  H   UNL     1       4.000  -0.753   1.248  0.00  0.00    +0.292 HD
ENDBRANCH  19  25
ENDBRANCH   1  18
TORSDOF 4
