REMARK  Name = ZINC35193713
REMARK  13 active torsions:
REMARK  status: ('A' for Active; 'I' for Inactive)
REMARK    1  A    between atoms: C_1  and  C_2
REMARK    2  A    between atoms: C_2  and  C_4
REMARK    3  A    between atoms: C_2  and  C_10
REMARK    4  A    between atoms: C_4  and  C_5
REMARK    5  A    between atoms: C_5  and  C_6
REMARK    6  A    between atoms: C_6  and  C_7
REMARK    7  A    between atoms: C_7  and  C_8
REMARK    8  A    between atoms: C_7  and  C_9
REMARK    9  A    between atoms: C_16  and  C_44
REMARK   10  A    between atoms: C_26  and  C_43
REMARK   11  A    between atoms: C_29  and  O_32
REMARK   12  A    between atoms: O_32  and  C_33
REMARK   13  A    between atoms: N_35  and  C_36
REMARK                            x       y       z     vdW  Elec       q    Type
REMARK                         _______ _______ _______ _____ _____    ______ ____
ROOT
ATOM      1  C   UNL     1      -1.175  -0.717  -0.015  0.00  0.00    -0.002 C 
ATOM      2  C   UNL     1      -1.911  -0.087   1.197  0.00  0.00    +0.004 C 
ATOM      3  C   UNL     1      -2.119  -1.231   2.229  0.00  0.00    +0.004 C 
ATOM      4  C   UNL     1      -1.080  -2.273   1.776  0.00  0.00    -0.001 C 
ATOM      5  C   UNL     1      -1.265  -2.233   0.244  0.00  0.00    -0.026 C 
ATOM      6  C   UNL     1      -0.245  -3.102  -0.432  0.00  0.00    +0.007 C 
ATOM      7  C   UNL     1      -0.154  -4.490   0.214  0.00  0.00    +0.005 C 
ATOM      8  C   UNL     1      -1.205  -4.737   1.280  0.00  0.00    +0.003 C 
ATOM      9  C   UNL     1      -1.210  -3.648   2.353  0.00  0.00    +0.000 C 
ATOM     10  C   UNL     1      -2.493  -3.821   3.176  0.00  0.00    +0.031 C 
ATOM     11  C   UNL     1      -2.486  -5.215   3.746  0.00  0.00    -0.027 C 
ATOM     12  C   UNL     1      -1.818  -6.196   3.224  0.00  0.00    -0.064 C 
ATOM     13  C   UNL     1      -1.002  -6.091   1.959  0.00  0.00    -0.008 C 
ATOM     14  C   UNL     1       0.456  -6.364   2.299  0.00  0.00    +0.015 C 
ATOM     15  C   UNL     1       0.577  -6.898   3.726  0.00  0.00    +0.046 C 
ATOM     16  C   UNL     1      -0.391  -8.044   3.998  0.00  0.00    +0.182 C 
ATOM     17  C   UNL     1      -1.842  -7.558   3.898  0.00  0.00    +0.075 C 
ATOM     18  C   UNL     1      -1.488  -7.167   0.981  0.00  0.00    +0.016 C 
ATOM     19  C   UNL     1      -2.684  -2.639  -0.181  0.00  0.00    +0.012 C 
ENDROOT
BRANCH   1  21
ATOM     20  C   UNL     1       0.902  -0.355   1.315  0.00  0.00    +0.008 C 
ATOM     21  C   UNL     1       0.266  -0.226  -0.070  0.00  0.00    -0.010 C 
BRANCH  21  22
ATOM     22  C   UNL     1       0.288   1.240  -0.507  0.00  0.00    +0.003 C 
BRANCH  22  23
ATOM     23  C   UNL     1       1.738   1.703  -0.668  0.00  0.00    +0.001 C 
BRANCH  23  24
ATOM     24  C   UNL     1       1.760   3.169  -1.105  0.00  0.00    +0.003 C 
BRANCH  24  25
ATOM     25  C   UNL     1       3.210   3.631  -1.266  0.00  0.00    -0.017 C 
ATOM     26  C   UNL     1       3.868   2.857  -2.410  0.00  0.00    +0.007 C 
ATOM     27  C   UNL     1       3.236   5.128  -1.581  0.00  0.00    +0.007 C 
ENDBRANCH  24  25
ENDBRANCH  23  24
ENDBRANCH  22  23
ENDBRANCH  21  22
ENDBRANCH   1  21
BRANCH  16  28
ATOM     28  O   UNL     1      -0.167  -9.103   3.067  0.00  0.00    -0.447 OA
BRANCH  28  29
ATOM     29  C   UNL     1      -0.435 -10.354   3.487  0.00  0.00    +0.405 C 
ATOM     30  O   UNL     1      -0.848 -10.541   4.615  0.00  0.00    -0.226 OA
ATOM     31  N   UNL     1      -0.245 -11.399   2.658  0.00  0.00    -0.251 N 
ATOM     32  H   UNL     1       0.134 -11.256   1.776  0.00  0.00    +0.158 HD
BRANCH  31  33
ATOM     33  C   UNL     1      -0.596 -12.691   3.067  0.00  0.00    +0.037 A 
ATOM     34  C   UNL     1       0.139 -13.784   2.628  0.00  0.00    +0.025 A 
ATOM     35  C   UNL     1      -0.209 -15.057   3.034  0.00  0.00    +0.022 A 
ATOM     36  C   UNL     1      -1.290 -15.245   3.878  0.00  0.00    +0.041 A 
ATOM     37  C   UNL     1      -2.025 -14.157   4.316  0.00  0.00    +0.022 A 
ATOM     38  C   UNL     1      -1.677 -12.881   3.919  0.00  0.00    +0.025 A 
ATOM     39 CL   UNL     1      -1.725 -16.846   4.386  0.00  0.00    -0.084 Cl
ENDBRANCH  31  33
ENDBRANCH  28  29
ENDBRANCH  16  28
TORSDOF 8
