REMARK  Name = ZINC09640317
REMARK  5 active torsions:
REMARK  status: ('A' for Active; 'I' for Inactive)
REMARK    1  A    between atoms: C_1  and  C_2
REMARK    2  A    between atoms: C_2  and  C_3
REMARK    3  A    between atoms: C_3  and  C_26
REMARK    4  A    between atoms: N_6  and  C_10
REMARK    5  A    between atoms: C_10  and  C_11
REMARK                            x       y       z     vdW  Elec       q    Type
REMARK                         _______ _______ _______ _____ _____    ______ ____
ROOT
ATOM      1  C   UNL     1      -1.235   2.107   0.018  0.00  0.00    +0.138 C 
ATOM      2  C   UNL     1      -0.014   1.208   0.009  0.00  0.00    +0.251 C 
ATOM      3  O   UNL     1       0.002  -0.004   0.002  0.00  0.00    -0.272 OA
ATOM      4  N   UNL     1       1.048   2.037   0.003  0.00  0.00    -0.217 N 
ATOM      5  C   UNL     1       0.673   3.321   0.013  0.00  0.00    +0.310 C 
ATOM      6  O   UNL     1       1.453   4.253   0.010  0.00  0.00    -0.252 OA
ATOM      7  N   UNL     1      -0.664   3.465   0.026  0.00  0.00    -0.281 N 
ATOM      8  H   UNL     1      -1.157   4.301   0.035  0.00  0.00    +0.152 HD
ENDROOT
BRANCH   1   9
ATOM      9  C   UNL     1      -2.067   1.885  -1.218  0.00  0.00    -0.015 A 
ATOM     10  C   UNL     1      -3.075   0.940  -1.212  0.00  0.00    +0.007 A 
ATOM     11  C   UNL     1      -3.842   0.740  -2.345  0.00  0.00    +0.020 A 
ATOM     12  C   UNL     1      -3.593   1.478  -3.488  0.00  0.00    +0.041 A 
ATOM     13  C   UNL     1      -2.580   2.420  -3.495  0.00  0.00    +0.020 A 
ATOM     14  C   UNL     1      -1.817   2.623  -2.360  0.00  0.00    +0.007 A 
ATOM     15 CL   UNL     1      -4.551   1.222  -4.913  0.00  0.00    -0.084 Cl
ENDBRANCH   1   9
BRANCH   1  17
ATOM     16  C   UNL     1      -1.256   2.274   2.511  0.00  0.00    +0.007 C 
ATOM     17  C   UNL     1      -2.068   1.870   1.279  0.00  0.00    +0.037 C 
ENDBRANCH   1  17
BRANCH   4  18
ATOM     18  C   UNL     1       2.443   1.587  -0.011  0.00  0.00    +0.192 C 
BRANCH  18  19
ATOM     19  C   UNL     1       2.908   1.439  -1.437  0.00  0.00    +0.129 A 
ATOM     20  N   UNL     1       4.180   1.034  -1.677  0.00  0.00    -0.307 N 
ATOM     21  H   UNL     1       4.774   0.846  -0.933  0.00  0.00    +0.170 HD
ATOM     22  C   UNL     1       4.626   0.888  -2.943  0.00  0.00    +0.295 A 
ATOM     23  O   UNL     1       5.768   0.520  -3.164  0.00  0.00    -0.264 OA
ATOM     24  C   UNL     1       3.740   1.175  -4.006  0.00  0.00    +0.218 A 
ATOM     25  C   UNL     1       2.450   1.590  -3.691  0.00  0.00    +0.124 A 
ATOM     26  N   UNL     1       2.079   1.708  -2.406  0.00  0.00    -0.228 NA
ATOM     27  C   UNL     1       1.776   1.810  -4.979  0.00  0.00    +0.046 A 
ATOM     28  C   UNL     1       0.496   2.223  -5.345  0.00  0.00    +0.014 A 
ATOM     29  C   UNL     1       0.169   2.331  -6.678  0.00  0.00    +0.001 A 
ATOM     30  C   UNL     1       1.108   2.030  -7.654  0.00  0.00    +0.004 A 
ATOM     31  C   UNL     1       2.377   1.621  -7.305  0.00  0.00    +0.047 A 
ATOM     32  C   UNL     1       2.728   1.505  -5.964  0.00  0.00    +0.138 A 
ATOM     33  O   UNL     1       3.871   1.136  -5.349  0.00  0.00    -0.448 OA
ENDBRANCH  18  19
ENDBRANCH   4  18
TORSDOF 4
