REMARK  Name = ZINC59564686
REMARK  5 active torsions:
REMARK  status: ('A' for Active; 'I' for Inactive)
REMARK    1  A    between atoms: C_4  and  N_7
REMARK    2  A    between atoms: C_8  and  S_17
REMARK    3  A    between atoms: S_17  and  C_18
REMARK    4  A    between atoms: C_18  and  C_19
REMARK    5  A    between atoms: N_21  and  C_22
REMARK                            x       y       z     vdW  Elec       q    Type
REMARK                         _______ _______ _______ _____ _____    ______ ____
ROOT
ATOM      1  N   UNL     1       3.636  -0.656   0.047  0.00  0.00    -0.213 N 
ATOM      2  C   UNL     1       4.862  -0.058  -0.083  0.00  0.00    +0.151 C 
ATOM      3  N   UNL     1       5.828  -0.930  -0.116  0.00  0.00    -0.347 N 
ATOM      4  C   UNL     1       5.226  -2.262   0.000  0.00  0.00    +0.107 C 
ATOM      5  N   UNL     1       3.778  -2.015   0.110  0.00  0.00    -0.209 NA
ATOM      6  C   UNL     1       5.734  -2.967   1.255  0.00  0.00    +0.045 C 
ATOM      7  C   UNL     1       7.245  -3.188   1.140  0.00  0.00    +0.004 C 
ATOM      8  C   UNL     1       7.542  -4.039  -0.096  0.00  0.00    +0.000 C 
ATOM      9  C   UNL     1       7.044  -3.315  -1.348  0.00  0.00    +0.004 C 
ATOM     10  C   UNL     1       5.533  -3.095  -1.241  0.00  0.00    +0.045 C 
ATOM     11  H   UNL     1       3.413  -2.377   0.978  0.00  0.00    +0.147 HD
ATOM     12  H   UNL     1       6.774  -0.734  -0.203  0.00  0.00    +0.163 HD
ENDROOT
BRANCH   1  16
ATOM     13  C   UNL     1       0.004   1.375   0.239  0.00  0.00    +0.000 A 
ATOM     14  C   UNL     1       0.290   0.385   1.161  0.00  0.00    +0.002 A 
ATOM     15  C   UNL     1       1.493  -0.290   1.100  0.00  0.00    +0.025 A 
ATOM     16  C   UNL     1       2.416   0.026   0.111  0.00  0.00    +0.052 A 
ATOM     17  C   UNL     1       2.125   1.021  -0.813  0.00  0.00    +0.025 A 
ATOM     18  C   UNL     1       0.920   1.692  -0.747  0.00  0.00    +0.002 A 
ENDBRANCH   1  16
BRANCH   2  19
ATOM     19  S   UNL     1       5.103   1.684  -0.191  0.00  0.00    -0.082 S 
BRANCH  19  20
ATOM     20  C   UNL     1       6.901   1.869  -0.346  0.00  0.00    +0.173 C 
BRANCH  20  21
ATOM     21  C   UNL     1       7.248   3.332  -0.449  0.00  0.00    +0.227 C 
ATOM     22  O   UNL     1       6.369   4.167  -0.420  0.00  0.00    -0.275 OA
ATOM     23  N   UNL     1       8.535   3.712  -0.572  0.00  0.00    -0.285 N 
ATOM     24  H   UNL     1       9.232   3.043  -0.660  0.00  0.00    +0.155 HD
BRANCH  23  25
ATOM     25  C   UNL     1       8.866   5.072  -0.574  0.00  0.00    +0.033 A 
ATOM     26  C   UNL     1       9.930   5.529  -1.341  0.00  0.00    +0.024 A 
ATOM     27  C   UNL     1      10.254   6.871  -1.341  0.00  0.00    +0.017 A 
ATOM     28  C   UNL     1       9.520   7.761  -0.577  0.00  0.00    +0.018 A 
ATOM     29  C   UNL     1       8.460   7.309   0.189  0.00  0.00    +0.017 A 
ATOM     30  C   UNL     1       8.128   5.968   0.188  0.00  0.00    +0.024 A 
ATOM     31 BR   UNL     1       9.967   9.598  -0.579  0.00  0.00    -0.050 Br
ENDBRANCH  23  25
ENDBRANCH  20  21
ENDBRANCH  19  20
ENDBRANCH   2  19
TORSDOF 5
