REMARK  Name = ZINC35696009
REMARK  12 active torsions:
REMARK  status: ('A' for Active; 'I' for Inactive)
REMARK    1  A    between atoms: C_1  and  C_2
REMARK    2  A    between atoms: C_2  and  N_3
REMARK    3  A    between atoms: N_3  and  C_4
REMARK    4  A    between atoms: C_4  and  C_5
REMARK    5  A    between atoms: C_6  and  C_8
REMARK    6  A    between atoms: C_9  and  C_36
REMARK    7  A    between atoms: C_13  and  C_15
REMARK    8  A    between atoms: C_19  and  C_21
REMARK    9  A    between atoms: C_22  and  C_25
REMARK   10  A    between atoms: C_26  and  N_28
REMARK   11  A    between atoms: N_28  and  C_29
REMARK   12  A    between atoms: C_29  and  C_30
REMARK                            x       y       z     vdW  Elec       q    Type
REMARK                         _______ _______ _______ _____ _____    ______ ____
ROOT
ATOM      1  C   UNL     1       0.395  -0.824  -3.756  0.00  0.00    +0.060 C 
ATOM      2  C   UNL     1      -0.141  -1.333  -4.922  0.00  0.00    +0.051 C 
ATOM      3  N   UNL     1       0.649  -1.684  -5.926  0.00  0.00    -0.230 NA
ATOM      4  C   UNL     1       1.962  -1.589  -5.917  0.00  0.00    +0.166 C 
ATOM      5  N   UNL     1       2.685  -1.111  -4.860  0.00  0.00    -0.267 N 
ATOM      6  C   UNL     1       1.898  -0.680  -3.674  0.00  0.00    +0.148 C 
ATOM      7  C   UNL     1       4.058  -1.074  -5.005  0.00  0.00    +0.048 C 
ATOM      8  C   UNL     1       4.576  -1.510  -6.174  0.00  0.00    +0.072 C 
ATOM      9  S   UNL     1       3.112  -1.978  -7.075  0.00  0.00    -0.060 S 
ATOM     10  C   UNL     1      -1.633  -1.490  -5.054  0.00  0.00    +0.066 C 
ENDROOT
BRANCH   6  11
ATOM     11  C   UNL     1       2.211   0.769  -3.406  0.00  0.00    -0.022 A 
ATOM     12  C   UNL     1       2.091   1.701  -4.420  0.00  0.00    +0.006 A 
ATOM     13  C   UNL     1       2.379   3.031  -4.174  0.00  0.00    +0.001 A 
ATOM     14  C   UNL     1       2.785   3.429  -2.913  0.00  0.00    +0.003 A 
ATOM     15  C   UNL     1       2.903   2.497  -1.899  0.00  0.00    -0.050 A 
ATOM     16  C   UNL     1       2.612   1.168  -2.144  0.00  0.00    +0.009 A 
ATOM     17  C   UNL     1       3.347   2.930  -0.526  0.00  0.00    +0.044 C 
ENDBRANCH   6  11
BRANCH   1  19
ATOM     18  N   UNL     1      -0.852  -1.374  -1.802  0.00  0.00    -0.298 N 
ATOM     19  C   UNL     1      -0.429  -0.448  -2.685  0.00  0.00    +0.246 C 
ATOM     20  O   UNL     1      -0.763   0.718  -2.553  0.00  0.00    -0.270 OA
BRANCH  18  22
ATOM     21  C   UNL     1      -0.999  -0.552   0.497  0.00  0.00    +0.024 C 
ATOM     22  C   UNL     1      -1.786  -0.999  -0.737  0.00  0.00    +0.104 C 
ENDBRANCH  18  22
BRANCH  18  23
ATOM     23  C   UNL     1      -0.377  -2.756  -1.906  0.00  0.00    +0.104 C 
ATOM     24  C   UNL     1      -1.388  -3.584  -2.703  0.00  0.00    +0.024 C 
ENDBRANCH  18  23
ENDBRANCH   1  19
BRANCH   7  25
ATOM     25  C   UNL     1       4.924  -0.577  -3.926  0.00  0.00    +0.091 C 
ATOM     26  C   UNL     1       6.243  -0.413  -4.143  0.00  0.00    +0.239 C 
ATOM     27  O   UNL     1       6.750  -0.576  -5.390  0.00  0.00    -0.271 OA
BRANCH  26  28
ATOM     28  N   UNL     1       7.081  -0.077  -3.093  0.00  0.00    -0.306 N 
ATOM     29  H   UNL     1       6.732  -0.032  -2.189  0.00  0.00    +0.149 HD
BRANCH  28  30
ATOM     30  C   UNL     1       8.495   0.209  -3.347  0.00  0.00    +0.160 C 
BRANCH  30  31
ATOM     31  C   UNL     1       9.207   0.423  -2.037  0.00  0.00    +0.058 A 
ATOM     32  C   UNL     1       9.872  -0.631  -1.440  0.00  0.00    +0.025 A 
ATOM     33  C   UNL     1      10.524  -0.423  -0.234  0.00  0.00    +0.003 A 
ATOM     34  C   UNL     1      10.483   0.844   0.328  0.00  0.00    +0.020 A 
ATOM     35  C   UNL     1       9.799   1.850  -0.327  0.00  0.00    +0.111 A 
ATOM     36  N   UNL     1       9.194   1.617  -1.476  0.00  0.00    -0.258 NA
ENDBRANCH  30  31
ENDBRANCH  28  30
ENDBRANCH  26  28
ENDBRANCH   7  25
TORSDOF 8
