REMARK  Name = ZINC35705681
REMARK  14 active torsions:
REMARK  status: ('A' for Active; 'I' for Inactive)
REMARK    1  A    between atoms: C_1  and  C_2
REMARK    2  A    between atoms: C_2  and  O_3
REMARK    3  A    between atoms: O_3  and  C_4
REMARK    4  A    between atoms: C_4  and  C_6
REMARK    5  A    between atoms: C_13  and  C_15
REMARK    6  A    between atoms: C_18  and  C_20
REMARK    7  A    between atoms: C_20  and  N_21
REMARK    8  A    between atoms: N_21  and  C_22
REMARK    9  A    between atoms: N_21  and  C_31
REMARK   10  A    between atoms: C_22  and  C_23
REMARK   11  A    between atoms: C_31  and  C_33
REMARK   12  A    between atoms: C_31  and  C_34
REMARK   13  A    between atoms: C_34  and  C_35
REMARK   14  A    between atoms: C_34  and  C_36
REMARK                            x       y       z     vdW  Elec       q    Type
REMARK                         _______ _______ _______ _____ _____    ______ ____
ROOT
ATOM      1  C   UNL     1       2.786  -8.542  -5.011  0.00  0.00    +0.164 A 
ATOM      2  C   UNL     1       2.219  -7.310  -4.898  0.00  0.00    +0.230 A 
ATOM      3  O   UNL     1       2.628  -6.593  -5.957  0.00  0.00    -0.449 OA
ATOM      4  C   UNL     1       3.428  -7.366  -6.704  0.00  0.00    +0.179 A 
ATOM      5  N   UNL     1       3.536  -8.535  -6.147  0.00  0.00    -0.210 NA
ENDROOT
BRANCH   1  12
ATOM      6  C   UNL     1       4.677 -12.250  -2.814  0.00  0.00    +0.115 C 
ATOM      7  C   UNL     1       5.544 -12.559  -4.037  0.00  0.00    +0.018 C 
ATOM      8  C   UNL     1       5.624 -11.321  -4.933  0.00  0.00    +0.020 C 
ATOM      9  C   UNL     1       4.218 -10.955  -5.419  0.00  0.00    +0.108 C 
ATOM     10  N   UNL     1       3.341 -10.798  -4.250  0.00  0.00    -0.295 N 
ATOM     11  C   UNL     1       3.260 -11.894  -3.275  0.00  0.00    +0.122 C 
ATOM     12  C   UNL     1       2.624  -9.671  -4.077  0.00  0.00    +0.268 C 
ATOM     13  O   UNL     1       1.843  -9.583  -3.148  0.00  0.00    -0.268 OA
BRANCH   6  14
ATOM     14  C   UNL     1       4.625 -13.459  -1.916  0.00  0.00    +0.312 C 
ATOM     15  O   UNL     1       5.222 -14.464  -2.221  0.00  0.00    -0.250 OA
BRANCH  14  16
ATOM     16  O   UNL     1       3.916 -13.419  -0.777  0.00  0.00    -0.465 OA
BRANCH  16  18
ATOM     17  C   UNL     1       3.057 -14.366   1.273  0.00  0.00    +0.048 C 
ATOM     18  C   UNL     1       3.911 -14.601   0.026  0.00  0.00    +0.229 C 
ENDBRANCH  16  18
ENDBRANCH  14  16
ENDBRANCH   6  14
ENDBRANCH   1  12
BRANCH   4  19
ATOM     19  C   UNL     1       4.100  -6.945  -7.985  0.00  0.00    +0.020 C 
BRANCH  19  20
ATOM     20  N   UNL     1       3.191  -7.178  -9.115  0.00  0.00    +0.390 N 
ATOM     21  H   UNL     1       2.874  -8.136  -9.099  0.00  0.00    -0.080 HD
BRANCH  20  22
ATOM     22  C   UNL     1       2.035  -6.277  -9.008  0.00  0.00    -0.068 C 
ATOM     23  C   UNL     1       2.414  -4.896  -9.545  0.00  0.00    -0.013 C 
BRANCH  22  24
ATOM     24  C   UNL     1       0.872  -6.841  -9.825  0.00  0.00    -0.031 C 
ATOM     25  C   UNL     1       0.388  -8.147  -9.190  0.00  0.00    +0.005 C 
ATOM     26  C   UNL     1      -0.275  -5.829  -9.846  0.00  0.00    +0.005 C 
ENDBRANCH  22  24
ENDBRANCH  20  22
BRANCH  20  27
ATOM     27  C   UNL     1       3.899  -6.918 -10.376  0.00  0.00    -0.039 C 
BRANCH  27  28
ATOM     28  C   UNL     1       3.161  -7.576 -11.512  0.00  0.00    -0.029 A 
ATOM     29  C   UNL     1       2.356  -8.673 -11.270  0.00  0.00    +0.007 A 
ATOM     30  C   UNL     1       1.678  -9.278 -12.311  0.00  0.00    +0.039 A 
ATOM     31  C   UNL     1       1.804  -8.785 -13.599  0.00  0.00    +0.126 A 
ATOM     32  C   UNL     1       2.609  -7.686 -13.843  0.00  0.00    +0.076 A 
ATOM     33  C   UNL     1       3.284  -7.078 -12.798  0.00  0.00    +0.127 A 
ATOM     34  F   UNL     1       4.066  -6.002 -13.034  0.00  0.00    -0.205 F 
ATOM     35  F   UNL     1       1.141  -9.377 -14.617  0.00  0.00    -0.205 F 
ENDBRANCH  27  28
ENDBRANCH  20  27
ENDBRANCH  19  20
ENDBRANCH   4  19
TORSDOF 10
