REMARK  Name = ZINC11663905
REMARK  6 active torsions:
REMARK  status: ('A' for Active; 'I' for Inactive)
REMARK    1  A    between atoms: C_4  and  C_7
REMARK    2  A    between atoms: C_7  and  C_9
REMARK    3  A    between atoms: C_7  and  O_29
REMARK    4  A    between atoms: C_14  and  C_15
REMARK    5  A    between atoms: C_14  and  N_51
REMARK    6  A    between atoms: C_20  and  C_21
REMARK                            x       y       z     vdW  Elec       q    Type
REMARK                         _______ _______ _______ _____ _____    ______ ____
ROOT
ATOM      1  C   UNL     1      -0.659   5.814  -1.558  0.00  0.00    +0.019 C 
ATOM      2  C   UNL     1       0.445   5.287  -2.478  0.00  0.00    -0.012 C 
ATOM      3  C   UNL     1       0.305   5.934  -3.858  0.00  0.00    -0.078 C 
ATOM      4  C   UNL     1      -0.671   7.928  -2.887  0.00  0.00    -0.078 C 
ATOM      5  C   UNL     1      -0.560   7.340  -1.478  0.00  0.00    -0.012 C 
ATOM      6  N   UNL     1       0.433   7.400  -3.716  0.00  0.00    +0.382 N 
ATOM      7  H   UNL     1       1.326   7.612  -3.256  0.00  0.00    -0.081 HD
ENDROOT
BRANCH   1   8
ATOM      8  C   UNL     1      -0.488   5.218  -0.159  0.00  0.00    +0.147 C 
BRANCH   8  12
ATOM      9  C   UNL     1      -0.764   0.961  -0.384  0.00  0.00    +0.000 A 
ATOM     10  C   UNL     1      -1.913   1.729  -0.388  0.00  0.00    +0.000 A 
ATOM     11  C   UNL     1      -1.824   3.107  -0.310  0.00  0.00    +0.006 A 
ATOM     12  C   UNL     1      -0.585   3.716  -0.239  0.00  0.00    -0.019 A 
ATOM     13  C   UNL     1       0.564   2.948  -0.241  0.00  0.00    +0.006 A 
ATOM     14  C   UNL     1       0.474   1.570  -0.314  0.00  0.00    +0.000 A 
ENDBRANCH   8  12
BRANCH   8  15
ATOM     15  O   UNL     1      -1.514   5.717   0.701  0.00  0.00    -0.387 OA
ATOM     16  H   UNL     1      -2.411   5.504   0.407  0.00  0.00    +0.210 HD
ENDBRANCH   8  15
ENDBRANCH   1   8
BRANCH   6  17
ATOM     17  C   UNL     1       0.416   8.039  -5.047  0.00  0.00    -0.039 C 
BRANCH  17  18
ATOM     18  C   UNL     1       1.470   7.399  -5.914  0.00  0.00    -0.019 A 
ATOM     19  C   UNL     1       1.248   6.541  -6.933  0.00  0.00    +0.107 A 
ATOM     20  N   UNL     1       2.444   6.198  -7.457  0.00  0.00    -0.284 N 
ATOM     21  H   UNL     1       2.591   5.580  -8.230  0.00  0.00    +0.188 HD
ATOM     22  N   UNL     1       3.443   6.859  -6.732  0.00  0.00    -0.174 NA
ATOM     23  C   UNL     1       2.861   7.584  -5.800  0.00  0.00    +0.097 A 
BRANCH  23  24
ATOM     24  C   UNL     1       3.550   8.444  -4.806  0.00  0.00    +0.038 A 
ATOM     25  C   UNL     1       2.820   9.062  -3.793  0.00  0.00    +0.016 A 
ATOM     26  C   UNL     1       3.464   9.857  -2.868  0.00  0.00    +0.039 A 
ATOM     27  C   UNL     1       4.834  10.051  -2.950  0.00  0.00    +0.126 A 
ATOM     28  C   UNL     1       5.564   9.443  -3.958  0.00  0.00    +0.077 A 
ATOM     29  C   UNL     1       4.929   8.640  -4.886  0.00  0.00    +0.135 A 
ATOM     30  F   UNL     1       5.641   8.048  -5.869  0.00  0.00    -0.205 F 
ATOM     31  F   UNL     1       5.459  10.835  -2.045  0.00  0.00    -0.205 F 
ENDBRANCH  23  24
ENDBRANCH  17  18
ENDBRANCH   6  17
TORSDOF 6
