REMARK  Name = ZINC22568015
REMARK  4 active torsions:
REMARK  status: ('A' for Active; 'I' for Inactive)
REMARK    1  A    between atoms: C_1  and  O_2
REMARK    2  A    between atoms: O_2  and  C_3
REMARK    3  A    between atoms: C_6  and  C_9
REMARK    4  A    between atoms: C_14  and  C_26
REMARK                            x       y       z     vdW  Elec       q    Type
REMARK                         _______ _______ _______ _____ _____    ______ ____
ROOT
ATOM      1  C   UNL     1       1.298  -0.487   0.661  0.00  0.00    +0.032 C 
ATOM      2  C   UNL     1       2.478   0.133  -0.089  0.00  0.00    +0.060 C 
ATOM      3  C   UNL     1       2.374   1.640  -0.043  0.00  0.00    +0.020 C 
ATOM      4  C   UNL     1       1.172   2.250   0.003  0.00  0.00    +0.039 C 
ATOM      5  C   UNL     1       1.033   3.755   0.055  0.00  0.00    +0.158 C 
ATOM      6  N   UNL     1       2.300   4.392  -0.291  0.00  0.00    -0.301 N 
ATOM      7  C   UNL     1       2.571   5.690  -0.617  0.00  0.00    +0.069 A 
ATOM      8  C   UNL     1       1.772   6.821  -0.738  0.00  0.00    +0.028 A 
ATOM      9  C   UNL     1       2.401   8.003  -1.095  0.00  0.00    +0.002 A 
ATOM     10  C   UNL     1       3.764   8.069  -1.323  0.00  0.00    +0.002 A 
ATOM     11  C   UNL     1       4.581   6.959  -1.210  0.00  0.00    +0.028 A 
ATOM     12  C   UNL     1       3.968   5.753  -0.851  0.00  0.00    +0.066 A 
ATOM     13  N   UNL     1       4.464   4.515  -0.660  0.00  0.00    -0.327 N 
ATOM     14  C   UNL     1       3.494   3.706  -0.333  0.00  0.00    +0.179 A 
ATOM     15  N   UNL     1       3.550   2.351  -0.055  0.00  0.00    -0.290 N 
ATOM     16  C   UNL     1      -0.018   1.499   0.010  0.00  0.00    +0.164 C 
ATOM     17  O   UNL     1      -1.087   2.078   0.018  0.00  0.00    -0.292 OA
ATOM     18  C   UNL     1       0.002  -0.004   0.002  0.00  0.00    +0.088 C 
ATOM     19  H   UNL     1       4.503   1.842   0.152  0.00  0.00    +0.155 HD
ATOM     20  H   UNL     1       5.540   4.328  -0.787  0.00  0.00    +0.169 HD
ENDROOT
BRANCH   5  21
ATOM     21  C   UNL     1       0.632   4.171   1.447  0.00  0.00    +0.005 A 
ATOM     22  C   UNL     1       1.320   3.945   2.577  0.00  0.00    +0.089 A 
ATOM     23  N   UNL     1       0.647   4.472   3.646  0.00  0.00    -0.360 N 
ATOM     24  H   UNL     1       1.069   4.386   4.658  0.00  0.00    +0.165 HD
ATOM     25  C   UNL     1      -0.525   5.057   3.220  0.00  0.00    +0.047 A 
ATOM     26  C   UNL     1      -0.585   4.894   1.823  0.00  0.00    +0.005 A 
ATOM     27  C   UNL     1      -1.676   5.395   1.111  0.00  0.00    +0.010 A 
ATOM     28  C   UNL     1      -2.682   6.040   1.774  0.00  0.00    +0.001 A 
ATOM     29  C   UNL     1      -2.627   6.203   3.151  0.00  0.00    +0.002 A 
ATOM     30  C   UNL     1      -1.559   5.717   3.874  0.00  0.00    +0.026 A 
ENDBRANCH   5  21
BRANCH   1  34
ATOM     31  C   UNL     1       1.528  -4.749   0.437  0.00  0.00    +0.120 A 
ATOM     32  C   UNL     1       1.526  -4.117   1.672  0.00  0.00    +0.046 A 
ATOM     33  C   UNL     1       1.452  -2.739   1.742  0.00  0.00    +0.007 A 
ATOM     34  C   UNL     1       1.379  -1.990   0.582  0.00  0.00    -0.043 A 
ATOM     35  C   UNL     1       1.375  -2.617  -0.650  0.00  0.00    +0.007 A 
ATOM     36  C   UNL     1       1.455  -3.994  -0.726  0.00  0.00    +0.046 A 
BRANCH  31  38
ATOM     37  C   UNL     1       1.598  -6.686  -0.940  0.00  0.00    +0.277 C 
ATOM     38  O   UNL     1       1.601  -6.104   0.365  0.00  0.00    -0.495 OA
ENDBRANCH  31  38
ENDBRANCH   1  34
TORSDOF 3
