REMARK  Name = ZINC03647350
REMARK  9 active torsions:
REMARK  status: ('A' for Active; 'I' for Inactive)
REMARK    1  A    between atoms: C_1  and  C_2
REMARK    2  A    between atoms: C_2  and  C_3
REMARK    3  A    between atoms: C_2  and  C_4
REMARK    4  A    between atoms: C_2  and  C_5
REMARK    5  A    between atoms: C_14  and  O_29
REMARK    6  A    between atoms: C_16  and  C_19
REMARK    7  A    between atoms: C_22  and  C_25
REMARK    8  A    between atoms: C_25  and  O_27
REMARK    9  A    between atoms: O_27  and  C_28
REMARK                            x       y       z     vdW  Elec       q    Type
REMARK                         _______ _______ _______ _____ _____    ______ ____
ROOT
ATOM      1  C   UNL     1       0.718  -0.497  -1.257  0.00  0.00    -0.000 C 
ATOM      2  C   UNL     1      -0.017   0.014  -2.499  0.00  0.00    +0.009 C 
ATOM      3  C   UNL     1       0.538  -0.670  -3.750  0.00  0.00    +0.037 C 
ATOM      4  C   UNL     1       2.052  -0.512  -3.763  0.00  0.00    -0.023 A 
ATOM      5  C   UNL     1       2.731  -0.195  -2.637  0.00  0.00    -0.004 A 
ATOM      6  S   UNL     1       4.429  -0.124  -3.138  0.00  0.00    -0.078 S 
ATOM      7  C   UNL     1       4.256  -0.488  -4.746  0.00  0.00    +0.080 A 
ATOM      8  C   UNL     1       2.883  -0.682  -4.940  0.00  0.00    +0.068 A 
ATOM      9  C   UNL     1       2.429  -1.041  -6.308  0.00  0.00    +0.220 C 
ATOM     10  N   UNL     1       3.286  -0.911  -7.285  0.00  0.00    -0.223 NA
ATOM     11  C   UNL     1       4.634  -0.378  -7.136  0.00  0.00    +0.224 C 
ATOM     12  N   UNL     1       5.160  -0.604  -5.777  0.00  0.00    -0.313 N 
ATOM     13  C   UNL     1       2.158   0.038  -1.273  0.00  0.00    +0.046 C 
ATOM     14  H   UNL     1       6.092  -0.822  -5.619  0.00  0.00    +0.149 HD
ENDROOT
BRANCH  11  15
ATOM     15  C   UNL     1       4.610   1.104  -7.412  0.00  0.00    -0.005 A 
ATOM     16  C   UNL     1       5.520   1.936  -6.783  0.00  0.00    +0.008 A 
ATOM     17  C   UNL     1       5.504   3.293  -7.032  0.00  0.00    +0.015 A 
ATOM     18  C   UNL     1       4.567   3.826  -7.920  0.00  0.00    +0.059 A 
ATOM     19  C   UNL     1       3.653   2.980  -8.551  0.00  0.00    +0.015 A 
ATOM     20  C   UNL     1       3.683   1.624  -8.298  0.00  0.00    +0.008 A 
BRANCH  18  21
ATOM     21  C   UNL     1       4.544   5.278  -8.191  0.00  0.00    +0.339 C 
ATOM     22  O   UNL     1       5.341   6.011  -7.640  0.00  0.00    -0.245 OA
BRANCH  21  23
ATOM     23  O   UNL     1       3.639   5.789  -9.048  0.00  0.00    -0.464 OA
ATOM     24  C   UNL     1       3.674   7.201  -9.262  0.00  0.00    +0.280 C 
ENDBRANCH  21  23
ENDBRANCH  18  21
ENDBRANCH  11  15
BRANCH   1  26
ATOM     25  C   UNL     1      -0.019   1.526   0.010  0.00  0.00    +0.011 C 
ATOM     26  C   UNL     1       0.002  -0.004   0.002  0.00  0.00    -0.035 C 
ATOM     27  C   UNL     1       0.742  -0.511   1.242  0.00  0.00    +0.011 C 
ATOM     28  C   UNL     1      -1.433  -0.534   0.013  0.00  0.00    +0.011 C 
ENDBRANCH   1  26
BRANCH   9  29
ATOM     29  O   UNL     1       1.172  -1.488  -6.534  0.00  0.00    -0.492 OA
ATOM     30  H   UNL     1       0.987  -1.691  -7.462  0.00  0.00    +0.294 HD
ENDBRANCH   9  29
TORSDOF 5
