REMARK  Name = ZINC01823121
REMARK  8 active torsions:
REMARK  status: ('A' for Active; 'I' for Inactive)
REMARK    1  A    between atoms: C_1  and  C_2
REMARK    2  A    between atoms: C_6  and  C_7
REMARK    3  A    between atoms: N_8  and  N_9
REMARK    4  A    between atoms: C_10  and  C_12
REMARK    5  A    between atoms: C_12  and  S_13
REMARK    6  A    between atoms: S_13  and  C_14
REMARK    7  A    between atoms: C_17  and  C_26
REMARK    8  A    between atoms: N_18  and  C_19
REMARK                            x       y       z     vdW  Elec       q    Type
REMARK                         _______ _______ _______ _____ _____    ______ ____
ROOT
ATOM      1  C   UNL     1       2.565   4.530   0.002  0.00  0.00    +0.197 A 
ATOM      2  N   UNL     1       3.676   3.828  -0.013  0.00  0.00    -0.122 NA
ATOM      3  N   UNL     1       4.695   4.611  -0.019  0.00  0.00    -0.128 NA
ATOM      4  C   UNL     1       4.299   5.863  -0.009  0.00  0.00    +0.169 A 
ATOM      5  N   UNL     1       2.921   5.851   0.000  0.00  0.00    -0.270 N 
ENDROOT
BRANCH   5   6
ATOM      6  C   UNL     1       2.064   6.960   0.008  0.00  0.00    +0.051 A 
ATOM      7  C   UNL     1       2.035   7.825  -1.078  0.00  0.00    +0.028 A 
ATOM      8  C   UNL     1       1.186   8.914  -1.070  0.00  0.00    +0.022 A 
ATOM      9  C   UNL     1       0.372   9.150   0.024  0.00  0.00    +0.041 A 
ATOM     10  C   UNL     1       0.402   8.292   1.110  0.00  0.00    +0.022 A 
ATOM     11  C   UNL     1       1.246   7.199   1.105  0.00  0.00    +0.028 A 
ATOM     12 CL   UNL     1      -0.690  10.523   0.035  0.00  0.00    -0.084 Cl
ENDBRANCH   5   6
BRANCH   4  13
ATOM     13  C   UNL     1       5.167   7.059  -0.011  0.00  0.00    +0.020 A 
ATOM     14  C   UNL     1       4.637   8.310   0.309  0.00  0.00    +0.013 A 
ATOM     15  C   UNL     1       5.454   9.422   0.310  0.00  0.00    +0.021 A 
ATOM     16  C   UNL     1       6.794   9.300  -0.015  0.00  0.00    +0.041 A 
ATOM     17  C   UNL     1       7.325   8.062  -0.337  0.00  0.00    +0.021 A 
ATOM     18  C   UNL     1       6.519   6.943  -0.337  0.00  0.00    +0.013 A 
ATOM     19 CL   UNL     1       7.814  10.705  -0.018  0.00  0.00    -0.084 Cl
ENDBRANCH   4  13
BRANCH   1  20
ATOM     20  S   UNL     1       0.924   3.890   0.014  0.00  0.00    -0.076 S 
BRANCH  20  21
ATOM     21  C   UNL     1       1.278   2.115   0.001  0.00  0.00    +0.174 C 
BRANCH  21  23
ATOM     22  N   UNL     1       0.002  -0.004   0.002  0.00  0.00    -0.206 N 
ATOM     23  C   UNL     1      -0.016   1.344   0.009  0.00  0.00    +0.242 C 
ATOM     24  O   UNL     1      -1.075   1.936   0.018  0.00  0.00    -0.273 OA
ATOM     25  H   UNL     1       0.849  -0.478  -0.009  0.00  0.00    +0.177 HD
BRANCH  22  27
ATOM     26  C   UNL     1      -1.184  -2.022   0.003  0.00  0.00    +0.145 C 
ATOM     27  N   UNL     1      -1.202  -0.721   0.010  0.00  0.00    -0.187 NA
BRANCH  26  33
ATOM     28  C   UNL     1      -1.475  -5.092  -0.024  0.00  0.00    +0.045 C 
ATOM     29  C   UNL     1      -2.644  -4.141  -0.001  0.00  0.00    -0.035 A 
ATOM     30  C   UNL     1      -3.936  -4.613   0.014  0.00  0.00    +0.011 A 
ATOM     31  C   UNL     1      -4.967  -3.729   0.029  0.00  0.00    +0.046 A 
ATOM     32  S   UNL     1      -4.120  -2.157   0.029  0.00  0.00    -0.095 S 
ATOM     33  C   UNL     1      -2.444  -2.772   0.011  0.00  0.00    +0.035 A 
ENDBRANCH  26  33
ENDBRANCH  22  27
ENDBRANCH  21  23
ENDBRANCH  20  21
ENDBRANCH   1  20
TORSDOF 7
