REMARK  Name = ZINC45480287
REMARK  6 active torsions:
REMARK  status: ('A' for Active; 'I' for Inactive)
REMARK    1  A    between atoms: C_1  and  C_2
REMARK    2  A    between atoms: C_5  and  N_8
REMARK    3  A    between atoms: C_9  and  C_33
REMARK    4  A    between atoms: C_11  and  C_17
REMARK    5  A    between atoms: N_19  and  C_20
REMARK    6  A    between atoms: C_29  and  C_32
REMARK                            x       y       z     vdW  Elec       q    Type
REMARK                         _______ _______ _______ _____ _____    ______ ____
ROOT
ATOM      1  N   UNL     1       0.037  -4.178  -0.027  0.00  0.00    -0.263 N 
ATOM      2  C   UNL     1       0.166  -4.863   1.253  0.00  0.00    +0.130 C 
ATOM      3  C   UNL     1       0.640  -6.302   1.044  0.00  0.00    +0.101 C 
ATOM      4  C   UNL     1      -0.257  -6.967  -0.006  0.00  0.00    +0.024 C 
ATOM      5  C   UNL     1      -0.002  -6.293  -1.357  0.00  0.00    +0.097 C 
ATOM      6  C   UNL     1      -0.066  -4.800  -1.201  0.00  0.00    +0.220 C 
ATOM      7  O   UNL     1      -0.215  -4.125  -2.198  0.00  0.00    -0.275 OA
ENDROOT
BRANCH   1  12
ATOM      8  C   UNL     1      -0.055   1.495  -0.006  0.00  0.00    +0.044 C 
ATOM      9  C   UNL     1      -0.030  -0.012  -0.011  0.00  0.00    -0.050 A 
ATOM     10  C   UNL     1      -1.052  -0.721   0.593  0.00  0.00    +0.005 A 
ATOM     11  C   UNL     1      -1.033  -2.102   0.590  0.00  0.00    +0.024 A 
ATOM     12  C   UNL     1       0.014  -2.779  -0.022  0.00  0.00    +0.037 A 
ATOM     13  C   UNL     1       1.038  -2.064  -0.629  0.00  0.00    +0.024 A 
ATOM     14  C   UNL     1       1.011  -0.683  -0.626  0.00  0.00    +0.005 A 
ENDBRANCH   1  12
BRANCH   2  15
ATOM     15  C   UNL     1       1.167  -4.133   2.111  0.00  0.00    +0.011 A 
ATOM     16  C   UNL     1       1.127  -3.880   3.442  0.00  0.00    +0.013 A 
ATOM     17  C   UNL     1       2.170  -3.184   4.024  0.00  0.00    +0.008 A 
ATOM     18  C   UNL     1       3.201  -2.774   3.246  0.00  0.00    +0.045 A 
ATOM     19  S   UNL     1       2.716  -3.381   1.639  0.00  0.00    -0.100 S 
ENDBRANCH   2  15
BRANCH   3  20
ATOM     20  C   UNL     1       0.548  -7.058   2.345  0.00  0.00    +0.222 C 
ATOM     21  O   UNL     1       0.142  -6.501   3.343  0.00  0.00    -0.275 OA
ATOM     22  N   UNL     1       0.917  -8.353   2.398  0.00  0.00    -0.285 N 
ATOM     23  H   UNL     1       1.313  -8.777   1.621  0.00  0.00    +0.155 HD
BRANCH  22  24
ATOM     24  C   UNL     1       0.727  -9.088   3.576  0.00  0.00    +0.035 A 
ATOM     25  C   UNL     1      -0.383  -8.844   4.374  0.00  0.00    +0.027 A 
ATOM     26  C   UNL     1      -0.575  -9.566   5.537  0.00  0.00    +0.049 A 
ATOM     27  C   UNL     1       0.341 -10.535   5.909  0.00  0.00    +0.143 A 
ATOM     28  C   UNL     1       1.457 -10.781   5.110  0.00  0.00    +0.077 A 
ATOM     29  C   UNL     1       1.646 -10.062   3.942  0.00  0.00    +0.050 A 
ATOM     30  N   UNL     1       2.377 -11.765   5.501  0.00  0.00    -0.279 N 
ATOM     31  C   UNL     1       2.017 -12.658   6.448  0.00  0.00    +0.258 C 
ATOM     32  O   UNL     1       2.806 -13.499   6.823  0.00  0.00    -0.271 OA
ATOM     33  C   UNL     1       0.630 -12.606   7.037  0.00  0.00    +0.256 C 
ATOM     34  O   UNL     1       0.164 -11.254   7.050  0.00  0.00    -0.478 OA
ATOM     35  C   UNL     1      -0.315 -13.461   6.190  0.00  0.00    +0.062 C 
ATOM     36  H   UNL     1       3.258 -11.803   5.098  0.00  0.00    +0.155 HD
ENDBRANCH  22  24
ENDBRANCH   3  20
TORSDOF 4
