REMARK  Name = ZINC39919451
REMARK  8 active torsions:
REMARK  status: ('A' for Active; 'I' for Inactive)
REMARK    1  A    between atoms: C_1  and  C_2
REMARK    2  A    between atoms: C_5  and  O_8
REMARK    3  A    between atoms: O_8  and  C_9
REMARK    4  A    between atoms: C_9  and  C_11
REMARK    5  A    between atoms: C_9  and  C_12
REMARK    6  A    between atoms: N_14  and  N_15
REMARK    7  A    between atoms: C_16  and  C_28
REMARK    8  A    between atoms: C_31  and  O_34
REMARK                            x       y       z     vdW  Elec       q    Type
REMARK                         _______ _______ _______ _____ _____    ______ ____
ROOT
ATOM      1  N   UNL     1      -1.046  -8.220   2.176  0.00  0.00    -0.191 N 
ATOM      2  C   UNL     1      -2.396  -8.457   2.688  0.00  0.00    +0.212 C 
ATOM      3  N   UNL     1      -3.054  -9.519   1.917  0.00  0.00    -0.320 N 
ATOM      4  C   UNL     1      -2.328 -10.666   1.615  0.00  0.00    +0.041 A 
ATOM      5  C   UNL     1      -2.938 -11.899   1.462  0.00  0.00    +0.025 A 
ATOM      6  C   UNL     1      -2.170 -13.009   1.165  0.00  0.00    +0.022 A 
ATOM      7  C   UNL     1      -0.796 -12.898   1.019  0.00  0.00    +0.042 A 
ATOM      8  C   UNL     1      -0.172 -11.675   1.168  0.00  0.00    +0.035 A 
ATOM      9  C   UNL     1      -0.935 -10.548   1.465  0.00  0.00    +0.061 A 
ATOM     10  C   UNL     1      -0.325  -9.216   1.621  0.00  0.00    +0.267 C 
ATOM     11  O   UNL     1       0.818  -9.017   1.257  0.00  0.00    -0.268 OA
ATOM     12 CL   UNL     1       0.149 -14.306   0.647  0.00  0.00    -0.084 Cl
ATOM     13  H   UNL     1      -3.974  -9.423   1.626  0.00  0.00    +0.148 HD
ENDROOT
BRANCH   2  14
ATOM     14  C   UNL     1      -2.316  -8.871   4.135  0.00  0.00    -0.008 A 
ATOM     15  C   UNL     1      -1.285  -8.405   4.930  0.00  0.00    +0.011 A 
ATOM     16  C   UNL     1      -1.209  -8.784   6.256  0.00  0.00    +0.046 A 
ATOM     17  C   UNL     1      -2.167  -9.633   6.790  0.00  0.00    +0.117 A 
ATOM     18  C   UNL     1      -3.200 -10.099   5.990  0.00  0.00    +0.046 A 
ATOM     19  C   UNL     1      -3.275  -9.713   4.666  0.00  0.00    +0.011 A 
BRANCH  17  20
ATOM     20  O   UNL     1      -2.094 -10.007   8.095  0.00  0.00    -0.507 OA
ATOM     21  H   UNL     1      -2.564  -9.418   8.700  0.00  0.00    +0.292 HD
ENDBRANCH  17  20
ENDBRANCH   2  14
BRANCH   1  24
ATOM     22  C   UNL     1      -0.410  -6.166   1.155  0.00  0.00    +0.270 C 
ATOM     23  O   UNL     1      -0.811  -6.587   0.090  0.00  0.00    -0.270 OA
ATOM     24  N   UNL     1      -0.495  -6.935   2.259  0.00  0.00    -0.227 N 
ATOM     25  H   UNL     1      -0.175  -6.598   3.110  0.00  0.00    +0.173 HD
BRANCH  22  26
ATOM     26  C   UNL     1       0.182  -4.783   1.244  0.00  0.00    +0.257 C 
ATOM     27  C   UNL     1       1.662  -4.886   1.620  0.00  0.00    +0.062 C 
BRANCH  26  28
ATOM     28  O   UNL     1       0.057  -4.129  -0.021  0.00  0.00    -0.480 OA
BRANCH  28  33
ATOM     29  C   UNL     1      -0.008   1.503   0.009  0.00  0.00    +0.044 C 
ATOM     30  C   UNL     1       0.009  -0.004   0.001  0.00  0.00    -0.050 A 
ATOM     31  C   UNL     1       0.240  -0.698   1.175  0.00  0.00    +0.007 A 
ATOM     32  C   UNL     1       0.257  -2.079   1.170  0.00  0.00    +0.046 A 
ATOM     33  C   UNL     1       0.041  -2.770  -0.013  0.00  0.00    +0.122 A 
ATOM     34  C   UNL     1      -0.192  -2.072  -1.189  0.00  0.00    +0.046 A 
ATOM     35  C   UNL     1      -0.213  -0.690  -1.178  0.00  0.00    +0.007 A 
ENDBRANCH  28  33
ENDBRANCH  26  28
ENDBRANCH  22  26
ENDBRANCH   1  24
TORSDOF 6
