REMARK  Name = ZINC29130412
REMARK  11 active torsions:
REMARK  status: ('A' for Active; 'I' for Inactive)
REMARK    1  A    between atoms: C_1  and  O_2
REMARK    2  A    between atoms: O_2  and  C_3
REMARK    3  A    between atoms: C_6  and  C_9
REMARK    4  A    between atoms: C_9  and  C_11
REMARK    5  A    between atoms: C_9  and  C_35
REMARK    6  A    between atoms: C_14  and  O_17
REMARK    7  A    between atoms: O_17  and  C_18
REMARK    8  A    between atoms: C_18  and  C_19
REMARK    9  A    between atoms: C_19  and  C_21
REMARK   10  A    between atoms: C_19  and  O_34
REMARK   11  A    between atoms: C_21  and  N_22
REMARK                            x       y       z     vdW  Elec       q    Type
REMARK                         _______ _______ _______ _____ _____    ______ ____
ROOT
ATOM      1  C   UNL     1      -0.545  15.892  -3.917  0.00  0.00    -0.035 A 
ATOM      2  C   UNL     1      -1.110  15.043  -4.851  0.00  0.00    +0.008 A 
ATOM      3  C   UNL     1      -1.030  13.674  -4.679  0.00  0.00    +0.046 A 
ATOM      4  C   UNL     1      -0.383  13.152  -3.569  0.00  0.00    +0.121 A 
ATOM      5  C   UNL     1       0.178  14.007  -2.631  0.00  0.00    +0.046 A 
ATOM      6  C   UNL     1       0.101  15.374  -2.810  0.00  0.00    +0.008 A 
ENDROOT
BRANCH   1   7
ATOM      7  C   UNL     1      -0.633  17.384  -4.107  0.00  0.00    +0.086 C 
BRANCH   7  11
ATOM      8  C   UNL     1       1.666  18.524  -7.524  0.00  0.00    +0.120 A 
ATOM      9  C   UNL     1       2.060  18.926  -6.256  0.00  0.00    +0.046 A 
ATOM     10  C   UNL     1       1.315  18.556  -5.153  0.00  0.00    +0.008 A 
ATOM     11  C   UNL     1       0.177  17.786  -5.312  0.00  0.00    -0.035 A 
ATOM     12  C   UNL     1      -0.214  17.380  -6.574  0.00  0.00    +0.008 A 
ATOM     13  C   UNL     1       0.524  17.752  -7.681  0.00  0.00    +0.046 A 
BRANCH   8  15
ATOM     14  C   UNL     1       1.933  18.436  -9.885  0.00  0.00    +0.277 C 
ATOM     15  O   UNL     1       2.397  18.886  -8.611  0.00  0.00    -0.495 OA
ENDBRANCH   8  15
ENDBRANCH   7  11
BRANCH   7  16
ATOM     16  C   UNL     1      -2.073  17.780  -4.315  0.00  0.00    +0.001 A 
ATOM     17  C   UNL     1      -2.845  18.612  -3.575  0.00  0.00    +0.012 A 
ATOM     18  C   UNL     1      -4.154  18.833  -3.961  0.00  0.00    +0.008 A 
ATOM     19  C   UNL     1      -4.629  18.203  -5.063  0.00  0.00    +0.045 A 
ATOM     20  S   UNL     1      -3.205  17.267  -5.597  0.00  0.00    -0.101 S 
ENDBRANCH   7  16
ENDBRANCH   1   7
BRANCH   4  21
ATOM     21  O   UNL     1      -0.303  11.806  -3.398  0.00  0.00    -0.489 OA
BRANCH  21  22
ATOM     22  C   UNL     1       0.379  11.340  -2.232  0.00  0.00    +0.261 C 
BRANCH  22  23
ATOM     23  C   UNL     1       0.366   9.810  -2.211  0.00  0.00    +0.166 C 
BRANCH  23  24
ATOM     24  O   UNL     1       1.124   9.313  -3.316  0.00  0.00    -0.387 OA
ATOM     25  H   UNL     1       1.230   8.229  -3.467  0.00  0.00    +0.210 HD
ENDBRANCH  23  24
BRANCH  23  26
ATOM     26  C   UNL     1       0.985   9.313  -0.903  0.00  0.00    +0.119 C 
BRANCH  26  27
ATOM     27  N   UNL     1       0.973   7.844  -0.884  0.00  0.00    -0.297 NA
ATOM     28  C   UNL     1       1.767   7.326   0.239  0.00  0.00    +0.103 C 
ATOM     29  C   UNL     1       1.795   5.796   0.178  0.00  0.00    +0.122 C 
ATOM     30  N   UNL     1       0.419   5.281   0.227  0.00  0.00    -0.314 N 
ATOM     31  C   UNL     1      -0.374   5.800  -0.896  0.00  0.00    +0.122 C 
ATOM     32  C   UNL     1      -0.403   7.329  -0.835  0.00  0.00    +0.103 C 
ATOM     33  C   UNL     1       0.408   3.892   0.245  0.00  0.00    +0.099 A 
ATOM     34  C   UNL     1      -0.805   3.212   0.291  0.00  0.00    +0.042 A 
ATOM     35  C   UNL     1      -0.801   1.829   0.304  0.00  0.00    +0.005 A 
ATOM     36  C   UNL     1       0.420   1.169   0.281  0.00  0.00    +0.018 A 
ATOM     37  C   UNL     1       1.586   1.907   0.235  0.00  0.00    +0.084 A 
ATOM     38  N   UNL     1       1.552   3.226   0.218  0.00  0.00    -0.350 N 
ATOM     39  H   UNL     1       2.506   3.773   0.182  0.00  0.00    +0.166 HD
ENDBRANCH  26  27
ENDBRANCH  23  26
ENDBRANCH  22  23
ENDBRANCH  21  22
ENDBRANCH   4  21
TORSDOF 10
