REMARK  Name = ZINC04851956
REMARK  5 active torsions:
REMARK  status: ('A' for Active; 'I' for Inactive)
REMARK    1  A    between atoms: C_6  and  O_11
REMARK    2  A    between atoms: O_11  and  C_12
REMARK    3  A    between atoms: C_12  and  C_13
REMARK    4  A    between atoms: N_15  and  C_16
REMARK    5  A    between atoms: C_24  and  C_25
REMARK                            x       y       z     vdW  Elec       q    Type
REMARK                         _______ _______ _______ _____ _____    ______ ____
ROOT
ATOM      1  C   UNL     1       1.316   5.790  -0.412  0.00  0.00    +0.255 C 
ATOM      2  O   UNL     1       0.145   5.970  -0.673  0.00  0.00    -0.272 OA
ATOM      3  N   UNL     1       1.738   4.574  -0.012  0.00  0.00    -0.279 N 
ATOM      4  H   UNL     1       2.663   4.443   0.248  0.00  0.00    +0.155 HD
ENDROOT
BRANCH   3   5
ATOM      5  C   UNL     1       0.847   3.508   0.028  0.00  0.00    +0.092 A 
ATOM      6  C   UNL     1      -0.367   3.339  -0.779  0.00  0.00    +0.042 A 
ATOM      7  C   UNL     1      -0.993   4.104  -1.764  0.00  0.00    +0.013 A 
ATOM      8  C   UNL     1      -2.148   3.656  -2.340  0.00  0.00    +0.001 A 
ATOM      9  C   UNL     1      -2.703   2.445  -1.950  0.00  0.00    +0.004 A 
ATOM     10  C   UNL     1      -2.100   1.675  -0.979  0.00  0.00    +0.047 A 
ATOM     11  C   UNL     1      -0.924   2.111  -0.380  0.00  0.00    +0.138 A 
ATOM     12  O   UNL     1      -0.131   1.591   0.577  0.00  0.00    -0.448 OA
ATOM     13  C   UNL     1       0.923   2.400   0.826  0.00  0.00    +0.211 A 
BRANCH  13  14
ATOM     14  C   UNL     1       1.979   2.135   1.802  0.00  0.00    +0.279 C 
ATOM     15  O   UNL     1       2.824   2.980   2.030  0.00  0.00    -0.267 OA
ATOM     16  N   UNL     1       2.016   0.953   2.450  0.00  0.00    -0.323 N 
ATOM     17  H   UNL     1       1.342   0.279   2.269  0.00  0.00    +0.145 HD
ATOM     18  H   UNL     1       2.716   0.777   3.098  0.00  0.00    +0.145 HD
ENDBRANCH  13  14
ENDBRANCH   3   5
BRANCH   1  19
ATOM     19  C   UNL     1       2.299   6.926  -0.536  0.00  0.00    +0.324 C 
BRANCH  19  20
ATOM     20  O   UNL     1       1.615   8.102  -0.973  0.00  0.00    -0.483 OA
BRANCH  20  26
ATOM     21  C   UNL     1       4.096  13.810  -2.040  0.00  0.00    +0.001 A 
ATOM     22  C   UNL     1       2.727  13.854  -2.300  0.00  0.00    +0.001 A 
ATOM     23  C   UNL     1       1.950  12.747  -2.147  0.00  0.00    +0.008 A 
ATOM     24  C   UNL     1       2.532  11.541  -1.721  0.00  0.00    -0.014 A 
ATOM     25  C   UNL     1       1.761  10.379  -1.552  0.00  0.00    +0.054 A 
ATOM     26  C   UNL     1       2.362   9.225  -1.136  0.00  0.00    +0.122 A 
ATOM     27  C   UNL     1       3.734   9.186  -0.870  0.00  0.00    +0.046 A 
ATOM     28  C   UNL     1       4.509  10.292  -1.030  0.00  0.00    +0.012 A 
ATOM     29  C   UNL     1       3.924  11.497  -1.457  0.00  0.00    -0.018 A 
ATOM     30  C   UNL     1       4.694  12.661  -1.625  0.00  0.00    +0.008 A 
ENDBRANCH  20  26
ENDBRANCH  19  20
ENDBRANCH   1  19
TORSDOF 5
