REMARK  Name = ZINC66260637
REMARK  9 active torsions:
REMARK  status: ('A' for Active; 'I' for Inactive)
REMARK    1  A    between atoms: C_1  and  C_2
REMARK    2  A    between atoms: C_5  and  C_9
REMARK    3  A    between atoms: C_6  and  C_8
REMARK    4  A    between atoms: C_12  and  S_14
REMARK    5  A    between atoms: S_14  and  C_15
REMARK    6  A    between atoms: C_15  and  C_17
REMARK    7  A    between atoms: C_15  and  C_18
REMARK    8  A    between atoms: N_24  and  C_25
REMARK    9  A    between atoms: N_24  and  C_26
REMARK                            x       y       z     vdW  Elec       q    Type
REMARK                         _______ _______ _______ _____ _____    ______ ____
ROOT
ATOM      1  S   UNL     1       0.107  -7.772  -1.648  0.00  0.00    -0.055 S 
ENDROOT
BRANCH   1   5
ATOM      2  C   UNL     1       0.061  -4.250  -0.021  0.00  0.00    +0.249 A 
ATOM      3  N   UNL     1       0.071  -5.032   1.031  0.00  0.00    -0.106 NA
ATOM      4  N   UNL     1       0.087  -6.261   0.650  0.00  0.00    -0.101 NA
ATOM      5  C   UNL     1       0.087  -6.312  -0.662  0.00  0.00    +0.278 A 
ATOM      6  O   UNL     1       0.066  -5.045  -1.115  0.00  0.00    -0.411 OA
BRANCH   2  11
ATOM      7  C   UNL     1      -0.018   1.503   0.010  0.00  0.00    +0.044 C 
ATOM      8  C   UNL     1       0.002  -0.004   0.002  0.00  0.00    -0.050 A 
ATOM      9  C   UNL     1       0.006  -0.686  -1.202  0.00  0.00    +0.004 A 
ATOM     10  C   UNL     1       0.025  -2.065  -1.217  0.00  0.00    +0.014 A 
ATOM     11  C   UNL     1       0.041  -2.773  -0.013  0.00  0.00    +0.041 A 
ATOM     12  C   UNL     1       0.037  -2.079   1.198  0.00  0.00    -0.038 A 
ATOM     13  C   UNL     1       0.023  -0.699   1.198  0.00  0.00    +0.007 A 
ATOM     14  C   UNL     1       0.053  -2.834   2.502  0.00  0.00    +0.044 C 
ENDBRANCH   2  11
ENDBRANCH   1   5
BRANCH   1  15
ATOM     15  C   UNL     1       0.123  -9.121  -0.435  0.00  0.00    +0.121 C 
ATOM     16  C   UNL     1       1.430  -9.076   0.359  0.00  0.00    +0.028 C 
BRANCH  15  17
ATOM     17  C   UNL     1       0.017 -10.443  -1.152  0.00  0.00    +0.149 A 
ATOM     18  N   UNL     1       0.753 -10.671  -2.225  0.00  0.00    -0.198 NA
ATOM     19  C   UNL     1       0.662 -11.837  -2.861  0.00  0.00    +0.217 A 
ATOM     20  N   UNL     1      -0.170 -12.772  -2.415  0.00  0.00    -0.181 NA
ATOM     21  C   UNL     1      -0.909 -12.538  -1.336  0.00  0.00    +0.222 A 
ATOM     22  N   UNL     1      -0.809 -11.371  -0.703  0.00  0.00    -0.198 NA
ATOM     23  N   UNL     1      -1.776 -13.505  -0.869  0.00  0.00    -0.306 N 
ATOM     24  C   UNL     1      -1.882 -14.790  -1.564  0.00  0.00    +0.132 C 
ATOM     25  C   UNL     1      -2.590 -13.246   0.321  0.00  0.00    +0.132 C 
ATOM     26  N   UNL     1       1.432 -12.075  -3.982  0.00  0.00    -0.327 N 
ATOM     27  H   UNL     1       2.039 -11.393  -4.307  0.00  0.00    +0.145 HD
ATOM     28  H   UNL     1       1.365 -12.925  -4.444  0.00  0.00    +0.145 HD
ENDBRANCH  15  17
ENDBRANCH   1  15
TORSDOF 4
