REMARK  Name = ZINC20708906
REMARK  6 active torsions:
REMARK  status: ('A' for Active; 'I' for Inactive)
REMARK    1  A    between atoms: C_1  and  C_2
REMARK    2  A    between atoms: N_4  and  C_5
REMARK    3  A    between atoms: N_4  and  C_6
REMARK    4  A    between atoms: C_19  and  C_22
REMARK    5  A    between atoms: C_24  and  N_29
REMARK    6  A    between atoms: C_27  and  O_28
REMARK                            x       y       z     vdW  Elec       q    Type
REMARK                         _______ _______ _______ _____ _____    ______ ____
ROOT
ATOM      1  C   UNL     1       3.563   2.113   3.520  0.00  0.00    +0.036 A 
ATOM      2  C   UNL     1       4.101   2.459   2.287  0.00  0.00    +0.025 A 
ATOM      3  C   UNL     1       3.362   2.284   1.136  0.00  0.00    +0.025 A 
ATOM      4  C   UNL     1       2.077   1.759   1.198  0.00  0.00    +0.031 A 
ATOM      5  C   UNL     1       1.544   1.399   2.441  0.00  0.00    -0.018 A 
ATOM      6  C   UNL     1       2.282   1.583   3.590  0.00  0.00    +0.029 A 
ATOM      7  C   UNL     1       0.190   0.803   2.457  0.00  0.00    +0.049 C 
ATOM      8  C   UNL     1      -0.705   0.922   3.637  0.00  0.00    -0.023 C 
ATOM      9  C   UNL     1      -1.964   0.943   3.214  0.00  0.00    -0.030 C 
ATOM     10  C   UNL     1      -2.003   0.874   1.686  0.00  0.00    +0.033 C 
ATOM     11  C   UNL     1      -0.646   1.485   1.332  0.00  0.00    +0.029 C 
ATOM     12  C   UNL     1      -0.019   1.026   0.027  0.00  0.00    +0.108 C 
ATOM     13  N   UNL     1       1.342   1.605   0.014  0.00  0.00    -0.336 N 
ATOM     14  H   UNL     1       1.795   1.923  -0.937  0.00  0.00    +0.147 HD
ENDROOT
BRANCH  12  15
ATOM     15  C   UNL     1      -0.815   1.540  -1.145  0.00  0.00    +0.017 A 
ATOM     16  C   UNL     1      -0.406   2.678  -1.812  0.00  0.00    +0.041 A 
ATOM     17  C   UNL     1      -1.136   3.150  -2.888  0.00  0.00    +0.127 A 
ATOM     18  C   UNL     1      -2.276   2.483  -3.298  0.00  0.00    +0.036 A 
ATOM     19  C   UNL     1      -2.689   1.345  -2.634  0.00  0.00    +0.048 A 
ATOM     20  C   UNL     1      -1.956   0.866  -1.558  0.00  0.00    +0.122 A 
BRANCH  17  21
ATOM     21  N   UNL     1      -0.696   4.370  -3.601  0.00  0.00    +0.056 N 
ATOM     22  O   UNL     1       0.308   4.957  -3.240  0.00  0.00    -0.126 OA
ATOM     23  O   UNL     1      -1.338   4.786  -4.548  0.00  0.00    -0.126 OA
ENDBRANCH  17  21
BRANCH  20  24
ATOM     24  O   UNL     1      -2.356  -0.257  -0.906  0.00  0.00    -0.506 OA
ATOM     25  H   UNL     1      -3.261  -0.790  -1.235  0.00  0.00    +0.292 HD
ENDBRANCH  20  24
ENDBRANCH  12  15
BRANCH   1  29
ATOM     26  C   UNL     1       6.440   2.762   5.862  0.00  0.00    +0.109 C 
ATOM     27  C   UNL     1       5.604   2.673   4.611  0.00  0.00    +0.216 C 
ATOM     28  O   UNL     1       6.094   2.939   3.534  0.00  0.00    -0.276 OA
ATOM     29  N   UNL     1       4.312   2.298   4.690  0.00  0.00    -0.275 N 
ATOM     30  C   UNL     1       3.690   2.083   5.999  0.00  0.00    +0.138 C 
ENDBRANCH   1  29
TORSDOF 4
