REMARK  Name = ZINC39507042
REMARK  4 active torsions:
REMARK  status: ('A' for Active; 'I' for Inactive)
REMARK    1  A    between atoms: C_4  and  C_7
REMARK    2  A    between atoms: C_7  and  C_8
REMARK    3  A    between atoms: C_14  and  C_17
REMARK    4  A    between atoms: C_22  and  O_23
REMARK                            x       y       z     vdW  Elec       q    Type
REMARK                         _______ _______ _______ _____ _____    ______ ____
ROOT
ATOM      1  C   UNL     1       4.171  -0.963   1.399  0.00  0.00    +0.010 C 
ATOM      2  C   UNL     1       5.549  -1.679   1.422  0.00  0.00    +0.028 C 
ATOM      3  C   UNL     1       5.518  -2.438   2.759  0.00  0.00    +0.032 C 
ATOM      4  C   UNL     1       6.291  -1.660   3.831  0.00  0.00    +0.024 C 
ATOM      5  C   UNL     1       7.436  -2.583   4.299  0.00  0.00    +0.010 C 
ATOM      6  C   UNL     1       6.938  -4.010   3.958  0.00  0.00    +0.024 C 
ATOM      7  C   UNL     1       6.205  -3.805   2.607  0.00  0.00    +0.031 C 
ATOM      8  N   UNL     1       4.112  -2.606   3.149  0.00  0.00    -0.240 NA
ATOM      9  C   UNL     1       3.262  -2.007   2.095  0.00  0.00    +0.100 C 
ATOM     10  I   UNL     1       3.657  -4.587   3.422  0.00  0.00    +0.021 I 
ENDROOT
BRANCH   6  11
ATOM     11  C   UNL     1       8.099  -4.957   3.800  0.00  0.00    -0.003 A 
ATOM     12  C   UNL     1       9.078  -4.702   2.859  0.00  0.00    +0.007 A 
ATOM     13  C   UNL     1      10.143  -5.571   2.714  0.00  0.00    +0.001 A 
ATOM     14  C   UNL     1      10.232  -6.698   3.510  0.00  0.00    +0.004 A 
ATOM     15  C   UNL     1       9.257  -6.958   4.453  0.00  0.00    +0.046 A 
ATOM     16  C   UNL     1       8.190  -6.084   4.604  0.00  0.00    +0.120 A 
BRANCH  16  17
ATOM     17  O   UNL     1       7.231  -6.335   5.535  0.00  0.00    -0.506 OA
ATOM     18  H   UNL     1       6.495  -6.870   5.207  0.00  0.00    +0.292 HD
ENDBRANCH  16  17
ENDBRANCH   6  11
BRANCH   1  19
ATOM     19  C   UNL     1       3.711  -0.707  -0.038  0.00  0.00    +0.040 C 
BRANCH  19  23
ATOM     20  C   UNL     1      -0.017   1.378   0.010  0.00  0.00    +0.000 A 
ATOM     21  C   UNL     1       1.171   2.086   0.002  0.00  0.00    +0.000 A 
ATOM     22  C   UNL     1       2.377   1.411  -0.013  0.00  0.00    +0.003 A 
ATOM     23  C   UNL     1       2.396   0.029  -0.020  0.00  0.00    -0.047 A 
ATOM     24  C   UNL     1       1.208  -0.679  -0.012  0.00  0.00    +0.003 A 
ATOM     25  C   UNL     1       0.002  -0.004   0.002  0.00  0.00    +0.000 A 
ENDBRANCH  19  23
ENDBRANCH   1  19
TORSDOF 4
