REMARK  Name = ZINC66796069
REMARK  4 active torsions:
REMARK  status: ('A' for Active; 'I' for Inactive)
REMARK    1  A    between atoms: C_1  and  N_2
REMARK    2  A    between atoms: N_10  and  C_14
REMARK    3  A    between atoms: C_14  and  N_15
REMARK    4  A    between atoms: C_19  and  C_23
REMARK                            x       y       z     vdW  Elec       q    Type
REMARK                         _______ _______ _______ _____ _____    ______ ____
ROOT
ATOM      1  C   UNL     1      -0.018   1.465   0.010  0.00  0.00    -0.096 C 
ATOM      2  N   UNL     1       0.002  -0.004   0.002  0.00  0.00    +0.378 N 
ATOM      3  C   UNL     1       0.680  -0.476  -1.212  0.00  0.00    -0.077 C 
ATOM      4  C   UNL     1       0.621  -2.005  -1.270  0.00  0.00    +0.017 C 
ATOM      5  C   UNL     1       1.296  -2.582  -0.029  0.00  0.00    +0.109 C 
ATOM      6  C   UNL     1       0.655  -2.018   1.235  0.00  0.00    +0.017 C 
ATOM      7  C   UNL     1       0.712  -0.488   1.192  0.00  0.00    -0.077 C 
ATOM      8  C   UNL     1       1.214  -4.091  -0.036  0.00  0.00    +0.247 C 
ATOM      9  O   UNL     1       0.211  -4.772  -0.026  0.00  0.00    -0.273 OA
ATOM     10  N   UNL     1       2.493  -4.520  -0.056  0.00  0.00    -0.211 N 
ATOM     11  C   UNL     1       3.356  -3.497  -0.062  0.00  0.00    +0.310 C 
ATOM     12  O   UNL     1       4.564  -3.632  -0.079  0.00  0.00    -0.252 OA
ATOM     13  N   UNL     1       2.736  -2.302  -0.047  0.00  0.00    -0.285 N 
ATOM     14  H   UNL     1       3.158  -1.428  -0.048  0.00  0.00    +0.151 HD
ATOM     15  H   UNL     1      -0.945  -0.352   0.012  0.00  0.00    -0.082 HD
ENDROOT
BRANCH  10  16
ATOM     16  C   UNL     1       2.887  -5.931  -0.068  0.00  0.00    +0.205 C 
BRANCH  16  17
ATOM     17  N   UNL     1       3.000  -6.396  -1.457  0.00  0.00    -0.286 NA
ATOM     18  C   UNL     1       1.667  -6.623  -2.049  0.00  0.00    +0.086 C 
ATOM     19  C   UNL     1       1.765  -6.371  -3.532  0.00  0.00    +0.016 C 
ATOM     20  C   UNL     1       2.006  -7.674  -4.314  0.00  0.00    +0.009 C 
ATOM     21  C   UNL     1       3.014  -8.597  -3.599  0.00  0.00    +0.020 C 
ATOM     22  C   UNL     1       4.184  -7.841  -3.022  0.00  0.00    +0.023 C 
ATOM     23  C   UNL     1       3.875  -7.482  -1.552  0.00  0.00    +0.086 C 
BRANCH  21  24
ATOM     24  C   UNL     1       3.531  -9.611  -4.587  0.00  0.00    -0.044 A 
ATOM     25  C   UNL     1       4.202  -9.191  -5.721  0.00  0.00    +0.004 A 
ATOM     26  C   UNL     1       4.676 -10.121  -6.627  0.00  0.00    +0.000 A 
ATOM     27  C   UNL     1       4.481 -11.471  -6.399  0.00  0.00    +0.000 A 
ATOM     28  C   UNL     1       3.811 -11.890  -5.265  0.00  0.00    +0.000 A 
ATOM     29  C   UNL     1       3.340 -10.960  -4.356  0.00  0.00    +0.004 A 
ENDBRANCH  21  24
ENDBRANCH  16  17
ENDBRANCH  10  16
TORSDOF 3
