REMARK  Name = ZINC64979756
REMARK  10 active torsions:
REMARK  status: ('A' for Active; 'I' for Inactive)
REMARK    1  A    between atoms: C_1  and  C_2
REMARK    2  A    between atoms: C_2  and  C_3
REMARK    3  A    between atoms: C_3  and  N_4
REMARK    4  A    between atoms: C_8  and  N_20
REMARK    5  A    between atoms: C_21  and  C_23
REMARK    6  A    between atoms: C_23  and  C_25
REMARK    7  A    between atoms: C_23  and  N_26
REMARK    8  A    between atoms: N_26  and  S_27
REMARK    9  A    between atoms: S_27  and  C_30
REMARK   10  A    between atoms: C_33  and  C_36
REMARK                            x       y       z     vdW  Elec       q    Type
REMARK                         _______ _______ _______ _____ _____    ______ ____
ROOT
ATOM      1  N   UNL     1      -1.418  -2.027   0.017  0.00  0.00    -0.266 N 
ATOM      2  C   UNL     1      -1.416  -2.595  -1.251  0.00  0.00    +0.050 A 
ATOM      3  C   UNL     1      -2.290  -2.086  -2.209  0.00  0.00    +0.026 A 
ATOM      4  C   UNL     1      -2.322  -2.617  -3.483  0.00  0.00    +0.025 A 
ATOM      5  C   UNL     1      -1.479  -3.667  -3.822  0.00  0.00    +0.035 A 
ATOM      6  C   UNL     1      -0.605  -4.181  -2.875  0.00  0.00    +0.040 A 
ATOM      7  C   UNL     1      -0.575  -3.647  -1.594  0.00  0.00    +0.036 A 
ATOM      8  S   UNL     1       0.540  -4.319  -0.406  0.00  0.00    -0.087 S 
ATOM      9  C   UNL     1      -0.520  -4.901   0.876  0.00  0.00    +0.025 A 
ATOM     10  C   UNL     1      -0.512  -6.246   1.223  0.00  0.00    +0.016 A 
ATOM     11  C   UNL     1      -1.339  -6.705   2.228  0.00  0.00    +0.001 A 
ATOM     12  C   UNL     1      -2.179  -5.827   2.894  0.00  0.00    +0.001 A 
ATOM     13  C   UNL     1      -2.199  -4.491   2.561  0.00  0.00    +0.014 A 
ATOM     14  C   UNL     1      -1.368  -4.006   1.541  0.00  0.00    +0.051 A 
ATOM     15  C   UNL     1      -1.405  -2.587   1.198  0.00  0.00    +0.252 C 
ATOM     16  O   UNL     1      -1.431  -1.821   2.141  0.00  0.00    -0.270 OA
ENDROOT
BRANCH   5  17
ATOM     17  N   UNL     1      -1.511  -4.205  -5.115  0.00  0.00    -0.284 N 
ATOM     18  C   UNL     1      -0.375  -4.647  -5.689  0.00  0.00    +0.236 C 
ATOM     19  O   UNL     1       0.660  -4.657  -5.057  0.00  0.00    -0.274 OA
ATOM     20  H   UNL     1      -2.351  -4.260  -5.597  0.00  0.00    +0.155 HD
BRANCH  18  21
ATOM     21  C   UNL     1      -0.390  -5.130  -7.117  0.00  0.00    +0.159 C 
ATOM     22  C   UNL     1      -1.354  -6.311  -7.246  0.00  0.00    +0.035 C 
BRANCH  21  23
ATOM     23  N   UNL     1       0.957  -5.554  -7.504  0.00  0.00    -0.178 NA
ATOM     24  H   UNL     1       1.538  -5.978  -6.853  0.00  0.00    +0.149 HD
BRANCH  23  25
ATOM     25  S   UNL     1       1.490  -5.310  -9.053  0.00  0.00    +0.059 S 
ATOM     26  O   UNL     1       2.824  -5.797  -9.105  0.00  0.00    -0.153 OA
ATOM     27  O   UNL     1       0.468  -5.792  -9.914  0.00  0.00    -0.153 OA
BRANCH  25  28
ATOM     28  C   UNL     1       1.580  -3.568  -9.304  0.00  0.00    +0.105 A 
ATOM     29  C   UNL     1       0.481  -2.882  -9.786  0.00  0.00    +0.029 A 
ATOM     30  C   UNL     1       0.552  -1.515  -9.983  0.00  0.00    +0.005 A 
ATOM     31  C   UNL     1       1.721  -0.835  -9.698  0.00  0.00    -0.050 A 
ATOM     32  C   UNL     1       2.819  -1.522  -9.215  0.00  0.00    +0.005 A 
ATOM     33  C   UNL     1       2.747  -2.887  -9.014  0.00  0.00    +0.029 A 
ATOM     34  C   UNL     1       1.798   0.654  -9.914  0.00  0.00    +0.044 C 
ENDBRANCH  25  28
ENDBRANCH  23  25
ENDBRANCH  21  23
ENDBRANCH  18  21
ENDBRANCH   5  17
BRANCH   1  35
ATOM     35  C   UNL     1      -1.433  -0.562   0.033  0.00  0.00    +0.114 C 
BRANCH  35  37
ATOM     36  C   UNL     1      -0.010   1.492   0.046  0.00  0.00    +0.005 C 
ATOM     37  C   UNL     1       0.005  -0.038   0.029  0.00  0.00    +0.016 C 
ENDBRANCH  35  37
ENDBRANCH   1  35
TORSDOF 7
