REMARK  Name = ZINC63505952
REMARK  7 active torsions:
REMARK  status: ('A' for Active; 'I' for Inactive)
REMARK    1  A    between atoms: C_7  and  C_10
REMARK    2  A    between atoms: C_10  and  C_11
REMARK    3  A    between atoms: C_11  and  N_12
REMARK    4  A    between atoms: C_13  and  C_15
REMARK    5  A    between atoms: N_18  and  C_21
REMARK    6  A    between atoms: N_30  and  C_31
REMARK    7  A    between atoms: C_31  and  C_32
REMARK                            x       y       z     vdW  Elec       q    Type
REMARK                         _______ _______ _______ _____ _____    ______ ____
ROOT
ATOM      1  C   UNL     1      -0.415  -8.466  -2.367  0.00  0.00    +0.077 C 
ATOM      2  C   UNL     1      -0.274  -9.990  -2.389  0.00  0.00    +0.028 C 
ATOM      3  C   UNL     1      -1.666 -10.626  -2.380  0.00  0.00    +0.088 C 
ATOM      4  N   UNL     1      -2.423 -10.169  -3.552  0.00  0.00    -0.269 NA
ATOM      5  C   UNL     1      -2.611  -8.713  -3.529  0.00  0.00    +0.088 C 
ATOM      6  C   UNL     1      -1.248  -8.020  -3.573  0.00  0.00    +0.028 C 
ENDROOT
BRANCH   4   7
ATOM      7  C   UNL     1      -3.712 -10.866  -3.651  0.00  0.00    +0.236 C 
ATOM      8  N   UNL     1      -4.221 -10.798  -5.026  0.00  0.00    -0.312 N 
ATOM      9  C   UNL     1      -5.448 -10.122  -4.985  0.00  0.00    +0.051 A 
ATOM     10  C   UNL     1      -6.333  -9.795  -6.005  0.00  0.00    +0.025 A 
ATOM     11  C   UNL     1      -7.500  -9.113  -5.719  0.00  0.00    +0.002 A 
ATOM     12  C   UNL     1      -7.793  -8.754  -4.417  0.00  0.00    +0.002 A 
ATOM     13  C   UNL     1      -6.920  -9.075  -3.396  0.00  0.00    +0.025 A 
ATOM     14  C   UNL     1      -5.743  -9.761  -3.674  0.00  0.00    +0.054 A 
ATOM     15  N   UNL     1      -4.717 -10.192  -2.819  0.00  0.00    -0.293 N 
ATOM     16  H   UNL     1      -3.788 -11.155  -5.817  0.00  0.00    +0.149 HD
BRANCH  15  17
ATOM     17  C   UNL     1      -4.657 -10.004  -1.367  0.00  0.00    +0.143 C 
BRANCH  17  18
ATOM     18  C   UNL     1      -5.382 -11.136  -0.685  0.00  0.00    -0.030 A 
ATOM     19  C   UNL     1      -6.755 -11.250  -0.807  0.00  0.00    +0.008 A 
ATOM     20  C   UNL     1      -7.420 -12.287  -0.181  0.00  0.00    +0.038 A 
ATOM     21  C   UNL     1      -6.713 -13.212   0.567  0.00  0.00    +0.123 A 
ATOM     22  C   UNL     1      -5.338 -13.096   0.689  0.00  0.00    +0.038 A 
ATOM     23  C   UNL     1      -4.674 -12.062   0.058  0.00  0.00    +0.008 A 
ATOM     24  F   UNL     1      -7.363 -14.226   1.179  0.00  0.00    -0.205 F 
ENDBRANCH  17  18
ENDBRANCH  15  17
ENDBRANCH   4   7
BRANCH   1  26
ATOM     25  N   UNL     1       1.860  -8.084  -1.475  0.00  0.00    -0.315 N 
ATOM     26  C   UNL     1       0.951  -7.833  -2.437  0.00  0.00    +0.216 C 
ATOM     27  O   UNL     1       1.232  -7.098  -3.360  0.00  0.00    -0.276 OA
ATOM     28  H   UNL     1       1.635  -8.672  -0.737  0.00  0.00    +0.149 HD
BRANCH  25  29
ATOM     29  C   UNL     1       3.188  -7.469  -1.543  0.00  0.00    +0.108 C 
BRANCH  29  30
ATOM     30  C   UNL     1       4.019  -7.915  -0.338  0.00  0.00    +0.052 C 
BRANCH  30  37
ATOM     31  C   UNL     1       5.770  -4.105   1.527  0.00  0.00    +0.001 A 
ATOM     32  C   UNL     1       7.114  -3.884   1.196  0.00  0.00    +0.002 A 
ATOM     33  C   UNL     1       7.817  -4.720   0.402  0.00  0.00    +0.026 A 
ATOM     34  C   UNL     1       7.203  -5.883  -0.139  0.00  0.00    +0.043 A 
ATOM     35  N   UNL     1       7.663  -6.830  -0.920  0.00  0.00    -0.380 N 
ATOM     36  C   UNL     1       6.587  -7.795  -1.169  0.00  0.00    +0.144 C 
ATOM     37  C   UNL     1       5.385  -7.282  -0.408  0.00  0.00    -0.040 C 
ATOM     38  C   UNL     1       5.784  -6.139   0.196  0.00  0.00    -0.001 A 
ATOM     39  C   UNL     1       5.092  -5.181   1.066  0.00  0.00    +0.010 A 
ATOM     40  H   UNL     1       8.565  -6.883  -1.274  0.00  0.00    +0.160 HD
ENDBRANCH  30  37
ENDBRANCH  29  30
ENDBRANCH  25  29
ENDBRANCH   1  26
TORSDOF 7
