REMARK  Name = ZINC00649638
REMARK  16 active torsions:
REMARK  status: ('A' for Active; 'I' for Inactive)
REMARK    1  A    between atoms: C_1  and  C_2
REMARK    2  A    between atoms: C_3  and  C_34
REMARK    3  A    between atoms: C_4  and  C_25
REMARK    4  A    between atoms: C_10  and  C_15
REMARK    5  A    between atoms: C_18  and  O_23
REMARK    6  A    between atoms: C_19  and  O_21
REMARK    7  A    between atoms: O_21  and  C_22
REMARK    8  A    between atoms: O_23  and  C_24
REMARK    9  A    between atoms: C_28  and  O_33
REMARK   10  A    between atoms: C_29  and  O_31
REMARK   11  A    between atoms: O_31  and  C_32
REMARK   12  A    between atoms: C_34  and  O_36
REMARK   13  A    between atoms: O_36  and  C_37
REMARK   14  A    between atoms: C_37  and  C_38
REMARK   15  A    between atoms: C_38  and  C_39
REMARK   16  A    between atoms: C_38  and  C_40
REMARK                            x       y       z     vdW  Elec       q    Type
REMARK                         _______ _______ _______ _____ _____    ______ ____
ROOT
ATOM      1  C   UNL     1      -0.013   1.086   0.008  0.00  0.00    +0.061 C 
ATOM      2  C   UNL     1      -0.718   1.572   1.248  0.00  0.00    +0.016 C 
ATOM      3  C   UNL     1      -0.849   2.892   1.467  0.00  0.00    +0.065 C 
ATOM      4  C   UNL     1      -1.544   3.412   2.692  0.00  0.00    +0.092 C 
ATOM      5  C   UNL     1      -2.381   2.338   3.338  0.00  0.00    +0.024 C 
ATOM      6  C   UNL     1      -2.178   1.036   3.046  0.00  0.00    +0.016 C 
ATOM      7  N   UNL     1      -1.215   0.668   2.145  0.00  0.00    -0.321 N 
ATOM      8  C   UNL     1      -2.999  -0.046   3.704  0.00  0.00    +0.059 C 
ATOM      9  C   UNL     1      -4.398   0.490   4.016  0.00  0.00    +0.032 C 
ATOM     10  C   UNL     1      -4.258   1.715   4.926  0.00  0.00    +0.088 C 
ATOM     11  C   UNL     1      -3.377   2.729   4.250  0.00  0.00    +0.162 C 
ATOM     12  O   UNL     1      -3.529   3.909   4.497  0.00  0.00    -0.292 OA
ATOM     13  H   UNL     1      -0.842  -0.367   2.147  0.00  0.00    +0.152 HD
ENDROOT
BRANCH   9  14
ATOM     14  C   UNL     1      -5.207  -0.572   4.716  0.00  0.00    -0.040 A 
ATOM     15  C   UNL     1      -4.763  -1.097   5.915  0.00  0.00    +0.008 A 
ATOM     16  C   UNL     1      -5.501  -2.071   6.561  0.00  0.00    +0.049 A 
ATOM     17  C   UNL     1      -6.688  -2.522   6.008  0.00  0.00    +0.161 A 
ATOM     18  C   UNL     1      -7.135  -1.993   4.801  0.00  0.00    +0.162 A 
ATOM     19  C   UNL     1      -6.393  -1.013   4.161  0.00  0.00    +0.053 A 
BRANCH  18  20
ATOM     20  O   UNL     1      -8.300  -2.432   4.254  0.00  0.00    -0.491 OA
ATOM     21  C   UNL     1      -8.697  -1.843   3.014  0.00  0.00    +0.277 C 
ENDBRANCH  18  20
BRANCH  17  22
ATOM     22  O   UNL     1      -7.416  -3.480   6.643  0.00  0.00    -0.491 OA
ATOM     23  C   UNL     1      -6.896  -3.978   7.877  0.00  0.00    +0.277 C 
ENDBRANCH  17  22
ENDBRANCH   9  14
BRANCH   4  24
ATOM     24  C   UNL     1      -0.507   3.891   3.675  0.00  0.00    -0.032 A 
ATOM     25  C   UNL     1       0.416   3.001   4.192  0.00  0.00    +0.008 A 
ATOM     26  C   UNL     1       1.373   3.436   5.090  0.00  0.00    +0.049 A 
ATOM     27  C   UNL     1       1.401   4.765   5.482  0.00  0.00    +0.158 A 
ATOM     28  C   UNL     1       0.469   5.660   4.965  0.00  0.00    +0.162 A 
ATOM     29  C   UNL     1      -0.484   5.218   4.061  0.00  0.00    +0.054 A 
BRANCH  28  30
ATOM     30  O   UNL     1       0.493   6.965   5.347  0.00  0.00    -0.491 OA
ATOM     31  C   UNL     1      -0.494   7.826   4.775  0.00  0.00    +0.277 C 
ENDBRANCH  28  30
BRANCH  27  32
ATOM     32  O   UNL     1       2.338   5.194   6.370  0.00  0.00    -0.503 OA
ATOM     33  H   UNL     1       2.359   6.249   6.680  0.00  0.00    +0.292 HD
ENDBRANCH  27  32
ENDBRANCH   4  24
BRANCH   3  34
ATOM     34  C   UNL     1      -0.328   3.807   0.523  0.00  0.00    +0.338 C 
ATOM     35  O   UNL     1       0.233   3.397  -0.476  0.00  0.00    -0.245 OA
BRANCH  34  36
ATOM     36  O   UNL     1      -0.453   5.135   0.731  0.00  0.00    -0.461 OA
BRANCH  36  37
ATOM     37  C   UNL     1       0.097   6.001  -0.263  0.00  0.00    +0.235 C 
BRANCH  37  38
ATOM     38  C   UNL     1      -0.139   7.457   0.142  0.00  0.00    +0.020 C 
ATOM     39  C   UNL     1       0.641   7.763   1.422  0.00  0.00    +0.010 C 
ATOM     40  C   UNL     1       0.338   8.383  -0.979  0.00  0.00    +0.010 C 
ENDBRANCH  37  38
ENDBRANCH  36  37
ENDBRANCH  34  36
ENDBRANCH   3  34
TORSDOF 10
