REMARK  Name = ZINC09411517
REMARK  14 active torsions:
REMARK  status: ('A' for Active; 'I' for Inactive)
REMARK    1  A    between atoms: C_1  and  C_2
REMARK    2  A    between atoms: C_2  and  C_3
REMARK    3  A    between atoms: C_3  and  O_4
REMARK    4  A    between atoms: O_4  and  C_5
REMARK    5  A    between atoms: C_8  and  C_11
REMARK    6  A    between atoms: C_18  and  N_36
REMARK    7  A    between atoms: C_19  and  C_34
REMARK    8  A    between atoms: C_20  and  C_22
REMARK    9  A    between atoms: C_25  and  O_32
REMARK   10  A    between atoms: C_26  and  O_30
REMARK   11  A    between atoms: C_27  and  O_28
REMARK   12  A    between atoms: O_28  and  C_29
REMARK   13  A    between atoms: O_30  and  C_31
REMARK   14  A    between atoms: O_32  and  C_33
REMARK                            x       y       z     vdW  Elec       q    Type
REMARK                         _______ _______ _______ _____ _____    ______ ____
ROOT
ATOM      1  C   UNL     1      -6.776  -4.717   0.837  0.00  0.00    +0.100 A 
ATOM      2  C   UNL     1      -7.108  -5.666  -0.135  0.00  0.00    +0.054 A 
ATOM      3  C   UNL     1      -8.329  -6.186   0.182  0.00  0.00    +0.223 A 
ATOM      4  N   UNL     1      -8.749  -5.586   1.315  0.00  0.00    -0.246 N 
ATOM      5  H   UNL     1      -9.585  -5.759   1.776  0.00  0.00    +0.192 HD
ATOM      6  N   UNL     1      -7.761  -4.672   1.714  0.00  0.00    -0.171 NA
ATOM      7  O   UNL     1      -8.939  -7.136  -0.570  0.00  0.00    -0.423 OA
ATOM      8  C   UNL     1      -8.441  -7.372  -1.801  0.00  0.00    +0.200 C 
ATOM      9  C   UNL     1      -7.240  -6.922  -2.226  0.00  0.00    +0.098 C 
ATOM     10  C   UNL     1      -6.327  -6.103  -1.347  0.00  0.00    +0.105 C 
ENDROOT
BRANCH   1  14
ATOM     11  C   UNL     1      -3.212  -2.398   0.957  0.00  0.00    +0.121 A 
ATOM     12  C   UNL     1      -3.885  -2.571  -0.245  0.00  0.00    +0.046 A 
ATOM     13  C   UNL     1      -5.041  -3.323  -0.286  0.00  0.00    +0.013 A 
ATOM     14  C   UNL     1      -5.533  -3.909   0.879  0.00  0.00    +0.003 A 
ATOM     15  C   UNL     1      -4.854  -3.733   2.083  0.00  0.00    +0.013 A 
ATOM     16  C   UNL     1      -3.696  -2.984   2.118  0.00  0.00    +0.046 A 
BRANCH  11  17
ATOM     17  O   UNL     1      -2.074  -1.657   0.995  0.00  0.00    -0.492 OA
BRANCH  17  18
ATOM     18  C   UNL     1      -1.632  -1.082  -0.236  0.00  0.00    +0.229 C 
BRANCH  18  20
ATOM     19  C   UNL     1       0.128   0.325  -1.315  0.00  0.00    +0.007 C 
ATOM     20  C   UNL     1      -0.345  -0.290   0.003  0.00  0.00    +0.038 C 
ENDBRANCH  18  20
ENDBRANCH  17  18
ENDBRANCH  11  17
ENDBRANCH   1  14
BRANCH  10  21
ATOM     21  C   UNL     1      -5.149  -6.941  -0.918  0.00  0.00    +0.011 A 
ATOM     22  C   UNL     1      -3.909  -6.733  -1.492  0.00  0.00    +0.012 A 
ATOM     23  C   UNL     1      -2.826  -7.499  -1.102  0.00  0.00    +0.050 A 
ATOM     24  C   UNL     1      -2.980  -8.478  -0.132  0.00  0.00    +0.165 A 
ATOM     25  C   UNL     1      -4.225  -8.689   0.448  0.00  0.00    +0.204 A 
ATOM     26  C   UNL     1      -5.311  -7.914   0.057  0.00  0.00    +0.169 A 
BRANCH  26  27
ATOM     27  O   UNL     1      -6.530  -8.113   0.625  0.00  0.00    -0.491 OA
ATOM     28  C   UNL     1      -7.307  -9.205   0.128  0.00  0.00    +0.277 C 
ENDBRANCH  26  27
BRANCH  25  29
ATOM     29  O   UNL     1      -4.381  -9.649   1.400  0.00  0.00    -0.488 OA
ATOM     30  C   UNL     1      -4.178  -9.255   2.758  0.00  0.00    +0.277 C 
ENDBRANCH  25  29
BRANCH  24  31
ATOM     31  O   UNL     1      -1.914  -9.231   0.251  0.00  0.00    -0.491 OA
ATOM     32  C   UNL     1      -0.665  -8.959  -0.388  0.00  0.00    +0.277 C 
ENDBRANCH  24  31
ENDBRANCH  10  21
BRANCH   8  33
ATOM     33  N   UNL     1      -9.199  -8.113  -2.674  0.00  0.00    -0.328 N 
ATOM     34  H   UNL     1     -10.066  -8.450  -2.398  0.00  0.00    +0.145 HD
ATOM     35  H   UNL     1      -8.868  -8.299  -3.567  0.00  0.00    +0.145 HD
ENDBRANCH   8  33
BRANCH   9  36
ATOM     36  C   UNL     1      -6.818  -7.233  -3.558  0.00  0.00    +0.101 C 
ATOM     37  N   UNL     1      -6.483  -7.479  -4.615  0.00  0.00    -0.191 NA
ENDBRANCH   9  36
TORSDOF 10
