REMARK  Name = ZINC01766056
REMARK  2 active torsions:
REMARK  status: ('A' for Active; 'I' for Inactive)
REMARK    1  A    between atoms: C_1  and  C_2
REMARK    2  A    between atoms: C_5  and  C_7
REMARK                            x       y       z     vdW  Elec       q    Type
REMARK                         _______ _______ _______ _____ _____    ______ ____
ROOT
ATOM      1  C   UNL     1      -0.218   3.475   1.676  0.00  0.00    +0.009 C 
ATOM      2  C   UNL     1       0.479   2.174   1.273  0.00  0.00    +0.004 C 
ATOM      3  C   UNL     1       1.329   2.193   0.001  0.00  0.00    +0.023 C 
ATOM      4  C   UNL     1      -0.018   1.468   0.010  0.00  0.00    +0.095 C 
ENDROOT
BRANCH   4   5
ATOM      5  C   UNL     1       0.002  -0.004   0.002  0.00  0.00    +0.066 C 
ATOM      6  N   UNL     1       0.018  -1.140  -0.004  0.00  0.00    -0.196 NA
ENDBRANCH   4   5
TORSDOF 1
