REMARK  Name = ZINC08442479
REMARK  6 active torsions:
REMARK  status: ('A' for Active; 'I' for Inactive)
REMARK    1  A    between atoms: C_2  and  C_3
REMARK    2  A    between atoms: C_3  and  C_4
REMARK    3  A    between atoms: C_8  and  C_11
REMARK    4  A    between atoms: C_9  and  O_10
REMARK    5  A    between atoms: N_12  and  N_13
REMARK    6  A    between atoms: C_16  and  C_19
REMARK                            x       y       z     vdW  Elec       q    Type
REMARK                         _______ _______ _______ _____ _____    ______ ____
ROOT
ATOM      1  N   UNL     1      -0.835  -6.850   0.746  0.00  0.00    -0.215 N 
ATOM      2  C   UNL     1      -1.435  -7.239  -0.440  0.00  0.00    +0.178 A 
ATOM      3  N   UNL     1      -2.014  -8.386  -0.746  0.00  0.00    -0.223 NA
ATOM      4  C   UNL     1      -2.544  -8.590  -1.944  0.00  0.00    +0.087 A 
ATOM      5  C   UNL     1      -2.490  -7.593  -2.879  0.00  0.00    +0.077 A 
ATOM      6  S   UNL     1      -1.639  -6.319  -1.958  0.00  0.00    -0.059 S 
ATOM      7  H   UNL     1      -0.798  -7.465   1.495  0.00  0.00    +0.176 HD
ENDROOT
BRANCH   4   8
ATOM      8  C   UNL     1      -3.188  -9.884  -2.266  0.00  0.00    +0.086 A 
ATOM      9  C   UNL     1      -3.259 -10.898  -1.340  0.00  0.00    +0.028 A 
ATOM     10  C   UNL     1      -3.915 -12.142  -1.752  0.00  0.00    +0.019 A 
ATOM     11  C   UNL     1      -4.266 -13.114  -0.808  0.00  0.00    +0.026 A 
ATOM     12  C   UNL     1      -4.884 -14.273  -1.223  0.00  0.00    +0.019 A 
ATOM     13  C   UNL     1      -5.159 -14.480  -2.568  0.00  0.00    +0.019 A 
ATOM     14  C   UNL     1      -4.817 -13.531  -3.510  0.00  0.00    +0.048 A 
ATOM     15  C   UNL     1      -4.193 -12.357  -3.114  0.00  0.00    +0.139 A 
ATOM     16  O   UNL     1      -3.845 -11.417  -4.026  0.00  0.00    -0.422 OA
ATOM     17  C   UNL     1      -3.784 -10.135  -3.590  0.00  0.00    +0.347 A 
ATOM     18  O   UNL     1      -4.205  -9.219  -4.271  0.00  0.00    -0.244 OA
ATOM     19 BR   UNL     1      -5.361 -15.591   0.047  0.00  0.00    -0.050 Br
ENDBRANCH   4   8
BRANCH   1  21
ATOM     20  C   UNL     1       0.283  -5.205   1.975  0.00  0.00    +0.142 C 
ATOM     21  N   UNL     1      -0.280  -5.569   0.863  0.00  0.00    -0.188 NA
BRANCH  20  26
ATOM     22  C   UNL     1       1.369  -1.702   1.144  0.00  0.00    -0.002 A 
ATOM     23  C   UNL     1       1.967  -1.322   2.331  0.00  0.00    +0.007 A 
ATOM     24  C   UNL     1       2.019  -2.199   3.401  0.00  0.00    +0.001 A 
ATOM     25  C   UNL     1       1.474  -3.462   3.292  0.00  0.00    +0.013 A 
ATOM     26  C   UNL     1       0.868  -3.858   2.098  0.00  0.00    +0.036 A 
ATOM     27  C   UNL     1       0.813  -2.964   1.019  0.00  0.00    +0.129 A 
BRANCH  27  28
ATOM     28  O   UNL     1       0.221  -3.337  -0.145  0.00  0.00    -0.506 OA
ATOM     29  H   UNL     1       0.822  -3.756  -0.776  0.00  0.00    +0.292 HD
ENDBRANCH  27  28
BRANCH  22  30
ATOM     30  C   UNL     1       1.317  -0.740  -0.015  0.00  0.00    +0.065 C 
BRANCH  30  32
ATOM     31  C   UNL     1      -0.016   1.306   0.009  0.00  0.00    +0.004 C 
ATOM     32  C   UNL     1       0.002  -0.004   0.002  0.00  0.00    -0.030 C 
ENDBRANCH  30  32
ENDBRANCH  22  30
ENDBRANCH  20  26
ENDBRANCH   1  21
TORSDOF 6
