REMARK  Name = ZINC65182686
REMARK  8 active torsions:
REMARK  status: ('A' for Active; 'I' for Inactive)
REMARK    1  A    between atoms: C_1  and  C_2
REMARK    2  A    between atoms: C_7  and  C_13
REMARK    3  A    between atoms: C_9  and  C_12
REMARK    4  A    between atoms: C_16  and  C_19
REMARK    5  A    between atoms: C_19  and  C_20
REMARK    6  A    between atoms: C_20  and  N_21
REMARK    7  A    between atoms: N_21  and  C_22
REMARK    8  A    between atoms: C_23  and  C_25
REMARK                            x       y       z     vdW  Elec       q    Type
REMARK                         _______ _______ _______ _____ _____    ______ ____
ROOT
ATOM      1  C   UNL     1      -1.315  -5.232   1.991  0.00  0.00    +0.318 C 
ATOM      2  N   UNL     1      -1.252  -6.539   1.317  0.00  0.00    -0.291 N 
ATOM      3  C   UNL     1      -2.349  -6.614   0.490  0.00  0.00    +0.139 C 
ATOM      4  N   UNL     1      -3.065  -5.551   0.561  0.00  0.00    -0.072 NA
ATOM      5  O   UNL     1      -2.508  -4.621   1.474  0.00  0.00    -0.367 OA
ATOM      6  H   UNL     1      -0.569  -7.217   1.434  0.00  0.00    +0.151 HD
ENDROOT
BRANCH   1  13
ATOM      7  C   UNL     1      -0.291   1.551   0.321  0.00  0.00    +0.044 C 
ATOM      8  C   UNL     1      -0.235   0.046   0.277  0.00  0.00    -0.050 A 
ATOM      9  C   UNL     1      -0.198  -0.600  -0.967  0.00  0.00    +0.005 A 
ATOM     10  C   UNL     1      -0.147  -1.943  -1.090  0.00  0.00    +0.026 A 
ATOM     11  C   UNL     1      -0.129  -2.771   0.067  0.00  0.00    +0.043 A 
ATOM     12  N   UNL     1      -0.083  -4.073   0.207  0.00  0.00    -0.373 N 
ATOM     13  C   UNL     1      -0.087  -4.390   1.640  0.00  0.00    +0.168 C 
ATOM     14  C   UNL     1      -0.143  -3.060   2.358  0.00  0.00    -0.036 C 
ATOM     15  C   UNL     1      -0.167  -2.113   1.393  0.00  0.00    -0.001 A 
ATOM     16  C   UNL     1      -0.216  -0.647   1.439  0.00  0.00    +0.013 A 
ATOM     17  C   UNL     1      -0.168  -2.835   3.848  0.00  0.00    +0.042 C 
ATOM     18  H   UNL     1      -0.052  -4.720  -0.515  0.00  0.00    +0.160 HD
ENDBRANCH   1  13
BRANCH   3  19
ATOM     19  C   UNL     1      -2.668  -7.795  -0.390  0.00  0.00    +0.094 C 
BRANCH  19  20
ATOM     20  C   UNL     1      -3.959  -7.520  -1.164  0.00  0.00    +0.115 C 
BRANCH  20  21
ATOM     21  N   UNL     1      -4.270  -8.668  -2.019  0.00  0.00    -0.300 N 
ATOM     22  C   UNL     1      -5.100  -9.761  -1.505  0.00  0.00    +0.132 C 
ATOM     23  C   UNL     1      -3.792  -8.720  -3.278  0.00  0.00    +0.246 C 
ATOM     24  O   UNL     1      -3.018  -7.868  -3.669  0.00  0.00    -0.270 OA
BRANCH  23  25
ATOM     25  C   UNL     1      -4.209  -9.812  -4.183  0.00  0.00    +0.038 A 
ATOM     26  C   UNL     1      -5.507 -10.321  -4.115  0.00  0.00    +0.013 A 
ATOM     27  C   UNL     1      -5.891 -11.339  -4.962  0.00  0.00    +0.002 A 
ATOM     28  C   UNL     1      -4.993 -11.857  -5.879  0.00  0.00    +0.020 A 
ATOM     29  C   UNL     1      -3.704 -11.357  -5.952  0.00  0.00    +0.042 A 
ATOM     30  C   UNL     1      -3.309 -10.334  -5.113  0.00  0.00    +0.033 A 
ATOM     31 CL   UNL     1      -2.584 -12.013  -7.105  0.00  0.00    -0.084 Cl
ENDBRANCH  23  25
ENDBRANCH  20  21
ENDBRANCH  19  20
ENDBRANCH   3  19
TORSDOF 5
