REMARK  Name = ZINC39737526
REMARK  14 active torsions:
REMARK  status: ('A' for Active; 'I' for Inactive)
REMARK    1  A    between atoms: C_1  and  C_2
REMARK    2  A    between atoms: C_2  and  C_3
REMARK    3  A    between atoms: C_2  and  C_4
REMARK    4  A    between atoms: C_2  and  C_5
REMARK    5  A    between atoms: C_7  and  C_16
REMARK    6  A    between atoms: C_9  and  C_12
REMARK    7  A    between atoms: C_10  and  O_11
REMARK    8  A    between atoms: C_12  and  C_13
REMARK    9  A    between atoms: C_12  and  C_14
REMARK   10  A    between atoms: C_12  and  C_15
REMARK   11  A    between atoms: N_17  and  N_18
REMARK   12  A    between atoms: C_19  and  C_20
REMARK   13  A    between atoms: C_22  and  N_27
REMARK   14  A    between atoms: N_30  and  C_31
REMARK                            x       y       z     vdW  Elec       q    Type
REMARK                         _______ _______ _______ _____ _____    ______ ____
ROOT
ATOM      1  C   UNL     1       2.370   0.607  -5.078  0.00  0.00    +0.124 C 
ATOM      2  N   UNL     1       1.550   1.456  -4.396  0.00  0.00    -0.264 N 
ATOM      3  N   UNL     1       3.691   0.592  -4.817  0.00  0.00    -0.299 N 
ATOM      4  H   UNL     1       0.591   1.417  -4.532  0.00  0.00    +0.190 HD
ATOM      5  H   UNL     1       4.164   1.425  -4.660  0.00  0.00    +0.154 HD
ENDROOT
BRANCH   1   8
ATOM      6  C   UNL     1       0.069  -1.704  -6.808  0.00  0.00    +0.000 A 
ATOM      7  C   UNL     1       0.580  -0.872  -5.858  0.00  0.00    +0.019 A 
ATOM      8  C   UNL     1       1.832  -0.261  -6.062  0.00  0.00    +0.015 A 
ATOM      9  C   UNL     1       2.547  -0.515  -7.248  0.00  0.00    +0.019 A 
ATOM     10  C   UNL     1       2.024  -1.349  -8.190  0.00  0.00    +0.000 A 
ATOM     11  C   UNL     1       0.785  -1.956  -7.979  0.00  0.00    +0.124 A 
BRANCH   6  13
ATOM     12  C   UNL     1      -1.841  -1.920  -5.241  0.00  0.00    +0.015 C 
ATOM     13  C   UNL     1      -1.271  -2.360  -6.591  0.00  0.00    -0.009 C 
ATOM     14  C   UNL     1      -1.103  -3.880  -6.604  0.00  0.00    +0.015 C 
ATOM     15  C   UNL     1      -2.229  -1.944  -7.709  0.00  0.00    +0.015 C 
ENDBRANCH   6  13
BRANCH  10  16
ATOM     16  C   UNL     1       2.788  -1.622  -9.460  0.00  0.00    -0.009 C 
ATOM     17  C   UNL     1       4.114  -0.860  -9.431  0.00  0.00    +0.015 C 
ATOM     18  C   UNL     1       3.064  -3.123  -9.577  0.00  0.00    +0.015 C 
ATOM     19  C   UNL     1       1.961  -1.161 -10.662  0.00  0.00    +0.015 C 
ENDBRANCH  10  16
BRANCH  11  20
ATOM     20  O   UNL     1       0.273  -2.788  -8.917  0.00  0.00    -0.506 OA
ATOM     21  H   UNL     1      -0.273  -2.345  -9.580  0.00  0.00    +0.292 HD
ENDBRANCH  11  20
ENDBRANCH   1   8
BRANCH   3  22
ATOM     22  C   UNL     1       4.378  -0.617  -4.771  0.00  0.00    +0.032 A 
ATOM     23  C   UNL     1       3.786  -1.734  -4.188  0.00  0.00    +0.023 A 
ATOM     24  C   UNL     1       4.471  -2.931  -4.146  0.00  0.00    +0.002 A 
ATOM     25  C   UNL     1       5.743  -3.022  -4.682  0.00  0.00    +0.000 A 
ATOM     26  C   UNL     1       6.335  -1.915  -5.263  0.00  0.00    +0.002 A 
ATOM     27  C   UNL     1       5.655  -0.714  -5.314  0.00  0.00    +0.023 A 
ENDBRANCH   3  22
BRANCH   2  28
ATOM     28  N   UNL     1       2.051   2.311  -3.570  0.00  0.00    -0.180 NA
ATOM     29  C   UNL     1       1.236   3.081  -2.821  0.00  0.00    +0.144 C 
BRANCH  29  30
ATOM     30  C   UNL     1       1.773   4.079  -2.005  0.00  0.00    +0.044 A 
ATOM     31  C   UNL     1       0.939   4.838  -1.146  0.00  0.00    +0.046 A 
ATOM     32  C   UNL     1       1.479   5.804  -0.360  0.00  0.00    +0.127 A 
ATOM     33  C   UNL     1       2.847   6.071  -0.377  0.00  0.00    +0.036 A 
ATOM     34  C   UNL     1       3.706   5.364  -1.193  0.00  0.00    +0.054 A 
ATOM     35  C   UNL     1       3.215   4.359  -2.015  0.00  0.00    +0.188 A 
ATOM     36  O   UNL     1       4.047   3.655  -2.814  0.00  0.00    -0.287 OA
BRANCH  32  37
ATOM     37  N   UNL     1       0.598   6.591   0.533  0.00  0.00    +0.056 N 
ATOM     38  O   UNL     1      -0.696   6.350   0.559  0.00  0.00    -0.126 OA
ATOM     39  O   UNL     1       1.109   7.531   1.301  0.00  0.00    -0.126 OA
ENDBRANCH  32  37
ENDBRANCH  29  30
ENDBRANCH   2  28
TORSDOF 8
