REMARK  Name = ZINC05368770
REMARK  4 active torsions:
REMARK  status: ('A' for Active; 'I' for Inactive)
REMARK    1  A    between atoms: N_6  and  N_7
REMARK    2  A    between atoms: C_8  and  C_10
REMARK    3  A    between atoms: C_10  and  C_11
REMARK    4  A    between atoms: N_13  and  N_14
REMARK                            x       y       z     vdW  Elec       q    Type
REMARK                         _______ _______ _______ _____ _____    ______ ____
ROOT
ATOM      1  C   UNL     1      -1.593   1.182   6.018  0.00  0.00    +0.194 C 
ENDROOT
BRANCH   1   3
ATOM      2  N   UNL     1      -0.896   1.508   3.667  0.00  0.00    -0.207 N 
ATOM      3  C   UNL     1      -1.078   0.662   4.701  0.00  0.00    +0.241 C 
ATOM      4  O   UNL     1      -0.828  -0.518   4.571  0.00  0.00    -0.274 OA
ATOM      5  H   UNL     1      -1.096   2.451   3.772  0.00  0.00    +0.177 HD
BRANCH   2  11
ATOM      6  C   UNL     1       0.532   4.435  -0.379  0.00  0.00    +0.000 C 
ATOM      7  C   UNL     1       0.618   3.316  -1.321  0.00  0.00    +0.000 C 
ATOM      8  C   UNL     1      -0.341   2.170  -0.969  0.00  0.00    +0.006 C 
ATOM      9  C   UNL     1       0.256   1.319   0.120  0.00  0.00    +0.052 C 
ATOM     10  C   UNL     1      -0.133   1.841   1.499  0.00  0.00    +0.037 C 
ATOM     11  N   UNL     1      -0.417   1.024   2.443  0.00  0.00    -0.189 NA
ATOM     12  C   UNL     1      -0.178   3.346   1.744  0.00  0.00    +0.052 C 
ATOM     13  C   UNL     1       0.957   4.043   1.044  0.00  0.00    +0.006 C 
ENDBRANCH   2  11
ENDBRANCH   1   3
BRANCH   1  14
ATOM     14  C   UNL     1      -1.707   0.043   6.999  0.00  0.00    +0.241 C 
ATOM     15  O   UNL     1      -1.400  -1.081   6.661  0.00  0.00    -0.274 OA
ATOM     16  N   UNL     1      -2.149   0.273   8.251  0.00  0.00    -0.207 N 
ATOM     17  H   UNL     1      -2.395   1.172   8.521  0.00  0.00    +0.177 HD
BRANCH  16  18
ATOM     18  N   UNL     1      -2.255  -0.786   9.162  0.00  0.00    -0.189 NA
ATOM     19  C   UNL     1      -2.783  -0.591  10.311  0.00  0.00    +0.037 C 
ATOM     20  C   UNL     1      -3.410   0.758  10.652  0.00  0.00    +0.052 C 
ATOM     21  C   UNL     1      -4.676   0.576  11.452  0.00  0.00    +0.006 C 
ATOM     22  C   UNL     1      -4.344   0.548  12.950  0.00  0.00    +0.000 C 
ATOM     23  C   UNL     1      -3.856  -0.759  13.396  0.00  0.00    +0.000 C 
ATOM     24  C   UNL     1      -2.529  -1.153  12.733  0.00  0.00    +0.006 C 
ATOM     25  C   UNL     1      -2.788  -1.703  11.356  0.00  0.00    +0.052 C 
ENDBRANCH  16  18
ENDBRANCH   1  14
TORSDOF 4
