REMARK  Name = ZINC63492444
REMARK  5 active torsions:
REMARK  status: ('A' for Active; 'I' for Inactive)
REMARK    1  A    between atoms: C_1  and  C_2
REMARK    2  A    between atoms: C_3  and  C_18
REMARK    3  A    between atoms: C_4  and  O_17
REMARK    4  A    between atoms: N_6  and  C_8
REMARK    5  A    between atoms: C_18  and  C_19
REMARK                            x       y       z     vdW  Elec       q    Type
REMARK                         _______ _______ _______ _____ _____    ______ ____
ROOT
ATOM      1  C   UNL     1      -0.018   1.503   0.010  0.00  0.00    +0.062 C 
ATOM      2  C   UNL     1       0.002  -0.004   0.002  0.00  0.00    +0.019 C 
ATOM      3  C   UNL     1      -1.078  -0.758   0.003  0.00  0.00    -0.003 C 
ATOM      4  C   UNL     1      -0.608  -2.197  -0.008  0.00  0.00    +0.235 C 
ATOM      5  N   UNL     1       0.865  -2.098  -0.014  0.00  0.00    -0.157 NA
ATOM      6  N   UNL     1       1.155  -0.763  -0.014  0.00  0.00    -0.276 N 
ATOM      7  H   UNL     1       2.054  -0.397  -0.021  0.00  0.00    +0.166 HD
ENDROOT
BRANCH   5   8
ATOM      8  C   UNL     1       1.443  -2.768   1.158  0.00  0.00    +0.271 C 
ATOM      9  N   UNL     1       1.113  -4.198   1.135  0.00  0.00    -0.350 N 
ATOM     10  C   UNL     1       0.424  -4.458   2.208  0.00  0.00    +0.061 A 
ATOM     11  C   UNL     1      -0.179  -5.690   2.734  0.00  0.00    +0.027 A 
ATOM     12  C   UNL     1      -0.853  -5.655   3.901  0.00  0.00    +0.002 A 
ATOM     13  C   UNL     1      -1.009  -4.476   4.651  0.00  0.00    +0.002 A 
ATOM     14  C   UNL     1      -0.497  -3.292   4.260  0.00  0.00    +0.027 A 
ATOM     15  C   UNL     1       0.259  -3.210   3.002  0.00  0.00    +0.061 A 
ATOM     16  N   UNL     1       0.853  -2.227   2.389  0.00  0.00    -0.350 N 
ATOM     17  H   UNL     1       1.363  -4.834   0.446  0.00  0.00    +0.163 HD
ATOM     18  H   UNL     1       0.898  -1.306   2.691  0.00  0.00    +0.163 HD
ENDBRANCH   5   8
BRANCH   4  19
ATOM     19  O   UNL     1      -1.060  -2.879   1.164  0.00  0.00    -0.372 OA
ATOM     20  H   UNL     1      -2.023  -2.923   1.246  0.00  0.00    +0.212 HD
ENDBRANCH   4  19
BRANCH   3  21
ATOM     21  C   UNL     1      -2.507  -0.280   0.013  0.00  0.00    +0.071 C 
BRANCH  21  22
ATOM     22  C   UNL     1      -3.031  -0.230  -1.399  0.00  0.00    -0.043 A 
ATOM     23  C   UNL     1      -2.888   0.923  -2.149  0.00  0.00    +0.005 A 
ATOM     24  C   UNL     1      -3.367   0.969  -3.444  0.00  0.00    +0.015 A 
ATOM     25  C   UNL     1      -3.990  -0.139  -3.991  0.00  0.00    +0.018 A 
ATOM     26  C   UNL     1      -4.133  -1.292  -3.240  0.00  0.00    +0.015 A 
ATOM     27  C   UNL     1      -3.648  -1.339  -1.947  0.00  0.00    +0.005 A 
ATOM     28 BR   UNL     1      -4.646  -0.076  -5.763  0.00  0.00    -0.050 Br
ENDBRANCH  21  22
ENDBRANCH   3  21
TORSDOF 4
