REMARK  Name = ZINC37410585
REMARK  5 active torsions:
REMARK  status: ('A' for Active; 'I' for Inactive)
REMARK    1  A    between atoms: C_1  and  C_2
REMARK    2  A    between atoms: C_7  and  C_12
REMARK    3  A    between atoms: N_14  and  C_15
REMARK    4  A    between atoms: N_14  and  C_16
REMARK    5  A    between atoms: C_16  and  C_17
REMARK                            x       y       z     vdW  Elec       q    Type
REMARK                         _______ _______ _______ _____ _____    ______ ____
ROOT
ATOM      1  C   UNL     1      -0.070   1.446   0.949  0.00  0.00    +0.008 C 
ATOM      2  C   UNL     1      -0.045  -0.076   0.805  0.00  0.00    -0.009 C 
ATOM      3  C   UNL     1      -1.472  -0.596   0.603  0.00  0.00    +0.008 C 
ATOM      4  C   UNL     1      -1.438  -2.075   0.213  0.00  0.00    +0.037 C 
ATOM      5  C   UNL     1      -0.591  -2.827   1.229  0.00  0.00    -0.025 A 
ATOM      6  C   UNL     1      -0.620  -4.264   1.425  0.00  0.00    +0.047 A 
ATOM      7  C   UNL     1       0.210  -4.790   2.388  0.00  0.00    +0.058 A 
ATOM      8  S   UNL     1       1.008  -3.454   3.020  0.00  0.00    -0.101 S 
ATOM      9  C   UNL     1       0.275  -2.178   2.040  0.00  0.00    -0.006 A 
ATOM     10  C   UNL     1       0.539  -0.704   2.079  0.00  0.00    +0.046 C 
ENDROOT
BRANCH   6  11
ATOM     11  C   UNL     1      -1.505  -5.126   0.626  0.00  0.00    +0.248 C 
ATOM     12  O   UNL     1      -2.643  -4.771   0.382  0.00  0.00    -0.270 OA
ATOM     13  N   UNL     1      -1.055  -6.309   0.163  0.00  0.00    -0.290 N 
ATOM     14  C   UNL     1       0.272  -6.791   0.553  0.00  0.00    +0.133 C 
BRANCH  13  15
ATOM     15  C   UNL     1      -1.893  -7.114  -0.729  0.00  0.00    +0.232 C 
BRANCH  15  16
ATOM     16  C   UNL     1      -1.612  -6.734  -2.160  0.00  0.00    +0.373 C 
ATOM     17  O   UNL     1      -0.788  -5.871  -2.411  0.00  0.00    -0.245 OA
ATOM     18  O   UNL     1      -2.209  -7.289  -3.067  0.00  0.00    -0.245 OA
ENDBRANCH  15  16
ENDBRANCH  13  15
ENDBRANCH   6  11
TORSDOF 3
