REMARK  Name = ZINC39991175
REMARK  10 active torsions:
REMARK  status: ('A' for Active; 'I' for Inactive)
REMARK    1  A    between atoms: C_1  and  C_2
REMARK    2  A    between atoms: C_6  and  N_8
REMARK    3  A    between atoms: C_9  and  S_23
REMARK    4  A    between atoms: C_13  and  C_14
REMARK    5  A    between atoms: S_23  and  C_24
REMARK    6  A    between atoms: C_24  and  C_25
REMARK    7  A    between atoms: N_27  and  C_28
REMARK    8  A    between atoms: C_28  and  C_29
REMARK    9  A    between atoms: C_29  and  C_30
REMARK   10  A    between atoms: C_29  and  C_31
REMARK                            x       y       z     vdW  Elec       q    Type
REMARK                         _______ _______ _______ _____ _____    ______ ____
ROOT
ATOM      1  N   UNL     1      -0.074  -2.790   2.403  0.00  0.00    -0.254 N 
ATOM      2  C   UNL     1      -0.102  -4.254   2.561  0.00  0.00    +0.241 C 
ATOM      3  N   UNL     1       0.114  -4.468   4.002  0.00  0.00    -0.237 N 
ATOM      4  N   UNL     1       0.248  -3.198   4.576  0.00  0.00    -0.169 NA
ATOM      5  C   UNL     1       0.148  -2.256   3.675  0.00  0.00    +0.151 C 
ATOM      6  H   UNL     1       0.155  -5.320   4.462  0.00  0.00    +0.171 HD
ENDROOT
BRANCH   5   7
ATOM      7  C   UNL     1       0.248  -0.884   3.951  0.00  0.00    +0.022 C 
ATOM      8  C   UNL     1       0.449  -0.286   5.196  0.00  0.00    +0.006 A 
ATOM      9  C   UNL     1       0.608  -0.817   6.494  0.00  0.00    +0.010 A 
ATOM     10  C   UNL     1       0.794   0.021   7.546  0.00  0.00    +0.001 A 
ATOM     11  C   UNL     1       0.832   1.407   7.379  0.00  0.00    +0.002 A 
ATOM     12  C   UNL     1       0.685   1.986   6.162  0.00  0.00    +0.026 A 
ATOM     13  C   UNL     1       0.488   1.174   5.014  0.00  0.00    +0.043 A 
ATOM     14  N   UNL     1       0.324   1.486   3.744  0.00  0.00    -0.380 N 
ATOM     15  C   UNL     1       0.166   0.256   2.961  0.00  0.00    +0.152 C 
ATOM     16  H   UNL     1       0.313   2.386   3.383  0.00  0.00    +0.160 HD
ENDBRANCH   5   7
BRANCH   1  22
ATOM     17  C   UNL     1      -3.037  -0.630  -0.870  0.00  0.00    +0.044 C 
ATOM     18  C   UNL     1      -1.658  -1.015  -0.398  0.00  0.00    -0.049 A 
ATOM     19  C   UNL     1      -0.549  -0.660  -1.143  0.00  0.00    +0.003 A 
ATOM     20  C   UNL     1       0.718  -1.011  -0.713  0.00  0.00    +0.002 A 
ATOM     21  C   UNL     1       0.879  -1.717   0.463  0.00  0.00    +0.023 A 
ATOM     22  C   UNL     1      -0.233  -2.075   1.214  0.00  0.00    +0.038 A 
ATOM     23  C   UNL     1      -1.504  -1.716   0.782  0.00  0.00    +0.027 A 
ENDBRANCH   1  22
BRANCH   2  24
ATOM     24  S   UNL     1       1.229  -5.021   1.596  0.00  0.00    -0.108 S 
BRANCH  24  25
ATOM     25  C   UNL     1       2.744  -4.300   2.286  0.00  0.00    +0.168 C 
BRANCH  25  26
ATOM     26  C   UNL     1       3.941  -4.861   1.564  0.00  0.00    +0.223 C 
ATOM     27  O   UNL     1       3.788  -5.667   0.671  0.00  0.00    -0.275 OA
ATOM     28  N   UNL     1       5.183  -4.466   1.910  0.00  0.00    -0.314 N 
ATOM     29  H   UNL     1       5.305  -3.821   2.624  0.00  0.00    +0.149 HD
BRANCH  28  30
ATOM     30  C   UNL     1       6.347  -5.011   1.207  0.00  0.00    +0.107 C 
BRANCH  30  31
ATOM     31  C   UNL     1       7.625  -4.403   1.789  0.00  0.00    -0.000 C 
ATOM     32  C   UNL     1       7.784  -4.849   3.244  0.00  0.00    +0.009 C 
ATOM     33  C   UNL     1       8.831  -4.876   0.976  0.00  0.00    +0.009 C 
ENDBRANCH  30  31
ENDBRANCH  28  30
ENDBRANCH  25  26
ENDBRANCH  24  25
ENDBRANCH   2  24
TORSDOF 7
