REMARK  Name = ZINC23379443
REMARK  5 active torsions:
REMARK  status: ('A' for Active; 'I' for Inactive)
REMARK    1  A    between atoms: C_4  and  C_8
REMARK    2  A    between atoms: C_17  and  C_25
REMARK    3  A    between atoms: C_18  and  N_24
REMARK    4  A    between atoms: C_19  and  C_20
REMARK    5  A    between atoms: C_19  and  C_22
REMARK                            x       y       z     vdW  Elec       q    Type
REMARK                         _______ _______ _______ _____ _____    ______ ____
ROOT
ATOM      1  C   UNL     1      -0.009   4.262  -0.408  0.00  0.00    +0.069 C 
ATOM      2  C   UNL     1       0.748   3.564   0.723  0.00  0.00    +0.030 C 
ATOM      3  C   UNL     1       2.057   4.245   1.039  0.00  0.00    +0.009 C 
ATOM      4  C   UNL     1       3.246   3.518   0.414  0.00  0.00    +0.005 C 
ATOM      5  C   UNL     1       3.260   2.075   0.939  0.00  0.00    +0.027 C 
ATOM      6  C   UNL     1       1.980   1.415   0.496  0.00  0.00    -0.022 C 
ATOM      7  C   UNL     1       0.865   2.108   0.382  0.00  0.00    -0.029 C 
ATOM      8  C   UNL     1      -0.365   1.435  -0.113  0.00  0.00    +0.074 C 
ATOM      9  C   UNL     1      -1.413   2.191  -0.528  0.00  0.00    +0.054 C 
ATOM     10  C   UNL     1      -1.424   3.689  -0.484  0.00  0.00    +0.188 C 
ENDROOT
BRANCH   1  14
ATOM     11  C   UNL     1      -0.203   8.458   0.378  0.00  0.00    +0.003 A 
ATOM     12  C   UNL     1      -0.417   7.553   1.401  0.00  0.00    +0.020 A 
ATOM     13  C   UNL     1      -0.355   6.194   1.147  0.00  0.00    +0.046 A 
ATOM     14  C   UNL     1      -0.078   5.742  -0.131  0.00  0.00    -0.004 A 
ATOM     15  C   UNL     1       0.142   6.648  -1.153  0.00  0.00    +0.046 A 
ATOM     16  C   UNL     1       0.074   8.007  -0.899  0.00  0.00    +0.020 A 
ATOM     17 CL   UNL     1       0.496   6.081  -2.755  0.00  0.00    -0.083 Cl
ATOM     18 CL   UNL     1      -0.623   5.058   2.431  0.00  0.00    -0.083 Cl
ENDBRANCH   1  14
BRANCH   9  19
ATOM     19  N   UNL     1      -2.521   1.550  -1.007  0.00  0.00    -0.358 N 
ATOM     20  H   UNL     1      -3.388   2.134  -1.351  0.00  0.00    +0.142 HD
ATOM     21  H   UNL     1      -2.546   0.451  -1.049  0.00  0.00    +0.142 HD
ENDBRANCH   9  19
BRANCH  10  22
ATOM     22  C   UNL     1      -2.186   4.134   0.694  0.00  0.00    +0.091 C 
ATOM     23  N   UNL     1      -2.774   4.477   1.603  0.00  0.00    -0.194 NA
ENDBRANCH  10  22
BRANCH  10  24
ATOM     24  C   UNL     1      -2.082   4.195  -1.700  0.00  0.00    +0.091 C 
ATOM     25  N   UNL     1      -2.590   4.585  -2.638  0.00  0.00    -0.194 NA
ENDBRANCH  10  24
BRANCH   8  26
ATOM     26  C   UNL     1      -0.440   0.005  -0.158  0.00  0.00    +0.101 C 
ATOM     27  N   UNL     1      -0.500  -1.129  -0.194  0.00  0.00    -0.191 NA
ENDBRANCH   8  26
TORSDOF 5
