REMARK  Name = ZINC34829744
REMARK  12 active torsions:
REMARK  status: ('A' for Active; 'I' for Inactive)
REMARK    1  A    between atoms: C_1  and  C_2
REMARK    2  A    between atoms: C_2  and  C_3
REMARK    3  A    between atoms: C_3  and  C_4
REMARK    4  A    between atoms: C_4  and  C_5
REMARK    5  A    between atoms: C_5  and  C_7
REMARK    6  A    between atoms: C_5  and  C_9
REMARK    7  A    between atoms: C_7  and  C_8
REMARK    8  A    between atoms: C_16  and  C_18
REMARK    9  A    between atoms: C_19  and  C_21
REMARK   10  A    between atoms: C_21  and  N_22
REMARK   11  A    between atoms: C_30  and  C_32
REMARK   12  A    between atoms: C_35  and  C_38
REMARK                            x       y       z     vdW  Elec       q    Type
REMARK                         _______ _______ _______ _____ _____    ______ ____
ROOT
ATOM      1  C   UNL     1       1.688  -3.716   2.712  0.00  0.00    +0.219 C 
ATOM      2  O   UNL     1       1.405  -4.394   1.747  0.00  0.00    -0.275 OA
ATOM      3  N   UNL     1       2.212  -4.294   3.811  0.00  0.00    -0.295 N 
ATOM      4  C   UNL     1       2.658  -3.475   4.947  0.00  0.00    +0.127 C 
ATOM      5  C   UNL     1       4.122  -3.816   5.252  0.00  0.00    +0.126 C 
ATOM      6  N   UNL     1       4.256  -5.277   5.337  0.00  0.00    -0.300 N 
ATOM      7  C   UNL     1       3.810  -6.096   4.201  0.00  0.00    +0.130 C 
ATOM      8  C   UNL     1       2.341  -5.756   3.898  0.00  0.00    +0.090 C 
ATOM      9  C   UNL     1       1.446  -6.284   5.021  0.00  0.00    +0.029 C 
ATOM     10  C   UNL     1       4.779  -5.855   6.436  0.00  0.00    +0.199 C 
ATOM     11  O   UNL     1       4.885  -7.061   6.494  0.00  0.00    -0.278 OA
ENDROOT
BRANCH   1  12
ATOM     12  C   UNL     1       1.455  -2.228   2.682  0.00  0.00    +0.075 C 
BRANCH  12  13
ATOM     13  C   UNL     1       0.271  -1.916   1.764  0.00  0.00    +0.009 C 
ATOM     14  C   UNL     1      -1.006  -2.514   2.357  0.00  0.00    +0.004 C 
ENDBRANCH  12  13
BRANCH  12  15
ATOM     15  C   UNL     1       2.708  -1.525   2.155  0.00  0.00    +0.013 C 
BRANCH  15  16
ATOM     16  C   UNL     1       2.517  -0.010   2.242  0.00  0.00    +0.000 C 
BRANCH  16  18
ATOM     17  C   UNL     1       3.579   2.208   1.802  0.00  0.00    +0.004 C 
ATOM     18  C   UNL     1       3.770   0.693   1.715  0.00  0.00    -0.003 C 
ENDBRANCH  16  18
ENDBRANCH  15  16
ENDBRANCH  12  15
ENDBRANCH   1  12
BRANCH  10  19
ATOM     19  C   UNL     1       5.233  -5.002   7.593  0.00  0.00    +0.020 C 
BRANCH  19  20
ATOM     20  N   UNL     1       5.761  -5.863   8.659  0.00  0.00    +0.393 N 
ATOM     21  C   UNL     1       6.951  -6.568   8.166  0.00  0.00    -0.072 C 
ATOM     22  C   UNL     1       7.301  -7.700   9.148  0.00  0.00    +0.024 C 
ATOM     23  C   UNL     1       7.263  -7.127  10.527  0.00  0.00    -0.010 A 
ATOM     24  C   UNL     1       6.730  -5.926  10.890  0.00  0.00    -0.047 A 
ATOM     25  C   UNL     1       6.811  -5.592  12.239  0.00  0.00    +0.010 A 
ATOM     26  C   UNL     1       7.394  -6.446  13.114  0.00  0.00    +0.045 A 
ATOM     27  S   UNL     1       7.869  -7.799  12.048  0.00  0.00    -0.101 S 
ATOM     28  C   UNL     1       6.089  -5.038   9.828  0.00  0.00    -0.005 C 
ATOM     29  H   UNL     1       5.058  -6.540   8.917  0.00  0.00    -0.080 HD
BRANCH  28  30
ATOM     30  C   UNL     1       4.830  -4.419  10.379  0.00  0.00    -0.057 A 
ATOM     31  C   UNL     1       3.665  -5.160  10.440  0.00  0.00    +0.002 A 
ATOM     32  C   UNL     1       2.511  -4.592  10.946  0.00  0.00    +0.003 A 
ATOM     33  C   UNL     1       2.522  -3.283  11.391  0.00  0.00    -0.050 A 
ATOM     34  C   UNL     1       3.688  -2.543  11.331  0.00  0.00    +0.003 A 
ATOM     35  C   UNL     1       4.843  -3.112  10.829  0.00  0.00    +0.002 A 
ATOM     36  C   UNL     1       1.263  -2.664  11.942  0.00  0.00    +0.044 C 
ENDBRANCH  28  30
ENDBRANCH  19  20
ENDBRANCH  10  19
TORSDOF 8
