REMARK  Name = ZINC04014878
REMARK  15 active torsions:
REMARK  status: ('A' for Active; 'I' for Inactive)
REMARK    1  A    between atoms: C_1  and  C_2
REMARK    2  A    between atoms: C_2  and  C_3
REMARK    3  A    between atoms: C_13  and  O_41
REMARK    4  A    between atoms: C_17  and  C_40
REMARK    5  A    between atoms: C_22  and  C_39
REMARK    6  A    between atoms: C_25  and  C_38
REMARK    7  A    between atoms: C_26  and  C_28
REMARK    8  A    between atoms: C_28  and  C_29
REMARK    9  A    between atoms: C_29  and  C_30
REMARK   10  A    between atoms: C_30  and  C_32
REMARK   11  A    between atoms: C_30  and  C_33
REMARK   12  A    between atoms: C_33  and  N_34
REMARK   13  A    between atoms: C_35  and  C_37
REMARK   14  A    between atoms: O_41  and  C_42
REMARK   15  A    between atoms: C_42  and  C_44
REMARK                            x       y       z     vdW  Elec       q    Type
REMARK                         _______ _______ _______ _____ _____    ______ ____
ROOT
ATOM      1  C   UNL     1      -2.797  -6.766   5.332  0.00  0.00    +0.117 C 
ATOM      2  C   UNL     1      -1.422  -6.046   5.412  0.00  0.00    +0.053 C 
ATOM      3  C   UNL     1      -1.583  -4.924   4.389  0.00  0.00    +0.003 C 
ATOM      4  C   UNL     1      -0.373  -4.133   3.978  0.00  0.00    +0.000 C 
ATOM      5  C   UNL     1      -0.608  -2.679   4.429  0.00  0.00    +0.031 C 
ATOM      6  C   UNL     1       0.512  -1.800   3.970  0.00  0.00    -0.027 C 
ATOM      7  C   UNL     1       1.212  -2.054   2.905  0.00  0.00    -0.064 C 
ATOM      8  C   UNL     1       2.305  -1.077   2.504  0.00  0.00    +0.075 C 
ATOM      9  C   UNL     1       2.056  -0.666   1.049  0.00  0.00    +0.180 C 
ATOM     10  C   UNL     1       1.979  -1.904   0.160  0.00  0.00    +0.046 C 
ATOM     11  C   UNL     1       0.833  -2.819   0.589  0.00  0.00    +0.015 C 
ATOM     12  C   UNL     1       1.006  -3.259   2.042  0.00  0.00    -0.008 C 
ATOM     13  C   UNL     1      -0.140  -4.159   2.478  0.00  0.00    +0.003 C 
ATOM     14  C   UNL     1      -1.383  -3.938   1.641  0.00  0.00    +0.005 C 
ATOM     15  C   UNL     1      -2.647  -4.615   2.190  0.00  0.00    +0.008 C 
ATOM     16  C   UNL     1      -2.284  -5.650   3.224  0.00  0.00    -0.019 C 
ATOM     17  C   UNL     1      -3.437  -6.354   3.964  0.00  0.00    +0.068 C 
ATOM     18  C   UNL     1      -4.542  -5.418   4.374  0.00  0.00    -0.028 C 
ATOM     19  C   UNL     1      -4.568  -5.361   5.690  0.00  0.00    +0.098 C 
ATOM     20  O   UNL     1      -3.664  -6.149   6.295  0.00  0.00    -0.489 OA
ATOM     21  C   UNL     1      -5.523  -4.701   3.477  0.00  0.00    +0.043 C 
ATOM     22  C   UNL     1      -1.436  -6.769   2.604  0.00  0.00    +0.012 C 
ATOM     23  C   UNL     1       2.276  -4.117   2.125  0.00  0.00    +0.016 C 
ENDROOT
BRANCH   1  25
ATOM     24  C   UNL     1      -2.049  -8.580   6.878  0.00  0.00    +0.008 C 
ATOM     25  C   UNL     1      -2.682  -8.280   5.518  0.00  0.00    +0.045 C 
ENDBRANCH   1  25
BRANCH  19  26
ATOM     26  C   UNL     1      -5.535  -4.482   6.443  0.00  0.00    +0.074 C 
BRANCH  26  27
ATOM     27  C   UNL     1      -6.769  -5.298   6.834  0.00  0.00    +0.012 C 
BRANCH  27  28
ATOM     28  C   UNL     1      -7.749  -4.406   7.597  0.00  0.00    +0.003 C 
ATOM     29  C   UNL     1      -8.269  -3.307   6.668  0.00  0.00    +0.009 C 
BRANCH  28  30
ATOM     30  C   UNL     1      -8.924  -5.250   8.096  0.00  0.00    +0.107 C 
BRANCH  30  31
ATOM     31  N   UNL     1      -9.802  -4.422   8.927  0.00  0.00    -0.315 N 
ATOM     32  C   UNL     1     -10.909  -4.957   9.479  0.00  0.00    +0.210 C 
ATOM     33  O   UNL     1     -11.179  -6.124   9.287  0.00  0.00    -0.276 OA
ATOM     34  C   UNL     1     -11.812  -4.106  10.334  0.00  0.00    +0.109 C 
ATOM     35  H   UNL     1      -9.586  -3.489   9.080  0.00  0.00    +0.149 HD
ENDBRANCH  30  31
ENDBRANCH  28  30
ENDBRANCH  27  28
ENDBRANCH  26  27
ENDBRANCH  19  26
BRANCH   9  36
ATOM     36  O   UNL     1       0.810   0.077   0.962  0.00  0.00    -0.461 OA
BRANCH  36  37
ATOM     37  C   UNL     1       0.883   1.409   1.113  0.00  0.00    +0.304 C 
ATOM     38  O   UNL     1       1.952   1.937   1.310  0.00  0.00    -0.251 OA
ATOM     39  C   UNL     1      -0.367   2.245   1.029  0.00  0.00    +0.136 C 
ENDBRANCH  36  37
ENDBRANCH   9  36
TORSDOF 8
