REMARK  Name = ZINC24305357
REMARK  5 active torsions:
REMARK  status: ('A' for Active; 'I' for Inactive)
REMARK    1  A    between atoms: C_4  and  N_7
REMARK    2  A    between atoms: C_8  and  C_14
REMARK    3  A    between atoms: N_16  and  N_17
REMARK    4  A    between atoms: C_18  and  C_20
REMARK    5  A    between atoms: C_20  and  C_21
REMARK                            x       y       z     vdW  Elec       q    Type
REMARK                         _______ _______ _______ _____ _____    ______ ____
ROOT
ATOM      1  C   UNL     1      -1.298   2.127  -0.356  0.00  0.00    +0.278 C 
ATOM      2  O   UNL     1      -1.255   3.344  -0.378  0.00  0.00    -0.267 OA
ATOM      3  N   UNL     1      -2.474   1.491  -0.524  0.00  0.00    -0.229 N 
ATOM      4  H   UNL     1      -2.527   0.397  -0.420  0.00  0.00    +0.173 HD
ENDROOT
BRANCH   1   6
ATOM      5  N   UNL     1       0.023  -0.034   0.000  0.00  0.00    -0.284 N 
ATOM      6  C   UNL     1      -0.070   1.354  -0.146  0.00  0.00    +0.128 A 
ATOM      7  C   UNL     1       1.186   1.850  -0.065  0.00  0.00    +0.116 A 
ATOM      8  N   UNL     1       2.041   0.798   0.128  0.00  0.00    -0.339 N 
ATOM      9  H   UNL     1       3.122   0.978   0.222  0.00  0.00    +0.167 HD
ATOM     10  C   UNL     1       1.324  -0.341   0.166  0.00  0.00    +0.163 A 
ATOM     11  S   UNL     1       1.960  -1.915   0.388  0.00  0.00    -0.013 S 
BRANCH   5  15
ATOM     12  C   UNL     1      -3.153  -2.731  -0.061  0.00  0.00    +0.000 A 
ATOM     13  C   UNL     1      -2.236  -2.721  -1.096  0.00  0.00    +0.002 A 
ATOM     14  C   UNL     1      -1.183  -1.829  -1.079  0.00  0.00    +0.026 A 
ATOM     15  C   UNL     1      -1.044  -0.940  -0.020  0.00  0.00    +0.049 A 
ATOM     16  C   UNL     1      -1.964  -0.956   1.021  0.00  0.00    +0.026 A 
ATOM     17  C   UNL     1      -3.018  -1.847   0.995  0.00  0.00    +0.002 A 
ENDBRANCH   5  15
ENDBRANCH   1   6
BRANCH   3  18
ATOM     18  N   UNL     1      -3.629   2.223  -0.830  0.00  0.00    -0.234 N 
ATOM     19  C   UNL     1      -4.805   1.587  -0.998  0.00  0.00    +0.233 C 
ATOM     20  O   UNL     1      -4.864   0.381  -0.884  0.00  0.00    -0.274 OA
ATOM     21  H   UNL     1      -3.575   3.317  -0.933  0.00  0.00    +0.173 HD
BRANCH  19  22
ATOM     22  C   UNL     1      -6.047   2.374  -1.327  0.00  0.00    +0.132 C 
BRANCH  22  23
ATOM     23  C   UNL     1      -7.217   1.434  -1.462  0.00  0.00    -0.038 A 
ATOM     24  C   UNL     1      -7.524   0.885  -2.693  0.00  0.00    +0.005 A 
ATOM     25  C   UNL     1      -8.593   0.018  -2.817  0.00  0.00    +0.020 A 
ATOM     26  C   UNL     1      -9.363  -0.292  -1.710  0.00  0.00    +0.041 A 
ATOM     27  C   UNL     1      -9.059   0.262  -0.479  0.00  0.00    +0.020 A 
ATOM     28  C   UNL     1      -7.986   1.124  -0.356  0.00  0.00    +0.005 A 
ATOM     29 CL   UNL     1     -10.710  -1.376  -1.865  0.00  0.00    -0.084 Cl
ENDBRANCH  22  23
ENDBRANCH  19  22
ENDBRANCH   3  18
TORSDOF 5
