REMARK  Name = ZINC04210043
REMARK  5 active torsions:
REMARK  status: ('A' for Active; 'I' for Inactive)
REMARK    1  A    between atoms: C_7  and  C_11
REMARK    2  A    between atoms: N_12  and  N_13
REMARK    3  A    between atoms: C_14  and  C_16
REMARK    4  A    between atoms: N_18  and  C_19
REMARK    5  A    between atoms: C_20  and  C_28
REMARK                            x       y       z     vdW  Elec       q    Type
REMARK                         _______ _______ _______ _____ _____    ______ ____
ROOT
ATOM      1  N   UNL     1      -2.983   8.955  -4.521  0.00  0.00    -0.199 N 
ATOM      2  C   UNL     1      -2.664   8.664  -3.244  0.00  0.00    +0.318 C 
ATOM      3  O   UNL     1      -2.679   9.537  -2.400  0.00  0.00    -0.263 OA
ATOM      4  H   UNL     1      -2.971   8.258  -5.195  0.00  0.00    +0.178 HD
ENDROOT
BRANCH   2   5
ATOM      5  C   UNL     1      -2.294   7.271  -2.868  0.00  0.00    +0.305 C 
ATOM      6  O   UNL     1      -2.280   6.398  -3.712  0.00  0.00    -0.265 OA
ATOM      7  N   UNL     1      -1.976   6.979  -1.591  0.00  0.00    -0.271 N 
ATOM      8  H   UNL     1      -1.988   7.677  -0.917  0.00  0.00    +0.156 HD
BRANCH   7   9
ATOM      9  C   UNL     1      -1.632   5.684  -1.242  0.00  0.00    +0.090 A 
ATOM     10  C   UNL     1      -1.275   5.182   0.004  0.00  0.00    +0.084 A 
ATOM     11  C   UNL     1      -0.956   3.769   0.100  0.00  0.00    -0.018 A 
ATOM     12  C   UNL     1      -1.036   3.058  -1.048  0.00  0.00    -0.004 A 
ATOM     13  S   UNL     1      -1.532   4.234  -2.277  0.00  0.00    -0.077 S 
ATOM     14  C   UNL     1      -0.762   1.598  -1.231  0.00  0.00    +0.043 C 
ATOM     15  C   UNL     1      -0.013   1.086   0.008  0.00  0.00    +0.005 C 
ATOM     16  C   UNL     1      -0.736   1.583   1.263  0.00  0.00    +0.005 C 
ATOM     17  C   UNL     1      -0.551   3.093   1.407  0.00  0.00    +0.037 C 
BRANCH  10  18
ATOM     18  C   UNL     1      -1.224   6.032   1.156  0.00  0.00    +0.102 C 
ATOM     19  N   UNL     1      -1.184   6.706   2.069  0.00  0.00    -0.191 NA
ENDBRANCH  10  18
ENDBRANCH   7   9
ENDBRANCH   2   5
BRANCH   1  21
ATOM     20  C   UNL     1      -3.638  10.547  -6.106  0.00  0.00    +0.140 C 
ATOM     21  N   UNL     1      -3.331  10.265  -4.874  0.00  0.00    -0.187 NA
BRANCH  20  28
ATOM     22  C   UNL     1      -3.989  14.529  -3.667  0.00  0.00    +0.001 A 
ATOM     23  C   UNL     1      -4.374  15.601  -4.459  0.00  0.00    +0.002 A 
ATOM     24  C   UNL     1      -4.609  15.431  -5.806  0.00  0.00    +0.026 A 
ATOM     25  C   UNL     1      -4.460  14.173  -6.383  0.00  0.00    +0.047 A 
ATOM     26  C   UNL     1      -4.069  13.089  -5.580  0.00  0.00    +0.008 A 
ATOM     27  C   UNL     1      -3.835  13.277  -4.219  0.00  0.00    +0.010 A 
ATOM     28  C   UNL     1      -4.003  11.922  -6.477  0.00  0.00    +0.020 A 
ATOM     29  C   UNL     1      -4.341  12.368  -7.719  0.00  0.00    +0.093 A 
ATOM     30  N   UNL     1      -4.619  13.700  -7.668  0.00  0.00    -0.360 N 
ATOM     31  H   UNL     1      -4.885  14.240  -8.428  0.00  0.00    +0.165 HD
ENDBRANCH  20  28
ENDBRANCH   1  21
TORSDOF 5
