REMARK  Name = ZINC09467505
REMARK  9 active torsions:
REMARK  status: ('A' for Active; 'I' for Inactive)
REMARK    1  A    between atoms: C_1  and  C_2
REMARK    2  A    between atoms: C_2  and  C_4
REMARK    3  A    between atoms: C_2  and  N_12
REMARK    4  A    between atoms: C_4  and  C_5
REMARK    5  A    between atoms: C_5  and  C_6
REMARK    6  A    between atoms: C_13  and  C_15
REMARK    7  A    between atoms: C_19  and  S_21
REMARK    8  A    between atoms: S_21  and  N_24
REMARK    9  A    between atoms: N_24  and  C_25
REMARK                            x       y       z     vdW  Elec       q    Type
REMARK                         _______ _______ _______ _____ _____    ______ ____
ROOT
ATOM      1  C   UNL     1       3.123   1.736   2.105  0.00  0.00    +0.039 A 
ATOM      2  C   UNL     1       4.396   1.737   2.677  0.00  0.00    +0.013 A 
ATOM      3  C   UNL     1       5.201   2.851   2.558  0.00  0.00    +0.003 A 
ATOM      4  C   UNL     1       4.745   3.969   1.882  0.00  0.00    +0.029 A 
ATOM      5  C   UNL     1       3.482   3.976   1.318  0.00  0.00    +0.109 A 
ATOM      6  C   UNL     1       2.669   2.866   1.425  0.00  0.00    +0.041 A 
ENDROOT
BRANCH   1   8
ATOM      7  N   UNL     1       2.698  -0.547   2.881  0.00  0.00    -0.309 N 
ATOM      8  C   UNL     1       2.257   0.543   2.224  0.00  0.00    +0.244 C 
ATOM      9  O   UNL     1       1.149   0.545   1.725  0.00  0.00    -0.270 OA
ATOM     10  H   UNL     1       3.584  -0.550   3.276  0.00  0.00    +0.149 HD
BRANCH   7  12
ATOM     11  C   UNL     1       1.996  -2.599   1.751  0.00  0.00    +0.028 C 
ATOM     12  C   UNL     1       1.840  -1.729   2.999  0.00  0.00    +0.070 C 
BRANCH  12  13
ATOM     13  C   UNL     1       2.247  -2.533   4.236  0.00  0.00    +0.026 C 
BRANCH  13  14
ATOM     14  C   UNL     1       1.974  -1.707   5.494  0.00  0.00    +0.037 C 
BRANCH  14  15
ATOM     15  C   UNL     1       2.374  -2.499   6.712  0.00  0.00    -0.047 A 
ATOM     16  C   UNL     1       1.453  -3.319   7.337  0.00  0.00    +0.003 A 
ATOM     17  C   UNL     1       1.822  -4.050   8.451  0.00  0.00    +0.000 A 
ATOM     18  C   UNL     1       3.109  -3.953   8.946  0.00  0.00    +0.000 A 
ATOM     19  C   UNL     1       4.028  -3.128   8.325  0.00  0.00    +0.000 A 
ATOM     20  C   UNL     1       3.661  -2.402   7.207  0.00  0.00    +0.003 A 
ENDBRANCH  14  15
ENDBRANCH  13  14
ENDBRANCH  12  13
ENDBRANCH   7  12
ENDBRANCH   1   8
BRANCH   5  21
ATOM     21  S   UNL     1       2.911   5.405   0.459  0.00  0.00    +0.072 S 
ATOM     22  O   UNL     1       4.061   6.043  -0.078  0.00  0.00    -0.150 OA
ATOM     23  O   UNL     1       1.824   4.983  -0.353  0.00  0.00    -0.150 OA
BRANCH  21  24
ATOM     24  N   UNL     1       2.282   6.437   1.591  0.00  0.00    -0.216 N 
ATOM     25  H   UNL     1       2.683   7.310   1.727  0.00  0.00    +0.174 HD
BRANCH  24  26
ATOM     26  C   UNL     1       1.173   6.050   2.352  0.00  0.00    +0.052 A 
ATOM     27  C   UNL     1      -0.093   6.046   1.782  0.00  0.00    +0.028 A 
ATOM     28  C   UNL     1      -1.188   5.659   2.531  0.00  0.00    +0.051 A 
ATOM     29  C   UNL     1      -1.027   5.285   3.855  0.00  0.00    +0.166 A 
ATOM     30  C   UNL     1       0.240   5.294   4.431  0.00  0.00    +0.168 A 
ATOM     31  C   UNL     1       1.338   5.677   3.679  0.00  0.00    +0.074 A 
ATOM     32  O   UNL     1       0.132   4.888   5.731  0.00  0.00    -0.453 OA
ATOM     33  C   UNL     1      -1.263   5.024   6.061  0.00  0.00    +0.466 C 
ATOM     34  O   UNL     1      -1.930   4.873   4.794  0.00  0.00    -0.453 OA
ENDBRANCH  24  26
ENDBRANCH  21  24
ENDBRANCH   5  21
TORSDOF 8
