REMARK  Name = ZINC38872978
REMARK  10 active torsions:
REMARK  status: ('A' for Active; 'I' for Inactive)
REMARK    1  A    between atoms: C_1  and  C_2
REMARK    2  A    between atoms: C_2  and  O_3
REMARK    3  A    between atoms: O_3  and  C_4
REMARK    4  A    between atoms: C_7  and  C_10
REMARK    5  A    between atoms: C_10  and  C_12
REMARK    6  A    between atoms: C_10  and  N_13
REMARK    7  A    between atoms: C_14  and  C_16
REMARK    8  A    between atoms: N_19  and  C_22
REMARK    9  A    between atoms: C_22  and  C_23
REMARK   10  A    between atoms: C_25  and  C_28
REMARK                            x       y       z     vdW  Elec       q    Type
REMARK                         _______ _______ _______ _____ _____    ______ ____
ROOT
ATOM      1  C   UNL     1       4.379  -7.944   2.565  0.00  0.00    +0.071 C 
ATOM      2  C   UNL     1       5.409  -6.978   1.972  0.00  0.00    -0.006 C 
ATOM      3  C   UNL     1       6.807  -7.377   2.448  0.00  0.00    -0.077 C 
ATOM      4  N   UNL     1       7.106  -8.745   2.007  0.00  0.00    +0.386 N 
ATOM      5  C   UNL     1       6.167  -9.685   2.629  0.00  0.00    -0.077 C 
ATOM      6  C   UNL     1       4.743  -9.375   2.160  0.00  0.00    -0.006 C 
ATOM      7  H   UNL     1       7.021  -8.800   1.003  0.00  0.00    -0.081 HD
ENDROOT
BRANCH   1   9
ATOM      8  N   UNL     1       2.477  -6.389   2.276  0.00  0.00    -0.309 N 
ATOM      9  C   UNL     1       3.008  -7.605   2.039  0.00  0.00    +0.216 C 
ATOM     10  O   UNL     1       2.383  -8.426   1.402  0.00  0.00    -0.276 OA
ATOM     11  H   UNL     1       2.977  -5.732   2.785  0.00  0.00    +0.149 HD
BRANCH   8  12
ATOM     12  C   UNL     1       1.144  -6.059   1.764  0.00  0.00    +0.100 C 
ATOM     13  C   UNL     1       0.083  -6.553   2.750  0.00  0.00    +0.033 C 
BRANCH  12  17
ATOM     14  C   UNL     1       0.802  -1.824   1.306  0.00  0.00    +0.121 A 
ATOM     15  C   UNL     1       0.260  -2.673   0.351  0.00  0.00    +0.046 A 
ATOM     16  C   UNL     1       0.372  -4.041   0.502  0.00  0.00    +0.009 A 
ATOM     17  C   UNL     1       1.024  -4.566   1.603  0.00  0.00    -0.027 A 
ATOM     18  C   UNL     1       1.565  -3.722   2.555  0.00  0.00    +0.009 A 
ATOM     19  C   UNL     1       1.460  -2.353   2.406  0.00  0.00    +0.046 A 
BRANCH  14  20
ATOM     20  O   UNL     1       0.693  -0.477   1.160  0.00  0.00    -0.492 OA
BRANCH  20  22
ATOM     21  C   UNL     1      -0.019   1.526   0.010  0.00  0.00    +0.048 C 
ATOM     22  C   UNL     1       0.002  -0.004   0.002  0.00  0.00    +0.225 C 
ENDBRANCH  20  22
ENDBRANCH  14  20
ENDBRANCH  12  17
ENDBRANCH   8  12
ENDBRANCH   1   9
BRANCH   4  23
ATOM     23  C   UNL     1       8.478  -9.095   2.398  0.00  0.00    +0.022 C 
BRANCH  23  24
ATOM     24  C   UNL     1       8.829 -10.450   1.840  0.00  0.00    +0.211 A 
ATOM     25  N   UNL     1       9.379 -10.676   0.681  0.00  0.00    -0.192 NA
ATOM     26  C   UNL     1       9.552 -12.000   0.504  0.00  0.00    +0.209 A 
ATOM     27  N   UNL     1       9.106 -12.626   1.568  0.00  0.00    -0.056 NA
ATOM     28  O   UNL     1       8.634 -11.623   2.455  0.00  0.00    -0.340 OA
BRANCH  26  29
ATOM     29  C   UNL     1      10.146 -12.640  -0.688  0.00  0.00    +0.060 A 
ATOM     30  C   UNL     1      10.349 -13.970  -0.942  0.00  0.00    +0.019 A 
ATOM     31  C   UNL     1      10.925 -14.335  -2.138  0.00  0.00    +0.008 A 
ATOM     32  C   UNL     1      11.274 -13.369  -3.027  0.00  0.00    +0.046 A 
ATOM     33  S   UNL     1      10.777 -11.880  -2.175  0.00  0.00    -0.093 S 
ENDBRANCH  26  29
ENDBRANCH  23  24
ENDBRANCH   4  23
TORSDOF 8
