REMARK  Name = ZINC60354969
REMARK  7 active torsions:
REMARK  status: ('A' for Active; 'I' for Inactive)
REMARK    1  A    between atoms: C_1  and  C_2
REMARK    2  A    between atoms: C_5  and  C_7
REMARK    3  A    between atoms: C_7  and  C_9
REMARK    4  A    between atoms: C_7  and  N_23
REMARK    5  A    between atoms: C_9  and  N_10
REMARK    6  A    between atoms: C_11  and  C_13
REMARK    7  A    between atoms: C_15  and  N_20
REMARK                            x       y       z     vdW  Elec       q    Type
REMARK                         _______ _______ _______ _____ _____    ______ ____
ROOT
ATOM      1  C   UNL     1       2.123  -3.285  -1.474  0.00  0.00    +0.097 C 
ENDROOT
BRANCH   1   2
ATOM      2  N   UNL     1       1.028  -3.790  -2.306  0.00  0.00    -0.312 N 
ATOM      3  C   UNL     1       1.226  -4.005  -3.622  0.00  0.00    +0.245 C 
ATOM      4  O   UNL     1       2.313  -3.780  -4.118  0.00  0.00    -0.270 OA
ATOM      5  H   UNL     1       0.161  -3.970  -1.910  0.00  0.00    +0.149 HD
BRANCH   3   6
ATOM      6  C   UNL     1       0.122  -4.515  -4.461  0.00  0.00    +0.052 A 
ATOM      7  C   UNL     1      -1.129  -4.770  -3.896  0.00  0.00    +0.046 A 
ATOM      8  C   UNL     1      -2.155  -5.245  -4.685  0.00  0.00    +0.127 A 
ATOM      9  C   UNL     1      -1.948  -5.471  -6.035  0.00  0.00    +0.034 A 
ATOM     10  C   UNL     1      -0.711  -5.222  -6.602  0.00  0.00    +0.017 A 
ATOM     11  C   UNL     1       0.323  -4.739  -5.825  0.00  0.00    +0.026 A 
ATOM     12  I   UNL     1       2.193  -4.353  -6.687  0.00  0.00    -0.043 I 
BRANCH   8  13
ATOM     13  N   UNL     1      -3.482  -5.516  -4.087  0.00  0.00    +0.056 N 
ATOM     14  O   UNL     1      -3.665  -5.319  -2.908  0.00  0.00    -0.126 OA
ATOM     15  O   UNL     1      -4.383  -5.933  -4.777  0.00  0.00    -0.126 OA
ENDBRANCH   8  13
ENDBRANCH   3   6
ENDBRANCH   1   2
BRANCH   1  16
ATOM     16  C   UNL     1       1.603  -3.007  -0.062  0.00  0.00    +0.016 C 
BRANCH  16  21
ATOM     17  C   UNL     1      -0.358   1.635  -0.261  0.00  0.00    +0.086 C 
ATOM     18  C   UNL     1      -0.255   0.134  -0.194  0.00  0.00    +0.102 A 
ATOM     19  C   UNL     1      -1.289  -0.725  -0.150  0.00  0.00    +0.044 A 
ATOM     20  C   UNL     1      -0.739  -2.026  -0.094  0.00  0.00    +0.043 A 
ATOM     21  C   UNL     1       0.598  -1.885  -0.107  0.00  0.00    +0.093 A 
ATOM     22  O   UNL     1       0.886  -0.575  -0.174  0.00  0.00    -0.466 OA
ENDBRANCH  16  21
BRANCH  16  23
ATOM     23  N   UNL     1       2.725  -2.624   0.806  0.00  0.00    +0.387 N 
ATOM     24  C   UNL     1       2.238  -2.354   2.183  0.00  0.00    -0.078 C 
ATOM     25  C   UNL     1       3.510  -2.530   3.050  0.00  0.00    -0.020 C 
ATOM     26  C   UNL     1       4.233  -3.714   2.366  0.00  0.00    -0.020 C 
ATOM     27  C   UNL     1       3.681  -3.747   0.929  0.00  0.00    -0.078 C 
ATOM     28  H   UNL     1       3.191  -1.810   0.435  0.00  0.00    -0.081 HD
ENDBRANCH  16  23
ENDBRANCH   1  16
TORSDOF 6
