REMARK  Name = ZINC06282236
REMARK  9 active torsions:
REMARK  status: ('A' for Active; 'I' for Inactive)
REMARK    1  A    between atoms: C_1  and  C_2
REMARK    2  A    between atoms: C_7  and  C_14
REMARK    3  A    between atoms: C_14  and  C_16
REMARK    4  A    between atoms: C_14  and  N_70
REMARK    5  A    between atoms: N_20  and  C_21
REMARK    6  A    between atoms: C_26  and  C_27
REMARK    7  A    between atoms: C_26  and  N_70
REMARK    8  A    between atoms: C_33  and  C_34
REMARK    9  A    between atoms: C_33  and  N_70
REMARK                            x       y       z     vdW  Elec       q    Type
REMARK                         _______ _______ _______ _____ _____    ______ ____
ROOT
ATOM      1  C   UNL     1      -2.757   3.428   6.949  0.00  0.00    +0.039 C 
ENDROOT
BRANCH   1   8
ATOM      2  C   UNL     1       0.942  -2.152   2.613  0.00  0.00    +0.044 C 
ATOM      3  C   UNL     1       0.236  -1.260   3.600  0.00  0.00    -0.048 A 
ATOM      4  C   UNL     1      -0.085  -1.747   4.860  0.00  0.00    +0.004 A 
ATOM      5  C   UNL     1      -0.720  -0.953   5.772  0.00  0.00    +0.010 A 
ATOM      6  C   UNL     1      -1.060   0.360   5.431  0.00  0.00    -0.001 A 
ATOM      7  C   UNL     1      -1.746   1.237   6.382  0.00  0.00    +0.017 A 
ATOM      8  C   UNL     1      -2.051   2.500   5.995  0.00  0.00    +0.011 A 
ATOM      9  C   UNL     1      -1.710   2.949   4.701  0.00  0.00    +0.251 A 
ATOM     10  O   UNL     1      -1.993   4.088   4.373  0.00  0.00    -0.268 OA
ATOM     11  N   UNL     1      -1.080   2.151   3.821  0.00  0.00    -0.322 N 
ATOM     12  H   UNL     1      -0.860   2.492   2.939  0.00  0.00    +0.169 HD
ATOM     13  C   UNL     1      -0.742   0.856   4.152  0.00  0.00    +0.049 A 
ATOM     14  C   UNL     1      -0.090   0.031   3.242  0.00  0.00    +0.029 A 
ENDBRANCH   1   8
BRANCH   1  15
ATOM     15  C   UNL     1      -2.042   4.754   6.981  0.00  0.00    +0.143 A 
ATOM     16  N   UNL     1      -0.762   4.949   7.187  0.00  0.00    -0.115 NA
ATOM     17  N   UNL     1      -0.539   6.217   7.136  0.00  0.00    -0.023 NA
ATOM     18  N   UNL     1      -1.645   6.837   6.912  0.00  0.00    -0.044 NA
ATOM     19  N   UNL     1      -2.595   5.969   6.810  0.00  0.00    -0.227 N 
BRANCH  19  20
ATOM     20  C   UNL     1      -4.010   6.254   6.556  0.00  0.00    +0.111 C 
ATOM     21  C   UNL     1      -4.161   7.048   5.242  0.00  0.00    +0.027 C 
ATOM     22  C   UNL     1      -5.313   8.042   5.529  0.00  0.00    +0.002 C 
ATOM     23  C   UNL     1      -5.055   8.447   7.002  0.00  0.00    +0.002 C 
ATOM     24  C   UNL     1      -4.578   7.144   7.675  0.00  0.00    +0.027 C 
ENDBRANCH  19  20
ENDBRANCH   1  15
BRANCH   1  25
ATOM     25  N   UNL     1      -2.755   2.810   8.292  0.00  0.00    +0.394 N 
ATOM     26  H   UNL     1      -2.720   1.789   8.190  0.00  0.00    -0.080 HD
BRANCH  25  27
ATOM     27  C   UNL     1      -3.989   3.178   9.019  0.00  0.00    -0.040 C 
BRANCH  27  28
ATOM     28  C   UNL     1      -4.132   2.275  10.217  0.00  0.00    -0.046 A 
ATOM     29  C   UNL     1      -3.706   2.696  11.468  0.00  0.00    +0.005 A 
ATOM     30  C   UNL     1      -3.858   1.832  12.541  0.00  0.00    +0.020 A 
ATOM     31  C   UNL     1      -4.425   0.589  12.331  0.00  0.00    +0.111 A 
ATOM     32  N   UNL     1      -4.819   0.223  11.127  0.00  0.00    -0.263 NA
ATOM     33  C   UNL     1      -4.696   1.020  10.084  0.00  0.00    +0.112 A 
ENDBRANCH  27  28
ENDBRANCH  25  27
BRANCH  25  34
ATOM     34  C   UNL     1      -1.569   3.258   9.053  0.00  0.00    -0.045 C 
BRANCH  34  35
ATOM     35  C   UNL     1      -0.368   2.411   8.628  0.00  0.00    +0.102 C 
ATOM     36  C   UNL     1       0.837   2.683   9.556  0.00  0.00    +0.032 C 
ATOM     37  C   UNL     1       2.058   2.631   8.610  0.00  0.00    +0.030 C 
ATOM     38  C   UNL     1       1.446   2.333   7.223  0.00  0.00    +0.160 C 
ATOM     39  O   UNL     1       0.083   2.802   7.313  0.00  0.00    -0.378 OA
ENDBRANCH  34  35
ENDBRANCH  25  34
ENDBRANCH   1  25
TORSDOF 8
