REMARK  Name = ZINC58602421
REMARK  3 active torsions:
REMARK  status: ('A' for Active; 'I' for Inactive)
REMARK    1  A    between atoms: C_4  and  C_7
REMARK    2  A    between atoms: C_8  and  C_9
REMARK    3  A    between atoms: N_15  and  C_16
REMARK                            x       y       z     vdW  Elec       q    Type
REMARK                         _______ _______ _______ _____ _____    ______ ____
ROOT
ATOM      1  C   UNL     1       4.945  -2.716  -0.062  0.00  0.00    +0.020 C 
ATOM      2  C   UNL     1       4.968  -4.080  -0.070  0.00  0.00    +0.077 C 
ATOM      3  C   UNL     1       3.845  -5.034  -0.069  0.00  0.00    +0.256 C 
ATOM      4  O   UNL     1       2.688  -4.654  -0.061  0.00  0.00    -0.269 OA
ATOM      5  N   UNL     1       4.149  -6.321  -0.079  0.00  0.00    -0.260 N 
ATOM      6  C   UNL     1       5.465  -6.731  -0.088  0.00  0.00    +0.166 C 
ATOM      7  N   UNL     1       5.939  -7.956  -0.098  0.00  0.00    -0.226 NA
ATOM      8  S   UNL     1       6.368  -5.191  -0.091  0.00  0.00    -0.049 S 
ATOM      9  H   UNL     1       3.440  -6.982  -0.079  0.00  0.00    +0.157 HD
ENDROOT
BRANCH   7  10
ATOM     10  C   UNL     1       5.080  -9.022  -0.100  0.00  0.00    +0.067 A 
ATOM     11  C   UNL     1       3.976  -9.035   0.756  0.00  0.00    +0.028 A 
ATOM     12  C   UNL     1       3.115 -10.112   0.748  0.00  0.00    +0.002 A 
ATOM     13  C   UNL     1       3.342 -11.178  -0.104  0.00  0.00    +0.000 A 
ATOM     14  C   UNL     1       4.434 -11.172  -0.955  0.00  0.00    +0.002 A 
ATOM     15  C   UNL     1       5.301 -10.099  -0.961  0.00  0.00    +0.028 A 
ENDBRANCH   7  10
BRANCH   1  17
ATOM     16  C   UNL     1       3.691  -0.678  -0.038  0.00  0.00    +0.008 C 
ATOM     17  C   UNL     1       3.713  -2.032  -0.046  0.00  0.00    +0.002 C 
BRANCH  16  21
ATOM     18  C   UNL     1      -0.017   1.380   0.010  0.00  0.00    +0.000 A 
ATOM     19  C   UNL     1       1.168   2.096   0.002  0.00  0.00    +0.001 A 
ATOM     20  C   UNL     1       2.377   1.434  -0.013  0.00  0.00    +0.008 A 
ATOM     21  C   UNL     1       2.405   0.035  -0.021  0.00  0.00    -0.025 A 
ATOM     22  C   UNL     1       1.203  -0.681  -0.013  0.00  0.00    +0.008 A 
ATOM     23  C   UNL     1       0.002  -0.004   0.002  0.00  0.00    +0.001 A 
ENDBRANCH  16  21
ENDBRANCH   1  17
TORSDOF 3
