REMARK  Name = ZINC11338731
REMARK  9 active torsions:
REMARK  status: ('A' for Active; 'I' for Inactive)
REMARK    1  A    between atoms: C_4  and  C_7
REMARK    2  A    between atoms: C_7  and  N_8
REMARK    3  A    between atoms: C_9  and  N_37
REMARK    4  A    between atoms: C_10  and  N_17
REMARK    5  A    between atoms: N_17  and  C_18
REMARK    6  A    between atoms: N_17  and  C_26
REMARK    7  A    between atoms: C_18  and  C_19
REMARK    8  A    between atoms: C_19  and  C_20
REMARK    9  A    between atoms: C_26  and  C_27
REMARK                            x       y       z     vdW  Elec       q    Type
REMARK                         _______ _______ _______ _____ _____    ______ ____
ROOT
ATOM      1  N   UNL     1      -2.975  -1.780  -1.449  0.00  0.00    -0.314 N 
ENDROOT
BRANCH   1   4
ATOM      2  N   UNL     1      -3.464  -4.564   0.892  0.00  0.00    -0.276 N 
ATOM      3  C   UNL     1      -3.595  -3.329   0.298  0.00  0.00    +0.127 A 
ATOM      4  C   UNL     1      -2.856  -3.039  -0.817  0.00  0.00    +0.134 A 
ATOM      5  C   UNL     1      -1.973  -4.011  -1.322  0.00  0.00    +0.277 A 
ATOM      6  O   UNL     1      -1.302  -3.774  -2.312  0.00  0.00    -0.266 OA
ATOM      7  N   UNL     1      -1.875  -5.205  -0.705  0.00  0.00    -0.273 N 
ATOM      8  H   UNL     1      -1.248  -5.897  -1.063  0.00  0.00    +0.173 HD
ATOM      9  C   UNL     1      -2.611  -5.474   0.388  0.00  0.00    +0.331 A 
ATOM     10  O   UNL     1      -2.506  -6.559   0.928  0.00  0.00    -0.246 OA
BRANCH   3  11
ATOM     11  N   UNL     1      -4.463  -2.396   0.818  0.00  0.00    -0.343 N 
ATOM     12  H   UNL     1      -4.553  -1.528   0.394  0.00  0.00    +0.144 HD
ATOM     13  H   UNL     1      -4.984  -2.606   1.609  0.00  0.00    +0.144 HD
ENDBRANCH   3  11
BRANCH   2  14
ATOM     14  C   UNL     1      -4.253  -4.886   2.084  0.00  0.00    +0.163 C 
BRANCH  14  18
ATOM     15  C   UNL     1      -2.082  -3.746   5.582  0.00  0.00    +0.000 A 
ATOM     16  C   UNL     1      -2.937  -2.845   4.975  0.00  0.00    +0.000 A 
ATOM     17  C   UNL     1      -3.640  -3.214   3.843  0.00  0.00    +0.005 A 
ATOM     18  C   UNL     1      -3.487  -4.484   3.318  0.00  0.00    -0.028 A 
ATOM     19  C   UNL     1      -2.635  -5.386   3.927  0.00  0.00    +0.005 A 
ATOM     20  C   UNL     1      -1.929  -5.015   5.056  0.00  0.00    +0.000 A 
ENDBRANCH  14  18
ENDBRANCH   2  14
ENDBRANCH   1   4
BRANCH   1  21
ATOM     21  C   UNL     1      -1.688  -1.073  -1.460  0.00  0.00    +0.110 C 
BRANCH  21  22
ATOM     22  C   UNL     1      -1.286  -0.723  -0.026  0.00  0.00    +0.049 C 
BRANCH  22  23
ATOM     23  C   UNL     1       0.035   0.002  -0.037  0.00  0.00    -0.072 C 
ATOM     24  C   UNL     1       0.017   1.296  -0.032  0.00  0.00    -0.028 C 
ATOM     25  C   UNL     1       1.248   2.155  -0.052  0.00  0.00    +0.027 C 
ATOM     26  C   UNL     1       2.473   1.329   0.344  0.00  0.00    +0.004 C 
ATOM     27  C   UNL     1       2.479   0.040  -0.488  0.00  0.00    +0.005 C 
ATOM     28  C   UNL     1       1.290  -0.821  -0.055  0.00  0.00    +0.030 C 
ENDBRANCH  22  23
ENDBRANCH  21  22
ENDBRANCH   1  21
BRANCH   1  29
ATOM     29  C   UNL     1      -3.509  -1.923  -2.810  0.00  0.00    +0.201 C 
BRANCH  29  30
ATOM     30  C   UNL     1      -3.852  -0.562  -3.361  0.00  0.00    +0.233 C 
ATOM     31  O   UNL     1      -3.767   0.418  -2.651  0.00  0.00    -0.274 OA
ATOM     32  N   UNL     1      -4.253  -0.435  -4.641  0.00  0.00    -0.300 N 
ATOM     33  C   UNL     1      -4.484   0.897  -5.218  0.00  0.00    +0.108 C 
ATOM     34  C   UNL     1      -3.142   1.617  -5.351  0.00  0.00    +0.019 C 
ATOM     35  C   UNL     1      -2.339   0.985  -6.500  0.00  0.00    +0.002 C 
ATOM     36  C   UNL     1      -1.723  -0.327  -6.026  0.00  0.00    +0.000 C 
ATOM     37  C   UNL     1      -2.342  -1.521  -6.776  0.00  0.00    +0.002 C 
ATOM     38  C   UNL     1      -3.860  -1.354  -6.849  0.00  0.00    +0.019 C 
ATOM     39  C   UNL     1      -4.468  -1.613  -5.464  0.00  0.00    +0.108 C 
ENDBRANCH  29  30
ENDBRANCH   1  29
TORSDOF 9
