REMARK  Name = ZINC09235496
REMARK  9 active torsions:
REMARK  status: ('A' for Active; 'I' for Inactive)
REMARK    1  A    between atoms: C_2  and  C_3
REMARK    2  A    between atoms: C_3  and  O_4
REMARK    3  A    between atoms: O_4  and  C_5
REMARK    4  A    between atoms: C_8  and  N_11
REMARK    5  A    between atoms: C_12  and  C_14
REMARK    6  A    between atoms: N_16  and  N_17
REMARK    7  A    between atoms: C_18  and  C_19
REMARK    8  A    between atoms: C_24  and  N_25
REMARK    9  A    between atoms: N_25  and  C_26
REMARK                            x       y       z     vdW  Elec       q    Type
REMARK                         _______ _______ _______ _____ _____    ______ ____
ROOT
ATOM      1  C   UNL     1      -5.897   3.587   0.904  0.00  0.00    +0.318 C 
ATOM      2  O   UNL     1      -6.003   2.414   0.607  0.00  0.00    -0.263 OA
ATOM      3  N   UNL     1      -4.681   4.168   0.930  0.00  0.00    -0.199 N 
ATOM      4  H   UNL     1      -4.596   5.105   1.167  0.00  0.00    +0.178 HD
ENDROOT
BRANCH   1   6
ATOM      5  N   UNL     1      -8.327   3.804   1.215  0.00  0.00    -0.278 N 
ATOM      6  C   UNL     1      -7.111   4.384   1.240  0.00  0.00    +0.305 C 
ATOM      7  O   UNL     1      -7.004   5.557   1.538  0.00  0.00    -0.265 OA
ATOM      8  H   UNL     1      -8.406   2.851   1.051  0.00  0.00    +0.155 HD
BRANCH   5  12
ATOM      9  C   UNL     1     -11.748   6.101   1.837  0.00  0.00    +0.121 A 
ATOM     10  C   UNL     1     -10.659   6.645   1.171  0.00  0.00    +0.047 A 
ATOM     11  C   UNL     1      -9.525   5.885   0.965  0.00  0.00    +0.027 A 
ATOM     12  C   UNL     1      -9.475   4.575   1.424  0.00  0.00    +0.034 A 
ATOM     13  C   UNL     1     -10.568   4.029   2.085  0.00  0.00    +0.027 A 
ATOM     14  C   UNL     1     -11.698   4.793   2.296  0.00  0.00    +0.047 A 
BRANCH   9  15
ATOM     15  O   UNL     1     -12.864   6.851   2.039  0.00  0.00    -0.488 OA
BRANCH  15  16
ATOM     16  C   UNL     1     -13.947   6.227   2.732  0.00  0.00    +0.256 C 
BRANCH  16  18
ATOM     17  C   UNL     1     -16.313   6.816   2.608  0.00  0.00    +0.007 C 
ATOM     18  C   UNL     1     -15.088   7.203   2.862  0.00  0.00    +0.006 C 
ENDBRANCH  16  18
ENDBRANCH  15  16
ENDBRANCH   9  15
ENDBRANCH   5  12
ENDBRANCH   1   6
BRANCH   3  19
ATOM     19  N   UNL     1      -3.540   3.419   0.614  0.00  0.00    -0.187 NA
ATOM     20  C   UNL     1      -2.367   3.979   0.639  0.00  0.00    +0.140 C 
BRANCH  20  21
ATOM     21  C   UNL     1      -1.168   3.192   0.306  0.00  0.00    +0.017 A 
ATOM     22  C   UNL     1       0.103   3.757   0.441  0.00  0.00    +0.026 A 
ATOM     23  C   UNL     1       1.222   3.014   0.128  0.00  0.00    +0.019 A 
ATOM     24  C   UNL     1       1.092   1.708  -0.320  0.00  0.00    +0.017 A 
ATOM     25  C   UNL     1      -0.158   1.137  -0.457  0.00  0.00    +0.025 A 
ATOM     26  C   UNL     1      -1.295   1.871  -0.152  0.00  0.00    +0.040 A 
ATOM     27 BR   UNL     1       2.941   3.779   0.310  0.00  0.00    -0.050 Br
BRANCH  26  28
ATOM     28  N   UNL     1      -2.557   1.298  -0.294  0.00  0.00    -0.314 N 
ATOM     29  H   UNL     1      -2.899   0.701   0.390  0.00  0.00    +0.152 HD
BRANCH  28  30
ATOM     30  C   UNL     1      -3.330   1.583  -1.422  0.00  0.00    +0.031 A 
ATOM     31  C   UNL     1      -2.855   2.460  -2.389  0.00  0.00    +0.023 A 
ATOM     32  C   UNL     1      -3.619   2.736  -3.505  0.00  0.00    +0.002 A 
ATOM     33  C   UNL     1      -4.862   2.148  -3.657  0.00  0.00    +0.000 A 
ATOM     34  C   UNL     1      -5.341   1.278  -2.694  0.00  0.00    +0.002 A 
ATOM     35  C   UNL     1      -4.579   0.994  -1.578  0.00  0.00    +0.023 A 
ENDBRANCH  28  30
ENDBRANCH  26  28
ENDBRANCH  20  21
ENDBRANCH   3  19
TORSDOF 9
