REMARK  Name = ZINC14461576
REMARK  7 active torsions:
REMARK  status: ('A' for Active; 'I' for Inactive)
REMARK    1  A    between atoms: C_1  and  C_2
REMARK    2  A    between atoms: C_2  and  N_3
REMARK    3  A    between atoms: N_3  and  C_4
REMARK    4  A    between atoms: N_3  and  C_6
REMARK    5  A    between atoms: C_4  and  C_5
REMARK    6  A    between atoms: C_9  and  C_12
REMARK    7  A    between atoms: C_25  and  N_28
REMARK                            x       y       z     vdW  Elec       q    Type
REMARK                         _______ _______ _______ _____ _____    ______ ____
ROOT
ATOM      1  C   UNL     1      -1.990  -5.602   1.189  0.00  0.00    +0.105 C 
ATOM      2  C   UNL     1      -3.281  -6.338   0.877  0.00  0.00    +0.029 C 
ATOM      3  C   UNL     1      -3.808  -6.250  -0.561  0.00  0.00    +0.033 C 
ATOM      4  C   UNL     1      -4.551  -7.580  -0.698  0.00  0.00    -0.030 C 
ATOM      5  C   UNL     1      -4.037  -8.476   0.135  0.00  0.00    -0.023 C 
ATOM      6  C   UNL     1      -2.910  -7.851   0.894  0.00  0.00    +0.049 C 
ATOM      7  C   UNL     1      -2.575  -8.220   2.287  0.00  0.00    -0.017 A 
ATOM      8  C   UNL     1      -2.877  -9.455   2.819  0.00  0.00    +0.006 A 
ATOM      9  C   UNL     1      -2.531  -9.756   4.123  0.00  0.00    +0.003 A 
ATOM     10  C   UNL     1      -1.877  -8.817   4.899  0.00  0.00    +0.034 A 
ATOM     11  C   UNL     1      -1.575  -7.576   4.378  0.00  0.00    +0.147 A 
ATOM     12  C   UNL     1      -1.925  -7.260   3.070  0.00  0.00    +0.062 A 
ATOM     13  N   UNL     1      -1.636  -5.981   2.574  0.00  0.00    -0.335 N 
ATOM     14  H   UNL     1      -1.199  -5.334   3.148  0.00  0.00    +0.147 HD
ENDROOT
BRANCH   1  18
ATOM     15  C   UNL     1      -2.601  -1.382   0.925  0.00  0.00    +0.013 A 
ATOM     16  C   UNL     1      -1.975  -2.056  -0.108  0.00  0.00    +0.022 A 
ATOM     17  C   UNL     1      -1.778  -3.421  -0.022  0.00  0.00    +0.007 A 
ATOM     18  C   UNL     1      -2.205  -4.113   1.096  0.00  0.00    -0.027 A 
ATOM     19  C   UNL     1      -2.830  -3.439   2.129  0.00  0.00    +0.007 A 
ATOM     20  C   UNL     1      -3.023  -2.073   2.045  0.00  0.00    +0.022 A 
BRANCH  15  21
ATOM     21  N   UNL     1      -2.800  -0.001   0.838  0.00  0.00    -0.394 NA
ATOM     22  H   UNL     1      -3.263   0.325   1.673  0.00  0.00    +0.126 HD
BRANCH  21  24
ATOM     23  C   UNL     1      -0.700   0.502   1.993  0.00  0.00    +0.022 C 
ATOM     24  C   UNL     1      -1.503   0.674   0.702  0.00  0.00    +0.081 C 
ENDBRANCH  21  24
BRANCH  21  25
ATOM     25  C   UNL     1      -3.635   0.300  -0.333  0.00  0.00    +0.081 C 
ATOM     26  C   UNL     1      -5.027  -0.302  -0.136  0.00  0.00    +0.022 C 
ENDBRANCH  21  25
ENDBRANCH  15  21
ENDBRANCH   1  18
BRANCH  11  27
ATOM     27  N   UNL     1      -0.875  -6.576   5.215  0.00  0.00    +0.058 N 
ATOM     28  O   UNL     1      -0.035  -5.858   4.724  0.00  0.00    -0.126 OA
ATOM     29  O   UNL     1      -1.143  -6.477   6.389  0.00  0.00    -0.126 OA
ENDBRANCH  11  27
TORSDOF 5
