REMARK  Name = ZINC40847046
REMARK  11 active torsions:
REMARK  status: ('A' for Active; 'I' for Inactive)
REMARK    1  A    between atoms: C_1  and  C_2
REMARK    2  A    between atoms: C_2  and  O_3
REMARK    3  A    between atoms: O_3  and  C_4
REMARK    4  A    between atoms: C_4  and  C_6
REMARK    5  A    between atoms: C_7  and  C_28
REMARK    6  A    between atoms: C_8  and  C_25
REMARK    7  A    between atoms: C_10  and  N_11
REMARK    8  A    between atoms: N_14  and  N_15
REMARK    9  A    between atoms: C_16  and  C_17
REMARK   10  A    between atoms: C_20  and  O_24
REMARK   11  A    between atoms: C_25  and  C_27
REMARK                            x       y       z     vdW  Elec       q    Type
REMARK                         _______ _______ _______ _____ _____    ______ ____
ROOT
ATOM      1  N   UNL     1       3.846  -2.376   1.478  0.00  0.00    -0.262 N 
ATOM      2  C   UNL     1       5.153  -2.132   1.700  0.00  0.00    +0.324 C 
ATOM      3  O   UNL     1       5.591  -2.147   2.834  0.00  0.00    -0.251 OA
ATOM      4  N   UNL     1       5.975  -1.871   0.663  0.00  0.00    -0.191 N 
ATOM      5  H   UNL     1       3.497  -2.365   0.574  0.00  0.00    +0.157 HD
ATOM      6  H   UNL     1       6.915  -1.694   0.823  0.00  0.00    +0.179 HD
ENDROOT
BRANCH   1  11
ATOM      7  C   UNL     1       1.636  -2.918   2.502  0.00  0.00    +0.091 A 
ATOM      8  C   UNL     1       0.995  -3.164   3.705  0.00  0.00    -0.017 A 
ATOM      9  C   UNL     1       1.788  -3.106   4.838  0.00  0.00    +0.060 A 
ATOM     10  S   UNL     1       3.392  -2.712   4.171  0.00  0.00    -0.069 S 
ATOM     11  C   UNL     1       3.006  -2.643   2.539  0.00  0.00    +0.088 A 
ATOM     12  C   UNL     1      -0.478  -3.474   3.776  0.00  0.00    +0.046 C 
BRANCH   9  13
ATOM     13  C   UNL     1       1.419  -3.309   6.184  0.00  0.00    +0.167 C 
ATOM     14  O   UNL     1       0.266  -3.573   6.464  0.00  0.00    -0.292 OA
ATOM     15  C   UNL     1       2.453  -3.198   7.274  0.00  0.00    +0.092 C 
ENDBRANCH   9  13
BRANCH   7  16
ATOM     16  C   UNL     1       0.902  -2.950   1.231  0.00  0.00    +0.342 C 
ATOM     17  O   UNL     1       0.807  -3.992   0.610  0.00  0.00    -0.245 OA
BRANCH  16  18
ATOM     18  O   UNL     1       0.334  -1.826   0.751  0.00  0.00    -0.461 OA
BRANCH  18  20
ATOM     19  C   UNL     1      -0.937  -0.563  -0.871  0.00  0.00    +0.048 C 
ATOM     20  C   UNL     1      -0.364  -1.930  -0.491  0.00  0.00    +0.229 C 
ENDBRANCH  18  20
ENDBRANCH  16  18
ENDBRANCH   7  16
ENDBRANCH   1  11
BRANCH   4  21
ATOM     21  N   UNL     1       5.470  -1.853  -0.643  0.00  0.00    -0.186 NA
ATOM     22  C   UNL     1       6.279  -1.719  -1.649  0.00  0.00    +0.138 C 
BRANCH  22  23
ATOM     23  C   UNL     1       7.706  -2.055  -1.497  0.00  0.00    -0.004 A 
ATOM     24  C   UNL     1       8.142  -2.776  -0.383  0.00  0.00    +0.013 A 
ATOM     25  C   UNL     1       9.477  -3.088  -0.244  0.00  0.00    +0.047 A 
ATOM     26  C   UNL     1      10.390  -2.686  -1.211  0.00  0.00    +0.131 A 
ATOM     27  C   UNL     1       9.962  -1.968  -2.321  0.00  0.00    +0.060 A 
ATOM     28  C   UNL     1       8.627  -1.658  -2.470  0.00  0.00    +0.028 A 
ATOM     29 BR   UNL     1      11.211  -1.423  -3.632  0.00  0.00    -0.047 Br
BRANCH  26  30
ATOM     30  O   UNL     1      11.706  -2.995  -1.070  0.00  0.00    -0.506 OA
ATOM     31  H   UNL     1      11.956  -3.841  -1.467  0.00  0.00    +0.292 HD
ENDBRANCH  26  30
ENDBRANCH  22  23
ENDBRANCH   4  21
TORSDOF 8
