REMARK  Name = ZINC08569262
REMARK  14 active torsions:
REMARK  status: ('A' for Active; 'I' for Inactive)
REMARK    1  A    between atoms: C_1  and  C_2
REMARK    2  A    between atoms: C_2  and  O_3
REMARK    3  A    between atoms: O_3  and  C_4
REMARK    4  A    between atoms: C_6  and  C_18
REMARK    5  A    between atoms: C_9  and  O_10
REMARK    6  A    between atoms: O_10  and  C_11
REMARK    7  A    between atoms: C_11  and  C_12
REMARK    8  A    between atoms: C_21  and  C_32
REMARK    9  A    between atoms: N_28  and  C_29
REMARK   10  A    between atoms: C_29  and  C_30
REMARK   11  A    between atoms: C_30  and  O_31
REMARK   12  A    between atoms: C_34  and  C_40
REMARK   13  A    between atoms: C_36  and  C_39
REMARK   14  A    between atoms: C_37  and  O_38
REMARK                            x       y       z     vdW  Elec       q    Type
REMARK                         _______ _______ _______ _____ _____    ______ ____
ROOT
ATOM      1  C   UNL     1       0.620  -4.877   0.180  0.00  0.00    +0.141 C 
ATOM      2  C   UNL     1       0.777  -5.606   1.486  0.00  0.00    +0.035 A 
ATOM      3  C   UNL     1       0.967  -5.519   2.870  0.00  0.00    +0.102 A 
ATOM      4  N   UNL     1       0.997  -6.749   3.342  0.00  0.00    -0.173 NA
ATOM      5  N   UNL     1       0.845  -7.604   2.394  0.00  0.00    -0.272 N 
ATOM      6  H   UNL     1       0.833  -8.567   2.510  0.00  0.00    +0.189 HD
ATOM      7  C   UNL     1       0.701  -6.955   1.201  0.00  0.00    +0.126 A 
ATOM      8  C   UNL     1       0.500  -7.116  -0.243  0.00  0.00    +0.266 C 
ATOM      9  O   UNL     1       0.392  -8.184  -0.815  0.00  0.00    -0.268 OA
ATOM     10  N   UNL     1       0.452  -5.913  -0.848  0.00  0.00    -0.283 N 
ENDROOT
BRANCH   3  11
ATOM     11  C   UNL     1       1.110  -4.271   3.660  0.00  0.00    +0.044 A 
ATOM     12  C   UNL     1       1.182  -3.038   3.015  0.00  0.00    +0.017 A 
ATOM     13  C   UNL     1       1.315  -1.881   3.754  0.00  0.00    -0.049 A 
ATOM     14  C   UNL     1       1.377  -1.939   5.135  0.00  0.00    +0.010 A 
ATOM     15  C   UNL     1       1.306  -3.156   5.785  0.00  0.00    -0.008 A 
ATOM     16  C   UNL     1       1.167  -4.326   5.055  0.00  0.00    +0.129 A 
ATOM     17  C   UNL     1       1.374  -3.212   7.290  0.00  0.00    +0.047 C 
ATOM     18  C   UNL     1       1.393  -0.548   3.055  0.00  0.00    +0.044 C 
BRANCH  16  19
ATOM     19  O   UNL     1       1.091  -5.523   5.694  0.00  0.00    -0.506 OA
ATOM     20  H   UNL     1       1.948  -5.946   5.840  0.00  0.00    +0.292 HD
ENDBRANCH  16  19
ENDBRANCH   3  11
BRANCH   1  23
ATOM     21  C   UNL     1      -2.980  -3.736   0.291  0.00  0.00    +0.162 A 
ATOM     22  C   UNL     1      -1.860  -4.551   0.250  0.00  0.00    +0.055 A 
ATOM     23  C   UNL     1      -0.597  -3.989   0.224  0.00  0.00    -0.019 A 
ATOM     24  C   UNL     1      -0.448  -2.615   0.239  0.00  0.00    +0.009 A 
ATOM     25  C   UNL     1      -1.561  -1.796   0.280  0.00  0.00    +0.050 A 
ATOM     26  C   UNL     1      -2.830  -2.352   0.300  0.00  0.00    +0.162 A 
BRANCH  21  27
ATOM     27  O   UNL     1      -4.223  -4.286   0.316  0.00  0.00    -0.489 OA
BRANCH  27  29
ATOM     28  C   UNL     1      -5.766  -6.139   0.484  0.00  0.00    +0.048 C 
ATOM     29  C   UNL     1      -4.300  -5.711   0.392  0.00  0.00    +0.226 C 
ENDBRANCH  27  29
ENDBRANCH  21  27
BRANCH  26  30
ATOM     30  O   UNL     1      -3.926  -1.548   0.335  0.00  0.00    -0.484 OA
BRANCH  30  31
ATOM     31  C   UNL     1      -3.696  -0.138   0.342  0.00  0.00    +0.264 C 
BRANCH  31  32
ATOM     32  C   UNL     1      -5.017   0.587   0.381  0.00  0.00    -0.010 A 
ATOM     33  C   UNL     1      -5.655   0.925  -0.798  0.00  0.00    +0.007 A 
ATOM     34  C   UNL     1      -6.866   1.589  -0.762  0.00  0.00    +0.000 A 
ATOM     35  C   UNL     1      -7.440   1.915   0.453  0.00  0.00    +0.000 A 
ATOM     36  C   UNL     1      -6.803   1.576   1.632  0.00  0.00    +0.000 A 
ATOM     37  C   UNL     1      -5.593   0.908   1.596  0.00  0.00    +0.007 A 
ENDBRANCH  31  32
ENDBRANCH  30  31
ENDBRANCH  26  30
ENDBRANCH   1  23
BRANCH  10  38
ATOM     38  C   UNL     1       0.264  -5.678  -2.281  0.00  0.00    +0.137 C 
BRANCH  38  39
ATOM     39  C   UNL     1       1.628  -5.636  -2.974  0.00  0.00    +0.175 C 
BRANCH  39  40
ATOM     40  O   UNL     1       2.250  -6.919  -2.880  0.00  0.00    -0.393 OA
ATOM     41  H   UNL     1       3.120  -6.965  -3.299  0.00  0.00    +0.209 HD
ENDBRANCH  39  40
ENDBRANCH  38  39
ENDBRANCH  10  38
TORSDOF 11
