REMARK  Name = ZINC13335197
REMARK  10 active torsions:
REMARK  status: ('A' for Active; 'I' for Inactive)
REMARK    1  A    between atoms: C_1  and  C_2
REMARK    2  A    between atoms: C_2  and  C_4
REMARK    3  A    between atoms: C_2  and  N_16
REMARK    4  A    between atoms: C_7  and  C_10
REMARK    5  A    between atoms: C_17  and  C_19
REMARK    6  A    between atoms: C_19  and  S_20
REMARK    7  A    between atoms: S_20  and  C_21
REMARK    8  A    between atoms: N_31  and  C_32
REMARK    9  A    between atoms: C_32  and  C_34
REMARK   10  A    between atoms: C_32  and  C_35
REMARK                            x       y       z     vdW  Elec       q    Type
REMARK                         _______ _______ _______ _____ _____    ______ ____
ROOT
ATOM      1  N   UNL     1      -6.248  -1.137   0.057  0.00  0.00    -0.308 N 
ATOM      2  C   UNL     1      -5.218  -2.007   0.043  0.00  0.00    +0.224 C 
ATOM      3  O   UNL     1      -5.434  -3.200   0.039  0.00  0.00    -0.275 OA
ATOM      4  H   UNL     1      -6.076  -0.182   0.060  0.00  0.00    +0.149 HD
ENDROOT
BRANCH   1   6
ATOM      5  C   UNL     1      -8.049  -1.931   1.508  0.00  0.00    +0.033 C 
ATOM      6  C   UNL     1      -7.626  -1.633   0.068  0.00  0.00    +0.100 C 
BRANCH   6   7
ATOM      7  C   UNL     1      -8.540  -0.588  -0.518  0.00  0.00    -0.027 A 
ATOM      8  C   UNL     1      -8.346   0.747  -0.214  0.00  0.00    +0.006 A 
ATOM      9  C   UNL     1      -9.177   1.709  -0.753  0.00  0.00    +0.009 A 
ATOM     10  C   UNL     1     -10.220   1.331  -1.595  0.00  0.00    -0.018 A 
ATOM     11  C   UNL     1     -10.415  -0.016  -1.894  0.00  0.00    +0.009 A 
ATOM     12  C   UNL     1      -9.575  -0.968  -1.354  0.00  0.00    +0.006 A 
BRANCH  10  13
ATOM     13  C   UNL     1     -11.120   2.360  -2.173  0.00  0.00    -0.018 A 
ATOM     14  C   UNL     1     -12.160   1.983  -3.021  0.00  0.00    +0.008 A 
ATOM     15  C   UNL     1     -12.997   2.943  -3.551  0.00  0.00    +0.001 A 
ATOM     16  C   UNL     1     -12.799   4.279  -3.252  0.00  0.00    +0.000 A 
ATOM     17  C   UNL     1     -11.765   4.659  -2.415  0.00  0.00    +0.001 A 
ATOM     18  C   UNL     1     -10.925   3.707  -1.875  0.00  0.00    +0.008 A 
ENDBRANCH  10  13
ENDBRANCH   6   7
ENDBRANCH   1   6
BRANCH   2  19
ATOM     19  C   UNL     1      -3.800  -1.496   0.032  0.00  0.00    +0.173 C 
BRANCH  19  20
ATOM     20  S   UNL     1      -2.655  -2.898   0.013  0.00  0.00    -0.078 S 
BRANCH  20  21
ATOM     21  C   UNL     1      -1.118  -2.037   0.003  0.00  0.00    +0.173 A 
ATOM     22  N   UNL     1      -1.136  -0.727   0.009  0.00  0.00    -0.223 NA
ATOM     23  C   UNL     1       0.002  -0.004   0.002  0.00  0.00    +0.079 A 
ATOM     24  C   UNL     1      -0.017   1.394   0.010  0.00  0.00    +0.028 A 
ATOM     25  C   UNL     1       1.161   2.086   0.002  0.00  0.00    +0.002 A 
ATOM     26  C   UNL     1       2.381   1.422  -0.014  0.00  0.00    +0.001 A 
ATOM     27  C   UNL     1       2.432   0.055  -0.021  0.00  0.00    +0.015 A 
ATOM     28  C   UNL     1       1.245  -0.677  -0.013  0.00  0.00    +0.065 A 
ATOM     29  C   UNL     1       1.240  -2.146  -0.020  0.00  0.00    +0.263 A 
ATOM     30  O   UNL     1       2.278  -2.781  -0.032  0.00  0.00    -0.267 OA
ATOM     31  N   UNL     1       0.037  -2.766  -0.012  0.00  0.00    -0.273 N 
BRANCH  31  32
ATOM     32  C   UNL     1      -0.027  -4.229  -0.018  0.00  0.00    +0.202 C 
ATOM     33  C   UNL     1       0.659  -4.765  -1.276  0.00  0.00    +0.043 C 
BRANCH  32  34
ATOM     34  C   UNL     1       0.672  -4.768   1.203  0.00  0.00    +0.378 C 
ATOM     35  O   UNL     1       1.173  -4.008   1.998  0.00  0.00    -0.244 OA
ATOM     36  O   UNL     1       0.739  -6.093   1.409  0.00  0.00    -0.244 OA
ENDBRANCH  32  34
ENDBRANCH  31  32
ENDBRANCH  20  21
ENDBRANCH  19  20
ENDBRANCH   2  19
TORSDOF 8
