REMARK  Name = ZINC14961736
REMARK  9 active torsions:
REMARK  status: ('A' for Active; 'I' for Inactive)
REMARK    1  A    between atoms: C_1  and  C_2
REMARK    2  A    between atoms: C_5  and  C_12
REMARK    3  A    between atoms: C_14  and  O_18
REMARK    4  A    between atoms: O_18  and  C_19
REMARK    5  A    between atoms: C_19  and  C_20
REMARK    6  A    between atoms: C_20  and  C_22
REMARK    7  A    between atoms: C_20  and  N_52
REMARK    8  A    between atoms: C_22  and  C_23
REMARK    9  A    between atoms: C_25  and  C_30
REMARK                            x       y       z     vdW  Elec       q    Type
REMARK                         _______ _______ _______ _____ _____    ______ ____
ROOT
ATOM      1  O   UNL     1      -9.260   2.541  -0.058  0.00  0.00    -0.492 OA
ENDROOT
BRANCH   1   4
ATOM      2  C   UNL     1      -5.660   1.992   0.026  0.00  0.00    +0.004 A 
ATOM      3  C   UNL     1      -6.942   2.329   0.464  0.00  0.00    +0.057 A 
ATOM      4  C   UNL     1      -7.994   2.224  -0.438  0.00  0.00    +0.139 A 
ATOM      5  C   UNL     1      -7.735   1.792  -1.732  0.00  0.00    +0.156 A 
ATOM      6  N   UNL     1      -6.511   1.482  -2.111  0.00  0.00    -0.259 NA
ATOM      7  C   UNL     1      -5.484   1.572  -1.291  0.00  0.00    +0.119 A 
BRANCH   2  12
ATOM      8  C   UNL     1      -0.013   1.086   0.008  0.00  0.00    +0.068 C 
ATOM      9  C   UNL     1      -0.718   1.572   1.248  0.00  0.00    +0.067 A 
ATOM     10  C   UNL     1      -2.147   1.844   1.374  0.00  0.00    +0.023 A 
ATOM     11  C   UNL     1      -3.233   1.748   0.499  0.00  0.00    +0.020 A 
ATOM     12  C   UNL     1      -4.500   2.085   0.948  0.00  0.00    -0.016 A 
ATOM     13  C   UNL     1      -4.690   2.514   2.267  0.00  0.00    +0.010 A 
ATOM     14  C   UNL     1      -3.637   2.606   3.128  0.00  0.00    +0.028 A 
ATOM     15  C   UNL     1      -2.353   2.271   2.701  0.00  0.00    +0.066 A 
ATOM     16  N   UNL     1      -1.126   2.260   3.313  0.00  0.00    -0.277 N 
ATOM     17  H   UNL     1      -0.950   2.518   4.263  0.00  0.00    +0.189 HD
ATOM     18  N   UNL     1      -0.161   1.829   2.397  0.00  0.00    -0.178 NA
ENDBRANCH   2  12
ENDBRANCH   1   4
BRANCH   1  19
ATOM     19  C   UNL     1     -10.285   2.407  -1.044  0.00  0.00    +0.213 C 
BRANCH  19  20
ATOM     20  C   UNL     1     -11.632   2.805  -0.436  0.00  0.00    -0.033 C 
BRANCH  20  23
ATOM     21  H   UNL     1     -10.925   4.420   0.627  0.00  0.00    -0.089 HD
ATOM     22  H   UNL     1     -11.443   4.800  -0.907  0.00  0.00    -0.089 HD
ATOM     23  N   UNL     1     -11.634   4.235  -0.081  0.00  0.00    +0.382 N 
ATOM     24  H   UNL     1     -12.556   4.489   0.293  0.00  0.00    -0.089 HD
ENDBRANCH  20  23
BRANCH  20  25
ATOM     25  C   UNL     1     -12.747   2.544  -1.451  0.00  0.00    +0.022 C 
BRANCH  25  26
ATOM     26  C   UNL     1     -14.083   2.819  -0.811  0.00  0.00    -0.046 A 
ATOM     27  C   UNL     1     -14.761   1.804  -0.162  0.00  0.00    +0.016 A 
ATOM     28  C   UNL     1     -15.984   2.057   0.430  0.00  0.00    +0.058 A 
ATOM     29  C   UNL     1     -16.537   3.322   0.363  0.00  0.00    +0.050 A 
ATOM     30  C   UNL     1     -15.862   4.338  -0.292  0.00  0.00    +0.124 A 
ATOM     31  C   UNL     1     -14.634   4.085  -0.880  0.00  0.00    +0.042 A 
ATOM     32  F   UNL     1     -16.401   5.574  -0.359  0.00  0.00    -0.205 F 
BRANCH  28  33
ATOM     33  C   UNL     1     -16.719   0.951   1.143  0.00  0.00    +0.418 C 
ATOM     34  F   UNL     1     -17.926   1.444   1.650  0.00  0.00    -0.166 F 
ATOM     35  F   UNL     1     -16.980  -0.090   0.245  0.00  0.00    -0.166 F 
ATOM     36  F   UNL     1     -15.932   0.471   2.196  0.00  0.00    -0.166 F 
ENDBRANCH  28  33
ENDBRANCH  25  26
ENDBRANCH  20  25
ENDBRANCH  19  20
ENDBRANCH   1  19
TORSDOF 8
