REMARK  Name = ZINC34805417
REMARK  5 active torsions:
REMARK  status: ('A' for Active; 'I' for Inactive)
REMARK    1  A    between atoms: C_4  and  N_7
REMARK    2  A    between atoms: C_11  and  C_12
REMARK    3  A    between atoms: C_15  and  C_17
REMARK    4  A    between atoms: C_26  and  C_27
REMARK    5  A    between atoms: C_26  and  C_29
REMARK                            x       y       z     vdW  Elec       q    Type
REMARK                         _______ _______ _______ _____ _____    ______ ____
ROOT
ATOM      1  N   UNL     1       3.606  -0.788  -0.641  0.00  0.00    -0.269 N 
ATOM      2  C   UNL     1       4.736  -0.138  -0.882  0.00  0.00    +0.271 A 
ATOM      3  O   UNL     1       4.750   0.997  -1.323  0.00  0.00    -0.266 OA
ATOM      4  C   UNL     1       5.934  -0.856  -0.589  0.00  0.00    +0.082 A 
ATOM      5  C   UNL     1       7.234  -0.463  -0.728  0.00  0.00    +0.066 C 
ATOM      6  S   UNL     1       5.279  -2.405   0.007  0.00  0.00    -0.064 S 
ATOM      7  C   UNL     1       3.639  -2.061  -0.139  0.00  0.00    +0.111 A 
ATOM      8  C   UNL     1       2.557  -2.888   0.179  0.00  0.00    +0.144 C 
ENDROOT
BRANCH   1  12
ATOM      9  C   UNL     1      -0.054   1.056  -1.399  0.00  0.00    +0.000 A 
ATOM     10  C   UNL     1       0.602   1.291  -0.205  0.00  0.00    +0.002 A 
ATOM     11  C   UNL     1       1.815   0.681   0.049  0.00  0.00    +0.026 A 
ATOM     12  C   UNL     1       2.376  -0.168  -0.896  0.00  0.00    +0.051 A 
ATOM     13  C   UNL     1       1.714  -0.402  -2.094  0.00  0.00    +0.026 A 
ATOM     14  C   UNL     1       0.501   0.210  -2.342  0.00  0.00    +0.002 A 
ENDBRANCH   1  12
BRANCH   5  15
ATOM     15  C   UNL     1       8.279  -1.342  -0.374  0.00  0.00    +0.130 A 
ATOM     16  C   UNL     1       9.633  -1.069  -0.459  0.00  0.00    +0.050 A 
ATOM     17  C   UNL     1      10.304  -2.209  -0.009  0.00  0.00    +0.050 A 
ATOM     18  C   UNL     1       9.342  -3.133   0.333  0.00  0.00    +0.136 A 
ATOM     19  O   UNL     1       8.130  -2.592   0.112  0.00  0.00    -0.455 OA
BRANCH  18  20
ATOM     20  C   UNL     1       9.598  -4.488   0.859  0.00  0.00    +0.019 A 
ATOM     21  C   UNL     1      10.910  -4.929   1.055  0.00  0.00    +0.011 A 
ATOM     22  C   UNL     1      11.142  -6.196   1.547  0.00  0.00    +0.002 A 
ATOM     23  C   UNL     1      10.080  -7.031   1.847  0.00  0.00    +0.020 A 
ATOM     24  C   UNL     1       8.777  -6.601   1.656  0.00  0.00    +0.042 A 
ATOM     25  C   UNL     1       8.530  -5.333   1.169  0.00  0.00    +0.031 A 
ATOM     26 CL   UNL     1       7.452  -7.657   2.035  0.00  0.00    -0.084 Cl
ENDBRANCH  18  20
ENDBRANCH   5  15
BRANCH   8  27
ATOM     27  C   UNL     1       1.193  -2.367   0.103  0.00  0.00    +0.254 C 
ATOM     28  O   UNL     1       0.497  -2.621  -0.864  0.00  0.00    -0.270 OA
ATOM     29  N   UNL     1       0.706  -1.606   1.103  0.00  0.00    -0.325 N 
ATOM     30  H   UNL     1       1.260  -1.404   1.873  0.00  0.00    +0.145 HD
ATOM     31  H   UNL     1      -0.199  -1.261   1.053  0.00  0.00    +0.145 HD
ENDBRANCH   8  27
BRANCH   8  32
ATOM     32  C   UNL     1       2.784  -4.244   0.578  0.00  0.00    +0.107 C 
ATOM     33  N   UNL     1       2.965  -5.320   0.894  0.00  0.00    -0.191 NA
ENDBRANCH   8  32
TORSDOF 5
