REMARK  Name = ZINC14461092
REMARK  6 active torsions:
REMARK  status: ('A' for Active; 'I' for Inactive)
REMARK    1  A    between atoms: C_1  and  C_2
REMARK    2  A    between atoms: C_2  and  C_3
REMARK    3  A    between atoms: C_2  and  N_4
REMARK    4  A    between atoms: C_5  and  C_7
REMARK    5  A    between atoms: C_14  and  C_23
REMARK    6  A    between atoms: C_28  and  O_29
REMARK                            x       y       z     vdW  Elec       q    Type
REMARK                         _______ _______ _______ _____ _____    ______ ____
ROOT
ATOM      1  C   UNL     1      -3.995   3.562   2.080  0.00  0.00    +0.058 A 
ATOM      2  C   UNL     1      -5.175   3.091   1.502  0.00  0.00    +0.015 A 
ATOM      3  C   UNL     1      -5.121   2.062   0.588  0.00  0.00    +0.001 A 
ATOM      4  C   UNL     1      -3.906   1.499   0.243  0.00  0.00    +0.006 A 
ATOM      5  C   UNL     1      -2.722   1.954   0.805  0.00  0.00    -0.019 A 
ATOM      6  C   UNL     1      -2.759   2.986   1.727  0.00  0.00    +0.044 A 
ATOM      7  N   UNL     1      -1.614   3.483   2.330  0.00  0.00    -0.336 N 
ATOM      8  C   UNL     1      -0.421   3.281   1.507  0.00  0.00    +0.108 C 
ATOM      9  C   UNL     1      -0.235   1.772   1.224  0.00  0.00    +0.029 C 
ATOM     10  C   UNL     1      -1.442   1.296   0.379  0.00  0.00    +0.049 C 
ATOM     11  C   UNL     1      -1.085   1.694  -1.034  0.00  0.00    -0.023 C 
ATOM     12  C   UNL     1       0.208   1.869  -1.148  0.00  0.00    -0.030 C 
ATOM     13  C   UNL     1       0.900   1.604   0.175  0.00  0.00    +0.033 C 
ATOM     14  H   UNL     1      -1.726   4.457   2.571  0.00  0.00    +0.147 HD
ENDROOT
BRANCH   8  15
ATOM     15  C   UNL     1      -0.576   4.025   0.206  0.00  0.00    +0.015 A 
ATOM     16  C   UNL     1      -1.828   4.179  -0.358  0.00  0.00    +0.024 A 
ATOM     17  C   UNL     1      -1.971   4.866  -1.550  0.00  0.00    +0.018 A 
ATOM     18  C   UNL     1      -0.860   5.392  -2.185  0.00  0.00    +0.019 A 
ATOM     19  C   UNL     1       0.394   5.236  -1.627  0.00  0.00    +0.047 A 
ATOM     20  C   UNL     1       0.539   4.552  -0.429  0.00  0.00    +0.122 A 
ATOM     21 BR   UNL     1      -3.686   5.079  -2.317  0.00  0.00    -0.050 Br
BRANCH  20  22
ATOM     22  O   UNL     1       1.772   4.397   0.121  0.00  0.00    -0.506 OA
ATOM     23  H   UNL     1       2.275   3.656  -0.243  0.00  0.00    +0.292 HD
ENDBRANCH  20  22
ENDBRANCH   8  15
BRANCH   1  25
ATOM     24  N   UNL     1      -5.204   5.306   3.294  0.00  0.00    -0.309 N 
ATOM     25  C   UNL     1      -4.043   4.663   3.059  0.00  0.00    +0.246 C 
ATOM     26  O   UNL     1      -3.034   4.991   3.655  0.00  0.00    -0.270 OA
ATOM     27  H   UNL     1      -6.008   5.044   2.819  0.00  0.00    +0.149 HD
BRANCH  24  29
ATOM     28  C   UNL     1      -6.412   7.336   3.926  0.00  0.00    +0.027 C 
ATOM     29  C   UNL     1      -5.251   6.400   4.267  0.00  0.00    +0.067 C 
ATOM     30  C   UNL     1      -5.454   5.826   5.671  0.00  0.00    +0.027 C 
ENDBRANCH  24  29
ENDBRANCH   1  25
TORSDOF 4
