REMARK  Name = ZINC43765336
REMARK  4 active torsions:
REMARK  status: ('A' for Active; 'I' for Inactive)
REMARK    1  A    between atoms: C_4  and  C_7
REMARK    2  A    between atoms: C_18  and  S_23
REMARK    3  A    between atoms: S_23  and  N_26
REMARK    4  A    between atoms: N_26  and  C_27
REMARK                            x       y       z     vdW  Elec       q    Type
REMARK                         _______ _______ _______ _____ _____    ______ ____
ROOT
ATOM      1  C   UNL     1       3.264  -1.015   0.041  0.00  0.00    +0.105 C 
ATOM      2  C   UNL     1       3.581  -1.385  -1.393  0.00  0.00    +0.029 C 
ATOM      3  C   UNL     1       4.268  -0.164  -2.066  0.00  0.00    +0.033 C 
ATOM      4  C   UNL     1       5.747  -0.411  -1.863  0.00  0.00    -0.030 C 
ATOM      5  C   UNL     1       5.974  -1.665  -1.563  0.00  0.00    -0.023 C 
ATOM      6  C   UNL     1       4.667  -2.451  -1.529  0.00  0.00    +0.049 C 
ATOM      7  C   UNL     1       4.646  -3.495  -0.465  0.00  0.00    -0.018 A 
ATOM      8  C   UNL     1       5.352  -4.673  -0.663  0.00  0.00    +0.034 A 
ATOM      9  C   UNL     1       5.344  -5.666   0.296  0.00  0.00    +0.109 A 
ATOM     10  C   UNL     1       4.627  -5.496   1.466  0.00  0.00    +0.030 A 
ATOM     11  C   UNL     1       3.925  -4.327   1.676  0.00  0.00    +0.025 A 
ATOM     12  C   UNL     1       3.939  -3.322   0.715  0.00  0.00    +0.031 A 
ATOM     13  N   UNL     1       3.274  -2.134   0.957  0.00  0.00    -0.336 N 
ATOM     14  H   UNL     1       2.770  -2.058   1.782  0.00  0.00    +0.147 HD
ENDROOT
BRANCH   1  18
ATOM     15  C   UNL     1      -0.603   0.796   0.151  0.00  0.00    +0.000 A 
ATOM     16  C   UNL     1       0.530   1.587   0.127  0.00  0.00    +0.000 A 
ATOM     17  C   UNL     1       1.782   1.001   0.092  0.00  0.00    +0.005 A 
ATOM     18  C   UNL     1       1.900  -0.376   0.081  0.00  0.00    -0.027 A 
ATOM     19  C   UNL     1       0.767  -1.167   0.105  0.00  0.00    +0.005 A 
ATOM     20  C   UNL     1      -0.485  -0.581   0.139  0.00  0.00    +0.000 A 
ENDBRANCH   1  18
BRANCH   9  21
ATOM     21  S   UNL     1       6.248  -7.154   0.027  0.00  0.00    +0.072 S 
ATOM     22  O   UNL     1       5.638  -8.151   0.835  0.00  0.00    -0.150 OA
ATOM     23  O   UNL     1       6.391  -7.295  -1.379  0.00  0.00    -0.150 OA
BRANCH  21  24
ATOM     24  N   UNL     1       7.770  -6.918   0.636  0.00  0.00    -0.216 N 
ATOM     25  H   UNL     1       8.542  -6.982   0.052  0.00  0.00    +0.174 HD
BRANCH  24  26
ATOM     26  C   UNL     1       7.943  -6.628   1.988  0.00  0.00    +0.056 A 
ATOM     27  C   UNL     1       7.119  -7.203   2.933  0.00  0.00    +0.025 A 
ATOM     28  C   UNL     1       7.284  -6.920   4.286  0.00  0.00    +0.002 A 
ATOM     29  C   UNL     1       8.258  -6.070   4.713  0.00  0.00    +0.008 A 
ATOM     30  C   UNL     1       9.119  -5.464   3.782  0.00  0.00    -0.016 A 
ATOM     31  C   UNL     1       8.965  -5.749   2.403  0.00  0.00    +0.004 A 
ATOM     32  C   UNL     1       9.829  -5.146   1.474  0.00  0.00    +0.010 A 
ATOM     33  C   UNL     1      10.804  -4.302   1.910  0.00  0.00    +0.001 A 
ATOM     34  C   UNL     1      10.960  -4.026   3.267  0.00  0.00    +0.001 A 
ATOM     35  C   UNL     1      10.133  -4.583   4.194  0.00  0.00    +0.008 A 
ENDBRANCH  24  26
ENDBRANCH  21  24
ENDBRANCH   9  21
TORSDOF 4
