REMARK  Name = ZINC12396826
REMARK  5 active torsions:
REMARK  status: ('A' for Active; 'I' for Inactive)
REMARK    1  A    between atoms: C_1  and  C_2
REMARK    2  A    between atoms: C_2  and  C_3
REMARK    3  A    between atoms: C_6  and  C_9
REMARK    4  A    between atoms: C_11  and  C_21
REMARK    5  A    between atoms: C_18  and  N_46
REMARK                            x       y       z     vdW  Elec       q    Type
REMARK                         _______ _______ _______ _____ _____    ______ ____
ROOT
ATOM      1  C   UNL     1       2.481   1.071  -0.015  0.00  0.00    +0.077 A 
ATOM      2  C   UNL     1       3.685   1.779  -0.023  0.00  0.00    +0.060 A 
ATOM      3  C   UNL     1       4.870   1.065  -0.037  0.00  0.00    +0.149 A 
ATOM      4  N   UNL     1       4.828  -0.258  -0.043  0.00  0.00    -0.210 NA
ATOM      5  C   UNL     1       3.671  -0.904  -0.035  0.00  0.00    +0.219 A 
ATOM      6  N   UNL     1       2.515  -0.260  -0.016  0.00  0.00    -0.214 NA
ATOM      7  N   UNL     1       3.672  -2.288  -0.042  0.00  0.00    -0.300 N 
ATOM      8  C   UNL     1       2.891  -2.810  -1.171  0.00  0.00    +0.106 C 
ATOM      9  C   UNL     1       2.791  -4.333  -1.064  0.00  0.00    +0.003 C 
ATOM     10  C   UNL     1       4.200  -4.933  -1.073  0.00  0.00    -0.072 C 
ATOM     11  C   UNL     1       5.008  -4.338   0.083  0.00  0.00    +0.003 C 
ATOM     12  C   UNL     1       5.043  -2.814  -0.057  0.00  0.00    +0.106 C 
ENDROOT
BRANCH   1  16
ATOM     13  C   UNL     1      -1.236   3.134   0.029  0.00  0.00    -0.048 A 
ATOM     14  C   UNL     1      -1.216   1.751   0.017  0.00  0.00    +0.004 A 
ATOM     15  C   UNL     1      -0.013   1.076   0.008  0.00  0.00    +0.010 A 
ATOM     16  C   UNL     1       1.184   1.790   0.000  0.00  0.00    +0.001 A 
ATOM     17  C   UNL     1       1.158   3.184   0.008  0.00  0.00    +0.010 A 
ATOM     18  C   UNL     1      -0.052   3.848   0.022  0.00  0.00    +0.004 A 
BRANCH  13  20
ATOM     19  C   UNL     1      -3.013   4.120  -1.392  0.00  0.00    +0.009 C 
ATOM     20  C   UNL     1      -2.554   3.865   0.045  0.00  0.00    +0.032 C 
ENDBRANCH  13  20
ENDBRANCH   1  16
BRANCH   3  21
ATOM     21  C   UNL     1       6.194   1.785  -0.046  0.00  0.00    +0.434 C 
ATOM     22  F   UNL     1       6.615   2.002   1.270  0.00  0.00    -0.164 F 
ATOM     23  F   UNL     1       7.143   1.008  -0.718  0.00  0.00    -0.164 F 
ATOM     24  F   UNL     1       6.051   3.014  -0.699  0.00  0.00    -0.164 F 
ENDBRANCH   3  21
BRANCH  10  27
ATOM     25  H   UNL     1       3.585  -6.807  -1.665  0.00  0.00    -0.090 HD
ATOM     26  H   UNL     1       5.032  -6.802  -0.846  0.00  0.00    -0.090 HD
ATOM     27  N   UNL     1       4.101  -6.392  -0.891  0.00  0.00    +0.380 N 
ATOM     28  H   UNL     1       3.606  -6.589  -0.013  0.00  0.00    -0.090 HD
ENDBRANCH  10  27
TORSDOF 4
