REMARK  Name = ZINC08568277
REMARK  9 active torsions:
REMARK  status: ('A' for Active; 'I' for Inactive)
REMARK    1  A    between atoms: C_1  and  C_2
REMARK    2  A    between atoms: C_2  and  C_3
REMARK    3  A    between atoms: C_3  and  C_4
REMARK    4  A    between atoms: C_11  and  N_35
REMARK    5  A    between atoms: C_12  and  C_31
REMARK    6  A    between atoms: N_20  and  C_23
REMARK    7  A    between atoms: C_23  and  C_24
REMARK    8  A    between atoms: C_31  and  O_33
REMARK    9  A    between atoms: O_33  and  C_34
REMARK                            x       y       z     vdW  Elec       q    Type
REMARK                         _______ _______ _______ _____ _____    ______ ____
ROOT
ATOM      1  C   UNL     1      -1.251  -2.118   0.304  0.00  0.00    +0.071 A 
ATOM      2  C   UNL     1      -1.266  -2.981  -0.782  0.00  0.00    +0.061 A 
ATOM      3  C   UNL     1      -1.325  -4.262  -0.304  0.00  0.00    +0.223 A 
ATOM      4  N   UNL     1      -1.347  -4.194   1.036  0.00  0.00    -0.246 N 
ATOM      5  H   UNL     1      -1.388  -4.947   1.646  0.00  0.00    +0.192 HD
ATOM      6  N   UNL     1      -1.294  -2.839   1.399  0.00  0.00    -0.176 NA
ATOM      7  O   UNL     1      -1.352  -5.346  -1.119  0.00  0.00    -0.424 OA
ATOM      8  C   UNL     1      -1.052  -5.165  -2.420  0.00  0.00    +0.198 C 
ATOM      9  C   UNL     1      -0.976  -3.947  -3.013  0.00  0.00    +0.117 C 
ATOM     10  C   UNL     1      -1.228  -2.674  -2.253  0.00  0.00    +0.142 C 
ATOM     11  C   UNL     1      -2.491  -2.012  -2.702  0.00  0.00    -0.002 A 
ATOM     12  C   UNL     1      -3.802  -2.438  -2.690  0.00  0.00    +0.007 A 
ATOM     13  C   UNL     1      -4.755  -1.559  -3.192  0.00  0.00    +0.000 A 
ATOM     14  C   UNL     1      -4.402  -0.317  -3.679  0.00  0.00    +0.002 A 
ATOM     15  C   UNL     1      -3.087   0.118  -3.695  0.00  0.00    +0.024 A 
ATOM     16  C   UNL     1      -2.119  -0.754  -3.194  0.00  0.00    +0.041 A 
ATOM     17  N   UNL     1      -0.750  -0.584  -3.092  0.00  0.00    -0.265 N 
ATOM     18  C   UNL     1      -0.144  -1.662  -2.551  0.00  0.00    +0.240 C 
ATOM     19  O   UNL     1       1.044  -1.794  -2.343  0.00  0.00    -0.274 OA
ENDROOT
BRANCH   8  20
ATOM     20  N   UNL     1      -0.810  -6.273  -3.188  0.00  0.00    -0.329 N 
ATOM     21  H   UNL     1      -0.781  -7.151  -2.776  0.00  0.00    +0.145 HD
ATOM     22  H   UNL     1      -0.667  -6.180  -4.142  0.00  0.00    +0.145 HD
ENDBRANCH   8  20
BRANCH   9  23
ATOM     23  C   UNL     1      -0.653  -3.872  -4.375  0.00  0.00    +0.341 C 
ATOM     24  O   UNL     1      -1.515  -3.597  -5.191  0.00  0.00    -0.245 OA
BRANCH  23  25
ATOM     25  O   UNL     1       0.613  -4.106  -4.783  0.00  0.00    -0.465 OA
ATOM     26  C   UNL     1       0.871  -4.013  -6.186  0.00  0.00    +0.280 C 
ENDBRANCH  23  25
ENDBRANCH   9  23
BRANCH   1  27
ATOM     27  C   UNL     1      -1.190  -0.613   0.238  0.00  0.00    +0.057 C 
BRANCH  27  29
ATOM     28  C   UNL     1       0.311   1.374   0.438  0.00  0.00    +0.004 C 
ATOM     29  C   UNL     1       0.262  -0.154   0.396  0.00  0.00    +0.003 C 
ENDBRANCH  27  29
ENDBRANCH   1  27
BRANCH  17  30
ATOM     30  C   UNL     1      -0.041   0.625  -3.520  0.00  0.00    +0.148 C 
BRANCH  30  31
ATOM     31  C   UNL     1       0.276   0.527  -4.990  0.00  0.00    -0.030 A 
ATOM     32  C   UNL     1       1.413  -0.140  -5.409  0.00  0.00    +0.006 A 
ATOM     33  C   UNL     1       1.704  -0.230  -6.757  0.00  0.00    +0.020 A 
ATOM     34  C   UNL     1       0.859   0.347  -7.687  0.00  0.00    +0.041 A 
ATOM     35  C   UNL     1      -0.278   1.014  -7.268  0.00  0.00    +0.020 A 
ATOM     36  C   UNL     1      -0.572   1.099  -5.920  0.00  0.00    +0.006 A 
ATOM     37 CL   UNL     1       1.225   0.234  -9.380  0.00  0.00    -0.084 Cl
ENDBRANCH  30  31
ENDBRANCH  17  30
TORSDOF 7
