REMARK  Name = ZINC34852259
REMARK  6 active torsions:
REMARK  status: ('A' for Active; 'I' for Inactive)
REMARK    1  A    between atoms: C_1  and  C_2
REMARK    2  A    between atoms: C_5  and  N_9
REMARK    3  A    between atoms: C_6  and  C_8
REMARK    4  A    between atoms: C_10  and  C_20
REMARK    5  A    between atoms: C_15  and  C_18
REMARK    6  A    between atoms: C_23  and  C_25
REMARK                            x       y       z     vdW  Elec       q    Type
REMARK                         _______ _______ _______ _____ _____    ______ ____
ROOT
ATOM      1  N   UNL     1       0.059  -4.169  -0.021  0.00  0.00    -0.267 N 
ATOM      2  C   UNL     1      -1.194  -4.932  -0.025  0.00  0.00    +0.234 C 
ATOM      3  N   UNL     1      -1.117  -6.013   0.959  0.00  0.00    -0.286 N 
ATOM      4  C   UNL     1       0.064  -6.593   1.251  0.00  0.00    +0.258 C 
ATOM      5  O   UNL     1       0.113  -7.521   2.038  0.00  0.00    -0.269 OA
ATOM      6  C   UNL     1       1.288  -6.102   0.614  0.00  0.00    +0.142 C 
ATOM      7  C   UNL     1       1.250  -4.852  -0.031  0.00  0.00    +0.103 C 
ATOM      8  S   UNL     1       2.677  -4.183  -0.819  0.00  0.00    -0.033 SA
ATOM      9  H   UNL     1      -1.924  -6.315   1.406  0.00  0.00    +0.151 HD
ENDROOT
BRANCH   1  14
ATOM     10  C   UNL     1      -0.018   1.503   0.010  0.00  0.00    +0.044 C 
ATOM     11  C   UNL     1       0.002  -0.004   0.002  0.00  0.00    -0.050 A 
ATOM     12  C   UNL     1       0.006  -0.688  -1.200  0.00  0.00    +0.005 A 
ATOM     13  C   UNL     1       0.025  -2.068  -1.212  0.00  0.00    +0.024 A 
ATOM     14  C   UNL     1       0.040  -2.771  -0.013  0.00  0.00    +0.039 A 
ATOM     15  C   UNL     1       0.037  -2.081   1.192  0.00  0.00    -0.029 A 
ATOM     16  C   UNL     1       0.023  -0.700   1.196  0.00  0.00    +0.008 A 
ATOM     17  C   UNL     1       0.054  -2.840   2.495  0.00  0.00    +0.045 C 
ENDBRANCH   1  14
BRANCH   2  18
ATOM     18  C   UNL     1      -1.421  -5.517  -1.395  0.00  0.00    +0.144 A 
ATOM     19  C   UNL     1      -2.077  -6.663  -1.661  0.00  0.00    +0.049 A 
ATOM     20  C   UNL     1      -2.056  -6.836  -3.059  0.00  0.00    +0.050 A 
ATOM     21  C   UNL     1      -1.381  -5.775  -3.575  0.00  0.00    +0.138 A 
ATOM     22  O   UNL     1      -1.006  -4.980  -2.554  0.00  0.00    -0.456 OA
BRANCH  21  23
ATOM     23  C   UNL     1      -1.110  -5.532  -5.007  0.00  0.00    +0.052 A 
ATOM     24  C   UNL     1      -0.567  -6.545  -5.800  0.00  0.00    +0.014 A 
ATOM     25  C   UNL     1      -0.316  -6.312  -7.136  0.00  0.00    +0.001 A 
ATOM     26  C   UNL     1      -0.602  -5.078  -7.693  0.00  0.00    +0.003 A 
ATOM     27  C   UNL     1      -1.139  -4.068  -6.915  0.00  0.00    +0.039 A 
ATOM     28  C   UNL     1      -1.401  -4.289  -5.576  0.00  0.00    +0.134 A 
ATOM     29  F   UNL     1      -1.931  -3.305  -4.818  0.00  0.00    -0.205 F 
ENDBRANCH  21  23
ENDBRANCH   2  18
BRANCH   6  30
ATOM     30  C   UNL     1       2.493  -6.875   0.644  0.00  0.00    +0.107 C 
ATOM     31  N   UNL     1       3.449  -7.489   0.667  0.00  0.00    -0.191 NA
ENDBRANCH   6  30
TORSDOF 4
