REMARK  Name = ZINC26703524
REMARK  6 active torsions:
REMARK  status: ('A' for Active; 'I' for Inactive)
REMARK    1  A    between atoms: C_7  and  N_26
REMARK    2  A    between atoms: N_14  and  S_17
REMARK    3  A    between atoms: S_17  and  C_20
REMARK    4  A    between atoms: N_26  and  C_27
REMARK    5  A    between atoms: C_27  and  C_28
REMARK    6  A    between atoms: C_28  and  O_29
REMARK                            x       y       z     vdW  Elec       q    Type
REMARK                         _______ _______ _______ _____ _____    ______ ____
ROOT
ATOM      1  C   UNL     1       2.381   1.420  -0.013  0.00  0.00    +0.001 A 
ATOM      2  C   UNL     1       1.159   2.087   0.002  0.00  0.00    +0.002 A 
ATOM      3  C   UNL     1      -0.017   1.397   0.010  0.00  0.00    +0.026 A 
ATOM      4  C   UNL     1       0.002  -0.004   0.002  0.00  0.00    +0.052 A 
ATOM      5  C   UNL     1       1.246  -0.680  -0.013  0.00  0.00    +0.038 A 
ATOM      6  C   UNL     1       2.435   0.057  -0.021  0.00  0.00    +0.013 A 
ATOM      7  C   UNL     1       1.241  -2.098  -0.021  0.00  0.00    +0.132 A 
ATOM      8  N   UNL     1       0.072  -2.721  -0.014  0.00  0.00    -0.201 NA
ATOM      9  C   UNL     1      -1.074  -2.047   0.000  0.00  0.00    +0.198 A 
ATOM     10  N   UNL     1      -1.127  -0.729   0.008  0.00  0.00    -0.327 N 
ATOM     11  N   UNL     1      -2.261  -2.757   0.008  0.00  0.00    -0.299 N 
ATOM     12  C   UNL     1      -2.327  -3.684  -1.130  0.00  0.00    +0.125 C 
ATOM     13  C   UNL     1      -3.564  -4.576  -0.987  0.00  0.00    +0.128 C 
ATOM     14  N   UNL     1      -4.744  -3.714  -0.818  0.00  0.00    -0.173 NA
ATOM     15  C   UNL     1      -4.699  -2.667   0.214  0.00  0.00    +0.128 C 
ATOM     16  C   UNL     1      -3.417  -1.851   0.024  0.00  0.00    +0.125 C 
ATOM     17  H   UNL     1      -2.104  -0.224   0.020  0.00  0.00    +0.169 HD
ENDROOT
BRANCH  14  18
ATOM     18  S   UNL     1      -6.087  -3.917  -1.765  0.00  0.00    +0.067 S 
ATOM     19  O   UNL     1      -6.063  -5.262  -2.222  0.00  0.00    -0.152 OA
ATOM     20  O   UNL     1      -7.183  -3.379  -1.037  0.00  0.00    -0.152 OA
BRANCH  18  21
ATOM     21  C   UNL     1      -5.880  -2.898  -3.188  0.00  0.00    +0.144 A 
ATOM     22  C   UNL     1      -5.306  -3.201  -4.378  0.00  0.00    +0.037 A 
ATOM     23  C   UNL     1      -5.253  -2.232  -5.363  0.00  0.00    +0.025 A 
ATOM     24  C   UNL     1      -5.778  -1.008  -5.109  0.00  0.00    +0.057 A 
ATOM     25  S   UNL     1      -6.377  -1.202  -3.439  0.00  0.00    -0.062 S 
ATOM     26 BR   UNL     1      -5.860   0.509  -6.235  0.00  0.00    -0.043 Br
ENDBRANCH  18  21
ENDBRANCH  14  18
BRANCH   7  27
ATOM     27  N   UNL     1       2.421  -2.809  -0.037  0.00  0.00    -0.326 N 
ATOM     28  H   UNL     1       3.384  -2.276  -0.043  0.00  0.00    +0.148 HD
BRANCH  27  29
ATOM     29  C   UNL     1       2.394  -4.273  -0.045  0.00  0.00    +0.130 C 
BRANCH  29  30
ATOM     30  C   UNL     1       3.827  -4.810  -0.062  0.00  0.00    +0.174 C 
BRANCH  30  31
ATOM     31  O   UNL     1       4.484  -4.451   1.155  0.00  0.00    -0.393 OA
ATOM     32  H   UNL     1       5.529  -4.752   1.326  0.00  0.00    +0.209 HD
ENDBRANCH  30  31
ENDBRANCH  29  30
ENDBRANCH  27  29
ENDBRANCH   7  27
TORSDOF 6
