REMARK  Name = ZINC12699498
REMARK  5 active torsions:
REMARK  status: ('A' for Active; 'I' for Inactive)
REMARK    1  A    between atoms: C_3  and  N_18
REMARK    2  A    between atoms: C_5  and  S_7
REMARK    3  A    between atoms: S_7  and  N_10
REMARK    4  A    between atoms: C_19  and  C_21
REMARK    5  A    between atoms: C_24  and  C_26
REMARK                            x       y       z     vdW  Elec       q    Type
REMARK                         _______ _______ _______ _____ _____    ______ ____
ROOT
ATOM      1  C   UNL     1      -0.036   3.829   0.187  0.00  0.00    +0.004 A 
ATOM      2  C   UNL     1      -1.227   3.129   0.200  0.00  0.00    +0.023 A 
ATOM      3  C   UNL     1      -1.223   1.753   0.012  0.00  0.00    +0.036 A 
ATOM      4  C   UNL     1      -0.021   1.084  -0.177  0.00  0.00    +0.052 A 
ATOM      5  C   UNL     1       1.166   1.790  -0.189  0.00  0.00    +0.114 A 
ATOM      6  C   UNL     1       1.159   3.161  -0.008  0.00  0.00    +0.029 A 
ENDROOT
BRANCH   3   7
ATOM      7  N   UNL     1      -2.427   1.042   0.019  0.00  0.00    -0.279 N 
ATOM      8  C   UNL     1      -2.465  -0.215   0.505  0.00  0.00    +0.284 C 
ATOM      9  O   UNL     1      -1.475  -0.696   1.026  0.00  0.00    -0.266 OA
ATOM     10  H   UNL     1      -3.235   1.453  -0.327  0.00  0.00    +0.155 HD
BRANCH   8  11
ATOM     11  C   UNL     1      -3.696  -1.001   0.407  0.00  0.00    +0.190 A 
ATOM     12  C   UNL     1      -3.870  -2.293   0.855  0.00  0.00    +0.055 A 
ATOM     13  C   UNL     1      -5.190  -2.648   0.562  0.00  0.00    +0.050 A 
ATOM     14  C   UNL     1      -5.767  -1.575  -0.056  0.00  0.00    +0.136 A 
ATOM     15  O   UNL     1      -4.858  -0.589  -0.144  0.00  0.00    -0.450 OA
BRANCH  14  16
ATOM     16  C   UNL     1      -7.158  -1.510  -0.547  0.00  0.00    +0.017 A 
ATOM     17  C   UNL     1      -8.005  -2.610  -0.400  0.00  0.00    +0.014 A 
ATOM     18  C   UNL     1      -9.305  -2.542  -0.856  0.00  0.00    +0.039 A 
ATOM     19  C   UNL     1      -9.767  -1.388  -1.469  0.00  0.00    +0.123 A 
ATOM     20  C   UNL     1      -8.929  -0.294  -1.621  0.00  0.00    +0.039 A 
ATOM     21  C   UNL     1      -7.630  -0.349  -1.165  0.00  0.00    +0.014 A 
ATOM     22  F   UNL     1     -11.040  -1.329  -1.919  0.00  0.00    -0.205 F 
ENDBRANCH  14  16
ENDBRANCH   8  11
ENDBRANCH   3   7
BRANCH   5  23
ATOM     23  S   UNL     1       2.691   0.943  -0.437  0.00  0.00    +0.100 S 
ATOM     24  O   UNL     1       3.705   1.756   0.138  0.00  0.00    -0.146 OA
ATOM     25  O   UNL     1       2.478  -0.404  -0.038  0.00  0.00    -0.146 OA
BRANCH  23  26
ATOM     26  N   UNL     1       2.976   0.914  -2.068  0.00  0.00    -0.118 NA
ATOM     27  C   UNL     1       4.043   0.346  -2.528  0.00  0.00    +0.117 C 
ATOM     28  C   UNL     1       5.044  -0.294  -1.569  0.00  0.00    +0.073 C 
ATOM     29  C   UNL     1       4.960  -1.797  -1.777  0.00  0.00    +0.008 C 
ATOM     30  C   UNL     1       5.894  -2.312  -2.873  0.00  0.00    +0.002 C 
ATOM     31  C   UNL     1       5.904  -1.425  -4.119  0.00  0.00    +0.019 C 
ATOM     32  C   UNL     1       4.524  -0.958  -4.529  0.00  0.00    +0.102 C 
ATOM     33  N   UNL     1       4.271   0.322  -3.827  0.00  0.00    -0.331 N 
ATOM     34  H   UNL     1       4.274   1.153  -4.328  0.00  0.00    +0.147 HD
ENDBRANCH  23  26
ENDBRANCH   5  23
TORSDOF 5
