REMARK  Name = ZINC33305477
REMARK  4 active torsions:
REMARK  status: ('A' for Active; 'I' for Inactive)
REMARK    1  A    between atoms: C_4  and  N_7
REMARK    2  A    between atoms: C_11  and  C_12
REMARK    3  A    between atoms: N_13  and  N_14
REMARK    4  A    between atoms: N_17  and  C_18
REMARK                            x       y       z     vdW  Elec       q    Type
REMARK                         _______ _______ _______ _____ _____    ______ ____
ROOT
ATOM      1  C   UNL     1       1.708   3.223   0.006  0.00  0.00    +0.156 C 
ATOM      2  N   UNL     1       2.973   3.519   0.073  0.00  0.00    -0.185 NA
ENDROOT
BRANCH   2   3
ATOM      3  N   UNL     1       3.932   2.498   0.071  0.00  0.00    -0.190 N 
ATOM      4  C   UNL     1       5.232   2.794   0.271  0.00  0.00    +0.323 C 
ATOM      5  O   UNL     1       6.065   1.908   0.270  0.00  0.00    -0.251 OA
ATOM      6  N   UNL     1       5.608   4.072   0.474  0.00  0.00    -0.268 N 
ATOM      7  H   UNL     1       3.625   1.455  -0.094  0.00  0.00    +0.179 HD
ATOM      8  H   UNL     1       4.867   4.882   0.401  0.00  0.00    +0.156 HD
BRANCH   6   9
ATOM      9  C   UNL     1       6.942   4.370   0.777  0.00  0.00    +0.035 A 
ATOM     10  C   UNL     1       7.242   5.411   1.645  0.00  0.00    +0.024 A 
ATOM     11  C   UNL     1       8.559   5.698   1.946  0.00  0.00    +0.017 A 
ATOM     12  C   UNL     1       9.579   4.957   1.375  0.00  0.00    +0.018 A 
ATOM     13  C   UNL     1       9.282   3.923   0.505  0.00  0.00    +0.017 A 
ATOM     14  C   UNL     1       7.967   3.627   0.205  0.00  0.00    +0.024 A 
ATOM     15 BR   UNL     1      11.381   5.359   1.785  0.00  0.00    -0.050 Br
ENDBRANCH   6   9
ENDBRANCH   2   3
BRANCH   1  20
ATOM     16  N   UNL     1      -0.033   1.399   0.276  0.00  0.00    -0.315 N 
ATOM     17  C   UNL     1      -0.065   0.131   0.779  0.00  0.00    +0.092 A 
ATOM     18  C   UNL     1       1.165  -0.186   1.239  0.00  0.00    +0.020 A 
ATOM     19  C   UNL     1       2.005   0.916   1.020  0.00  0.00    +0.029 A 
ATOM     20  C   UNL     1       1.243   1.894   0.419  0.00  0.00    +0.066 A 
BRANCH  16  24
ATOM     21  C   UNL     1      -3.252   3.424  -1.428  0.00  0.00    +0.000 A 
ATOM     22  C   UNL     1      -2.944   2.142  -1.846  0.00  0.00    +0.002 A 
ATOM     23  C   UNL     1      -1.877   1.469  -1.284  0.00  0.00    +0.026 A 
ATOM     24  C   UNL     1      -1.115   2.079  -0.297  0.00  0.00    +0.047 A 
ATOM     25  C   UNL     1      -1.431   3.364   0.125  0.00  0.00    +0.026 A 
ATOM     26  C   UNL     1      -2.495   4.034  -0.446  0.00  0.00    +0.002 A 
ENDBRANCH  16  24
ENDBRANCH   1  20
TORSDOF 4
