REMARK  Name = ZINC09439611
REMARK  11 active torsions:
REMARK  status: ('A' for Active; 'I' for Inactive)
REMARK    1  A    between atoms: C_1  and  C_2
REMARK    2  A    between atoms: C_2  and  N_3
REMARK    3  A    between atoms: C_4  and  C_28
REMARK    4  A    between atoms: C_7  and  S_8
REMARK    5  A    between atoms: S_8  and  C_9
REMARK    6  A    between atoms: C_9  and  C_10
REMARK    7  A    between atoms: C_11  and  C_23
REMARK    8  A    between atoms: C_12  and  C_18
REMARK    9  A    between atoms: C_23  and  O_25
REMARK   10  A    between atoms: O_25  and  C_26
REMARK   11  A    between atoms: C_26  and  C_27
REMARK                            x       y       z     vdW  Elec       q    Type
REMARK                         _______ _______ _______ _____ _____    ______ ____
ROOT
ATOM      1  C   UNL     1       2.155   3.571  -0.023  0.00  0.00    +0.034 C 
ATOM      2  C   UNL     1       2.297   4.205   1.161  0.00  0.00    +0.079 C 
ATOM      3  C   UNL     1       2.326   5.721   1.150  0.00  0.00    +0.150 C 
ATOM      4  N   UNL     1       2.196   6.381  -0.159  0.00  0.00    -0.288 N 
ATOM      5  C   UNL     1       2.061   5.610  -1.256  0.00  0.00    +0.304 C 
ATOM      6  O   UNL     1       1.953   6.146  -2.342  0.00  0.00    -0.252 OA
ATOM      7  N   UNL     1       2.047   4.273  -1.190  0.00  0.00    -0.272 N 
ATOM      8  H   UNL     1       2.208   7.348  -0.231  0.00  0.00    +0.151 HD
ATOM      9  H   UNL     1       1.950   3.774  -2.016  0.00  0.00    +0.156 HD
ENDROOT
BRANCH   3  10
ATOM     10  C   UNL     1       1.208   6.213   2.032  0.00  0.00    +0.015 A 
ATOM     11  C   UNL     1       1.262   6.658   3.311  0.00  0.00    +0.013 A 
ATOM     12  C   UNL     1       0.095   7.065   3.929  0.00  0.00    +0.008 A 
ATOM     13  C   UNL     1      -1.069   7.008   3.238  0.00  0.00    +0.045 A 
ATOM     14  S   UNL     1      -0.531   6.369   1.660  0.00  0.00    -0.099 S 
ENDBRANCH   3  10
BRANCH   2  15
ATOM     15  C   UNL     1       2.415   3.480   2.369  0.00  0.00    +0.339 C 
ATOM     16  O   UNL     1       3.508   3.326   2.882  0.00  0.00    -0.245 OA
BRANCH  15  17
ATOM     17  O   UNL     1       1.316   2.958   2.953  0.00  0.00    -0.462 OA
BRANCH  17  18
ATOM     18  C   UNL     1       1.510   2.238   4.172  0.00  0.00    +0.229 C 
ATOM     19  C   UNL     1       0.161   1.726   4.681  0.00  0.00    +0.048 C 
ENDBRANCH  17  18
ENDBRANCH  15  17
ENDBRANCH   2  15
BRANCH   1  20
ATOM     20  C   UNL     1       2.122   2.065  -0.058  0.00  0.00    +0.128 C 
BRANCH  20  21
ATOM     21  S   UNL     1       0.420   1.505  -0.320  0.00  0.00    -0.080 S 
BRANCH  21  26
ATOM     22  N   UNL     1      -0.295  -1.195  -0.479  0.00  0.00    -0.302 N 
ATOM     23  C   UNL     1       0.364  -2.402  -0.407  0.00  0.00    +0.171 A 
ATOM     24  N   UNL     1       1.637  -2.134  -0.214  0.00  0.00    -0.128 NA
ATOM     25  N   UNL     1       1.815  -0.863  -0.167  0.00  0.00    -0.122 NA
ATOM     26  C   UNL     1       0.668  -0.239  -0.318  0.00  0.00    +0.192 A 
BRANCH  23  27
ATOM     27  C   UNL     1      -0.241  -3.739  -0.523  0.00  0.00    +0.056 A 
ATOM     28  C   UNL     1       0.368  -4.948  -0.742  0.00  0.00    +0.019 A 
ATOM     29  C   UNL     1      -0.413  -6.080  -0.809  0.00  0.00    +0.008 A 
ATOM     30  C   UNL     1      -1.759  -5.964  -0.669  0.00  0.00    +0.046 A 
ATOM     31  S   UNL     1      -1.961  -4.207  -0.423  0.00  0.00    -0.094 S 
ENDBRANCH  23  27
BRANCH  22  33
ATOM     32  C   UNL     1      -2.019  -0.876  -2.185  0.00  0.00    +0.027 C 
ATOM     33  C   UNL     1      -1.730  -0.981  -0.686  0.00  0.00    +0.122 C 
ENDBRANCH  22  33
ENDBRANCH  21  26
ENDBRANCH  20  21
ENDBRANCH   1  20
TORSDOF 9
