REMARK  Name = ZINC12659157
REMARK  15 active torsions:
REMARK  status: ('A' for Active; 'I' for Inactive)
REMARK    1  A    between atoms: C_2  and  C_43
REMARK    2  A    between atoms: C_4  and  N_40
REMARK    3  A    between atoms: C_6  and  N_7
REMARK    4  A    between atoms: N_7  and  C_8
REMARK    5  A    between atoms: C_10  and  O_39
REMARK    6  A    between atoms: C_12  and  O_38
REMARK    7  A    between atoms: C_14  and  O_21
REMARK    8  A    between atoms: C_16  and  C_19
REMARK    9  A    between atoms: C_19  and  O_20
REMARK   10  A    between atoms: O_21  and  C_22
REMARK   11  A    between atoms: C_24  and  O_37
REMARK   12  A    between atoms: C_26  and  O_36
REMARK   13  A    between atoms: C_28  and  O_35
REMARK   14  A    between atoms: C_30  and  C_33
REMARK   15  A    between atoms: C_33  and  O_34
REMARK                            x       y       z     vdW  Elec       q    Type
REMARK                         _______ _______ _______ _____ _____    ______ ____
ROOT
ATOM      1  C   UNL     1       3.651   1.857  -0.133  0.00  0.00    +0.235 C 
ATOM      2  C   UNL     1       4.561   1.171  -1.156  0.00  0.00    +0.192 C 
ATOM      3  C   UNL     1       4.905  -0.237  -0.659  0.00  0.00    +0.178 C 
ATOM      4  C   UNL     1       5.559  -0.132   0.723  0.00  0.00    +0.183 C 
ATOM      5  C   UNL     1       4.611   0.604   1.673  0.00  0.00    +0.177 C 
ATOM      6  O   UNL     1       4.307   1.893   1.136  0.00  0.00    -0.348 OA
ENDROOT
BRANCH   1   7
ATOM      7  N   UNL     1       2.398   1.108  -0.015  0.00  0.00    -0.317 N 
ATOM      8  H   UNL     1       2.408   0.138  -0.033  0.00  0.00    +0.149 HD
BRANCH   7  14
ATOM      9  C   UNL     1       1.183   3.166   0.301  0.00  0.00    +0.038 A 
ATOM     10  C   UNL     1      -0.029   3.842   0.446  0.00  0.00    +0.067 A 
ATOM     11  C   UNL     1      -1.230   3.131   0.400  0.00  0.00    +0.048 A 
ATOM     12  C   UNL     1      -1.215   1.762   0.225  0.00  0.00    +0.129 A 
ATOM     13  C   UNL     1      -0.014   1.091   0.087  0.00  0.00    +0.055 A 
ATOM     14  C   UNL     1       1.187   1.791   0.125  0.00  0.00    +0.032 A 
BRANCH  12  15
ATOM     15  N   UNL     1      -2.489   1.010   0.183  0.00  0.00    +0.057 N 
ATOM     16  O   UNL     1      -2.478  -0.198   0.028  0.00  0.00    -0.126 OA
ATOM     17  O   UNL     1      -3.548   1.599   0.304  0.00  0.00    -0.126 OA
ENDBRANCH  12  15
BRANCH  10  18
ATOM     18  C   UNL     1      -0.042   5.307   0.640  0.00  0.00    +0.387 C 
ATOM     19  O   UNL     1       1.004   5.924   0.675  0.00  0.00    -0.241 OA
ATOM     20  O   UNL     1      -1.213   5.958   0.780  0.00  0.00    -0.241 OA
ENDBRANCH  10  18
ENDBRANCH   7  14
ENDBRANCH   1   7
BRANCH   3  21
ATOM     21  O   UNL     1       3.711  -1.016  -0.565  0.00  0.00    -0.386 OA
ATOM     22  H   UNL     1       3.241  -1.117  -1.404  0.00  0.00    +0.210 HD
ENDBRANCH   3  21
BRANCH   2  23
ATOM     23  O   UNL     1       3.885   1.083  -2.412  0.00  0.00    -0.385 OA
ATOM     24  H   UNL     1       3.634   1.939  -2.784  0.00  0.00    +0.210 HD
ENDBRANCH   2  23
BRANCH   5  25
ATOM     25  C   UNL     1       5.281   0.765   3.039  0.00  0.00    +0.190 C 
BRANCH  25  26
ATOM     26  O   UNL     1       4.354   1.347   3.958  0.00  0.00    -0.392 OA
ATOM     27  H   UNL     1       4.713   1.479   4.847  0.00  0.00    +0.210 HD
ENDBRANCH  25  26
ENDBRANCH   5  25
BRANCH   4  28
ATOM     28  O   UNL     1       6.786   0.592   0.617  0.00  0.00    -0.340 OA
BRANCH  28  29
ATOM     29  C   UNL     1       7.925  -0.231   0.355  0.00  0.00    +0.282 C 
ATOM     30  C   UNL     1       9.201   0.601   0.509  0.00  0.00    +0.201 C 
ATOM     31  C   UNL     1      10.414  -0.271   0.169  0.00  0.00    +0.179 C 
ATOM     32  C   UNL     1      10.248  -0.825  -1.250  0.00  0.00    +0.177 C 
ATOM     33  C   UNL     1       8.932  -1.602  -1.335  0.00  0.00    +0.178 C 
ATOM     34  O   UNL     1       7.848  -0.741  -0.977  0.00  0.00    -0.341 OA
BRANCH  32  35
ATOM     35  O   UNL     1      10.227   0.255  -2.185  0.00  0.00    -0.386 OA
ATOM     36  H   UNL     1      11.030   0.794  -2.182  0.00  0.00    +0.210 HD
ENDBRANCH  32  35
BRANCH  31  37
ATOM     37  O   UNL     1      10.501  -1.352   1.099  0.00  0.00    -0.386 OA
ATOM     38  H   UNL     1      10.601  -1.072   2.019  0.00  0.00    +0.210 HD
ENDBRANCH  31  37
BRANCH  30  39
ATOM     39  O   UNL     1       9.310   1.065   1.856  0.00  0.00    -0.384 OA
ATOM     40  H   UNL     1       8.571   1.621   2.142  0.00  0.00    +0.210 HD
ENDBRANCH  30  39
BRANCH  33  41
ATOM     41  C   UNL     1       8.730  -2.108  -2.765  0.00  0.00    +0.190 C 
BRANCH  41  42
ATOM     42  O   UNL     1       7.562  -2.929  -2.819  0.00  0.00    -0.392 OA
ATOM     43  H   UNL     1       7.372  -3.286  -3.698  0.00  0.00    +0.210 HD
ENDBRANCH  41  42
ENDBRANCH  33  41
ENDBRANCH  28  29
ENDBRANCH   4  28
TORSDOF 15
