REMARK  Name = ZINC33840683
REMARK  2 active torsions:
REMARK  status: ('A' for Active; 'I' for Inactive)
REMARK    1  A    between atoms: C_3  and  C_8
REMARK    2  A    between atoms: C_9  and  C_10
REMARK                            x       y       z     vdW  Elec       q    Type
REMARK                         _______ _______ _______ _____ _____    ______ ____
ROOT
ATOM      1  C   UNL     1       5.728   2.650  -1.351  0.00  0.00    +0.027 C 
ATOM      2  C   UNL     1       4.510   1.727  -1.278  0.00  0.00    +0.012 C 
ATOM      3  C   UNL     1       3.704   2.085  -0.022  0.00  0.00    +0.016 C 
ATOM      4  C   UNL     1       4.531   1.714   1.211  0.00  0.00    +0.034 C 
ATOM      5  C   UNL     1       5.924   2.261   1.081  0.00  0.00    -0.030 C 
ATOM      6  C   UNL     1       6.445   2.665  -0.033  0.00  0.00    -0.031 C 
ENDROOT
BRANCH   3   7
ATOM      7  C   UNL     1       2.409   1.313  -0.014  0.00  0.00    -0.016 C 
ATOM      8  C   UNL     1       1.248   1.963   0.001  0.00  0.00    +0.092 C 
BRANCH   8   9
ATOM      9  C   UNL     1      -0.014   1.211   0.009  0.00  0.00    +0.379 C 
ATOM     10  O   UNL     1       0.002  -0.004   0.002  0.00  0.00    -0.241 OA
ATOM     11  O   UNL     1      -1.191   1.869   0.018  0.00  0.00    -0.241 OA
ENDBRANCH   8   9
ENDBRANCH   3   7
TORSDOF 2
