REMARK  Name = ZINC35640887
REMARK  11 active torsions:
REMARK  status: ('A' for Active; 'I' for Inactive)
REMARK    1  A    between atoms: C_1  and  C_2
REMARK    2  A    between atoms: C_2  and  O_3
REMARK    3  A    between atoms: O_3  and  C_4
REMARK    4  A    between atoms: C_4  and  C_6
REMARK    5  A    between atoms: C_7  and  C_25
REMARK    6  A    between atoms: N_8  and  C_22
REMARK    7  A    between atoms: C_12  and  C_14
REMARK    8  A    between atoms: C_22  and  C_23
REMARK    9  A    between atoms: C_25  and  N_26
REMARK   10  A    between atoms: N_26  and  C_27
REMARK   11  A    between atoms: N_26  and  C_28
REMARK                            x       y       z     vdW  Elec       q    Type
REMARK                         _______ _______ _______ _____ _____    ______ ____
ROOT
ATOM      1  C   UNL     1      -2.253  -2.359  -0.084  0.00  0.00    +0.076 C 
ATOM      2  C   UNL     1      -2.691  -3.624  -0.265  0.00  0.00    +0.011 C 
ATOM      3  N   UNL     1      -4.020  -3.894  -0.419  0.00  0.00    -0.257 N 
ATOM      4  C   UNL     1      -4.975  -2.955  -0.405  0.00  0.00    +0.307 C 
ATOM      5  O   UNL     1      -6.134  -3.293  -0.551  0.00  0.00    -0.252 OA
ATOM      6  N   UNL     1      -4.694  -1.649  -0.234  0.00  0.00    -0.288 N 
ATOM      7  C   UNL     1      -3.287  -1.253  -0.052  0.00  0.00    +0.143 C 
ATOM      8  H   UNL     1      -5.401  -0.985  -0.228  0.00  0.00    +0.151 HD
ENDROOT
BRANCH   7   9
ATOM      9  C   UNL     1      -3.167  -0.542   1.271  0.00  0.00    -0.021 A 
ATOM     10  C   UNL     1      -3.735  -1.093   2.405  0.00  0.00    +0.007 A 
ATOM     11  C   UNL     1      -3.626  -0.442   3.619  0.00  0.00    +0.022 A 
ATOM     12  C   UNL     1      -2.947   0.761   3.701  0.00  0.00    +0.059 A 
ATOM     13  C   UNL     1      -2.377   1.312   2.566  0.00  0.00    +0.060 A 
ATOM     14  C   UNL     1      -2.483   0.656   1.352  0.00  0.00    +0.027 A 
ATOM     15 CL   UNL     1      -1.526   2.821   2.667  0.00  0.00    -0.082 Cl
ATOM     16 CL   UNL     1      -2.810   1.579   5.226  0.00  0.00    -0.082 Cl
ENDBRANCH   7   9
BRANCH   1  17
ATOM     17  C   UNL     1      -0.876  -2.078   0.076  0.00  0.00    +0.339 C 
ATOM     18  O   UNL     1      -0.074  -2.990   0.159  0.00  0.00    -0.245 OA
BRANCH  17  19
ATOM     19  O   UNL     1      -0.451  -0.799   0.137  0.00  0.00    -0.462 OA
BRANCH  19  21
ATOM     20  C   UNL     1       1.242   0.913   0.348  0.00  0.00    +0.048 C 
ATOM     21  C   UNL     1       0.953  -0.589   0.300  0.00  0.00    +0.229 C 
ENDBRANCH  19  21
ENDBRANCH  17  19
ENDBRANCH   1  17
BRANCH   3  22
ATOM     22  C   UNL     1      -4.425  -5.289  -0.612  0.00  0.00    +0.141 C 
BRANCH  22  23
ATOM     23  C   UNL     1      -4.787  -5.895   0.720  0.00  0.00    -0.015 C 
ATOM     24  C   UNL     1      -5.959  -6.457   0.886  0.00  0.00    +0.005 C 
ENDBRANCH  22  23
ENDBRANCH   3  22
BRANCH   2  25
ATOM     25  C   UNL     1      -1.696  -4.755  -0.298  0.00  0.00    -0.026 C 
BRANCH  25  26
ATOM     26  N   UNL     1      -1.306  -5.024  -1.688  0.00  0.00    +0.383 N 
ATOM     27  C   UNL     1      -0.619  -3.849  -2.241  0.00  0.00    -0.095 C 
ATOM     28  H   UNL     1      -2.130  -5.221  -2.237  0.00  0.00    -0.081 HD
BRANCH  26  29
ATOM     29  C   UNL     1      -0.403  -6.182  -1.729  0.00  0.00    -0.068 C 
ATOM     30  C   UNL     1       0.003  -6.463  -3.177  0.00  0.00    -0.015 C 
ATOM     31  C   UNL     1       0.944  -7.669  -3.219  0.00  0.00    -0.002 C 
ATOM     32  C   UNL     1       0.229  -8.893  -2.644  0.00  0.00    -0.000 C 
ATOM     33  C   UNL     1      -0.177  -8.613  -1.195  0.00  0.00    -0.002 C 
ATOM     34  C   UNL     1      -1.118  -7.407  -1.154  0.00  0.00    -0.015 C 
ENDBRANCH  26  29
ENDBRANCH  25  26
ENDBRANCH   2  25
TORSDOF 9
