REMARK  Name = ZINC19854046
REMARK  5 active torsions:
REMARK  status: ('A' for Active; 'I' for Inactive)
REMARK    1  A    between atoms: C_3  and  C_6
REMARK    2  A    between atoms: C_12  and  C_13
REMARK    3  A    between atoms: C_16  and  O_20
REMARK    4  A    between atoms: O_20  and  C_21
REMARK    5  A    between atoms: C_21  and  C_23
REMARK                            x       y       z     vdW  Elec       q    Type
REMARK                         _______ _______ _______ _____ _____    ______ ____
ROOT
ATOM      1  C   UNL     1       9.493  10.965  -4.677  0.00  0.00    +0.165 C 
ATOM      2  N   UNL     1       9.142   9.745  -4.336  0.00  0.00    -0.161 NA
ATOM      3  N   UNL     1       8.035   9.521  -3.546  0.00  0.00    -0.151 N 
ATOM      4  C   UNL     1       7.530   8.254  -3.181  0.00  0.00    +0.153 C 
ATOM      5  N   UNL     1       7.784   7.161  -3.849  0.00  0.00    -0.283 NA
ATOM      6  C   UNL     1       6.678   8.286  -1.958  0.00  0.00    +0.081 C 
ATOM      7  C   UNL     1       6.637   7.232  -1.075  0.00  0.00    +0.024 C 
ATOM      8  C   UNL     1       5.875   9.517  -1.746  0.00  0.00    +0.273 C 
ATOM      9  O   UNL     1       4.845   9.490  -1.092  0.00  0.00    -0.268 OA
ATOM     10  N   UNL     1       6.319  10.664  -2.295  0.00  0.00    -0.152 NA
ATOM     11  C   UNL     1       7.353  10.632  -3.098  0.00  0.00    +0.181 C 
ATOM     12  S   UNL     1       8.256  11.958  -3.853  0.00  0.00    -0.030 S 
ATOM     13  H   UNL     1       7.361   6.202  -3.516  0.00  0.00    +0.188 HD
ENDROOT
BRANCH   7  14
ATOM     14  C   UNL     1       7.575   6.117  -1.221  0.00  0.00    -0.023 A 
ATOM     15  C   UNL     1       7.187   4.818  -0.862  0.00  0.00    +0.011 A 
ATOM     16  C   UNL     1       8.071   3.773  -1.007  0.00  0.00    +0.048 A 
ATOM     17  C   UNL     1       9.351   4.005  -1.498  0.00  0.00    +0.150 A 
ATOM     18  C   UNL     1       9.745   5.292  -1.851  0.00  0.00    +0.084 A 
ATOM     19  C   UNL     1       8.867   6.344  -1.716  0.00  0.00    +0.031 A 
ATOM     20 CL   UNL     1      11.345   5.571  -2.464  0.00  0.00    -0.080 Cl
BRANCH  17  21
ATOM     21  O   UNL     1      10.220   2.971  -1.633  0.00  0.00    -0.421 OA
BRANCH  21  22
ATOM     22  C   UNL     1      11.131   2.805  -0.654  0.00  0.00    +0.344 C 
ATOM     23  O   UNL     1      11.088   3.502   0.340  0.00  0.00    -0.245 OA
BRANCH  22  24
ATOM     24  C   UNL     1      12.181   1.777  -0.789  0.00  0.00    +0.060 A 
ATOM     25  C   UNL     1      12.229   0.970  -1.929  0.00  0.00    +0.018 A 
ATOM     26  C   UNL     1      13.216   0.016  -2.053  0.00  0.00    +0.039 A 
ATOM     27  C   UNL     1      14.152  -0.153  -1.044  0.00  0.00    +0.123 A 
ATOM     28  C   UNL     1      14.105   0.641   0.092  0.00  0.00    +0.039 A 
ATOM     29  C   UNL     1      13.127   1.603   0.224  0.00  0.00    +0.018 A 
ATOM     30  F   UNL     1      15.113  -1.094  -1.168  0.00  0.00    -0.205 F 
ENDBRANCH  22  24
ENDBRANCH  21  22
ENDBRANCH  17  21
ENDBRANCH   7  14
BRANCH   1  33
ATOM     31  C   UNL     1      12.077  12.643  -6.648  0.00  0.00    +0.042 A 
ATOM     32  C   UNL     1      10.929  12.690  -5.834  0.00  0.00    +0.052 A 
ATOM     33  C   UNL     1      10.619  11.402  -5.518  0.00  0.00    +0.161 A 
ATOM     34  O   UNL     1      11.525  10.597  -6.108  0.00  0.00    -0.461 OA
ATOM     35  C   UNL     1      12.405  11.343  -6.794  0.00  0.00    +0.196 A 
ENDBRANCH   1  33
TORSDOF 5
