REMARK  Name = ZINC23353844
REMARK  8 active torsions:
REMARK  status: ('A' for Active; 'I' for Inactive)
REMARK    1  A    between atoms: C_1  and  C_2
REMARK    2  A    between atoms: C_2  and  C_3
REMARK    3  A    between atoms: C_3  and  N_4
REMARK    4  A    between atoms: C_7  and  C_9
REMARK    5  A    between atoms: C_18  and  N_22
REMARK    6  A    between atoms: N_22  and  C_23
REMARK    7  A    between atoms: C_23  and  C_24
REMARK    8  A    between atoms: C_24  and  N_30
REMARK                            x       y       z     vdW  Elec       q    Type
REMARK                         _______ _______ _______ _____ _____    ______ ____
ROOT
ATOM      1  N   UNL     1      -0.050  -2.615  -1.780  0.00  0.00    -0.267 N 
ATOM      2  C   UNL     1       1.128  -3.088  -1.340  0.00  0.00    +0.043 A 
ATOM      3  C   UNL     1       1.194  -4.395  -1.696  0.00  0.00    +0.004 A 
ATOM      4  C   UNL     1      -0.007  -4.673  -2.369  0.00  0.00    +0.151 A 
ATOM      5  N   UNL     1      -0.706  -3.551  -2.375  0.00  0.00    -0.166 NA
ATOM      6  C   UNL     1       2.355  -5.303  -1.398  0.00  0.00    +0.023 C 
ATOM      7  C   UNL     1       3.562  -4.434  -1.018  0.00  0.00    -0.067 C 
ATOM      8  C   UNL     1       3.143  -3.413   0.044  0.00  0.00    -0.009 C 
ATOM      9  C   UNL     1       2.215  -2.366  -0.586  0.00  0.00    +0.054 C 
ENDROOT
BRANCH   4  10
ATOM     10  C   UNL     1      -0.412  -5.968  -2.951  0.00  0.00    +0.267 C 
ATOM     11  O   UNL     1       0.277  -6.955  -2.779  0.00  0.00    -0.268 OA
ATOM     12  N   UNL     1      -1.546  -6.057  -3.674  0.00  0.00    -0.296 N 
ATOM     13  C   UNL     1      -2.308  -4.850  -4.023  0.00  0.00    +0.108 C 
ATOM     14  C   UNL     1      -2.522  -4.824  -5.540  0.00  0.00    +0.019 C 
ATOM     15  C   UNL     1      -3.182  -6.133  -5.980  0.00  0.00    +0.003 C 
ATOM     16  C   UNL     1      -2.263  -7.309  -5.642  0.00  0.00    +0.019 C 
ATOM     17  C   UNL     1      -2.042  -7.362  -4.132  0.00  0.00    +0.108 C 
ENDBRANCH   4  10
BRANCH   7  18
ATOM     18  N   UNL     1       4.630  -5.288  -0.481  0.00  0.00    +0.382 N 
ATOM     19  H   UNL     1       4.322  -5.709   0.382  0.00  0.00    -0.085 HD
ATOM     20  H   UNL     1       4.850  -6.011  -1.149  0.00  0.00    -0.085 HD
BRANCH  18  21
ATOM     21  C   UNL     1       5.827  -4.474  -0.229  0.00  0.00    -0.060 C 
BRANCH  21  22
ATOM     22  C   UNL     1       6.984  -5.384   0.188  0.00  0.00    +0.007 C 
ATOM     23  C   UNL     1       8.176  -4.528   0.621  0.00  0.00    +0.020 C 
ATOM     24  C   UNL     1       8.618  -3.643  -0.546  0.00  0.00    +0.002 C 
ATOM     25  C   UNL     1       9.026  -4.524  -1.729  0.00  0.00    +0.000 C 
ATOM     26  C   UNL     1       7.834  -5.380  -2.161  0.00  0.00    +0.002 C 
ATOM     27  C   UNL     1       7.391  -6.265  -0.995  0.00  0.00    +0.020 C 
BRANCH  22  28
ATOM     28  N   UNL     1       6.559  -6.234   1.308  0.00  0.00    -0.294 NA
ATOM     29  C   UNL     1       6.126  -5.420   2.453  0.00  0.00    +0.113 C 
ATOM     30  C   UNL     1       5.637  -6.342   3.573  0.00  0.00    +0.175 C 
ATOM     31  O   UNL     1       6.681  -7.255   3.922  0.00  0.00    -0.377 OA
ATOM     32  C   UNL     1       7.127  -8.065   2.830  0.00  0.00    +0.175 C 
ATOM     33  C   UNL     1       7.631  -7.160   1.703  0.00  0.00    +0.113 C 
ENDBRANCH  22  28
ENDBRANCH  21  22
ENDBRANCH  18  21
ENDBRANCH   7  18
BRANCH   1  34
ATOM     34  C   UNL     1      -0.521  -1.239  -1.606  0.00  0.00    +0.143 C 
BRANCH  34  36
ATOM     35  C   UNL     1      -1.787   0.308  -0.108  0.00  0.00    +0.005 C 
ATOM     36  C   UNL     1      -1.295  -1.129  -0.291  0.00  0.00    +0.020 C 
ENDBRANCH  34  36
ENDBRANCH   1  34
TORSDOF 7
