REMARK  Name = ZINC27575212
REMARK  9 active torsions:
REMARK  status: ('A' for Active; 'I' for Inactive)
REMARK    1  A    between atoms: C_1  and  C_2
REMARK    2  A    between atoms: N_5  and  C_8
REMARK    3  A    between atoms: C_8  and  C_10
REMARK    4  A    between atoms: C_8  and  C_27
REMARK    5  A    between atoms: C_10  and  N_11
REMARK    6  A    between atoms: C_12  and  C_14
REMARK    7  A    between atoms: C_14  and  C_15
REMARK    8  A    between atoms: C_15  and  N_16
REMARK    9  A    between atoms: C_17  and  C_19
REMARK                            x       y       z     vdW  Elec       q    Type
REMARK                         _______ _______ _______ _____ _____    ______ ____
ROOT
ATOM      1  N   UNL     1       4.908   0.722  -0.280  0.00  0.00    -0.316 N 
ATOM      2  C   UNL     1       3.698   1.311  -0.345  0.00  0.00    +0.214 C 
ATOM      3  O   UNL     1       3.605   2.518  -0.261  0.00  0.00    -0.276 OA
ATOM      4  H   UNL     1       4.992  -0.372  -0.356  0.00  0.00    +0.149 HD
ENDROOT
BRANCH   1   5
ATOM      5  C   UNL     1       6.112   1.539  -0.107  0.00  0.00    +0.094 C 
BRANCH   5   6
ATOM      6  C   UNL     1       7.328   0.626   0.061  0.00  0.00    -0.013 C 
BRANCH   6  11
ATOM      7  C   UNL     1       7.110  -2.462   4.866  0.00  0.00    +0.007 C 
ATOM      8  C   UNL     1       7.487  -1.417   3.814  0.00  0.00    -0.018 C 
ATOM      9  C   UNL     1       6.257  -0.575   3.465  0.00  0.00    -0.015 C 
ATOM     10  C   UNL     1       6.624   0.427   2.369  0.00  0.00    -0.078 C 
ATOM     11  N   UNL     1       7.097  -0.296   1.181  0.00  0.00    +0.386 N 
ATOM     12  C   UNL     1       8.306  -1.074   1.480  0.00  0.00    -0.078 C 
ATOM     13  C   UNL     1       7.988  -2.122   2.550  0.00  0.00    -0.015 C 
ATOM     14  H   UNL     1       6.308  -1.002   0.883  0.00  0.00    -0.081 HD
ENDBRANCH   6  11
BRANCH   6  15
ATOM     15  C   UNL     1       8.549   1.463   0.343  0.00  0.00    -0.022 A 
ATOM     16  C   UNL     1       9.535   1.846  -0.505  0.00  0.00    +0.009 A 
ATOM     17  C   UNL     1      10.569   2.625  -0.022  0.00  0.00    +0.008 A 
ATOM     18  C   UNL     1      10.572   2.975   1.288  0.00  0.00    +0.045 A 
ATOM     19  S   UNL     1       9.077   2.200   1.880  0.00  0.00    -0.103 S 
ENDBRANCH   6  15
ENDBRANCH   5   6
ENDBRANCH   1   5
BRANCH   2  20
ATOM     20  C   UNL     1       2.459   0.471  -0.523  0.00  0.00    +0.114 C 
BRANCH  20  21
ATOM     21  C   UNL     1       1.229   1.379  -0.566  0.00  0.00    +0.113 C 
BRANCH  21  22
ATOM     22  N   UNL     1       0.025   0.562  -0.739  0.00  0.00    -0.311 N 
ATOM     23  C   UNL     1      -1.185   1.152  -0.810  0.00  0.00    +0.247 C 
ATOM     24  O   UNL     1      -1.278   2.361  -0.726  0.00  0.00    -0.270 OA
ATOM     25  H   UNL     1       0.108  -0.532  -0.811  0.00  0.00    +0.149 HD
BRANCH  23  26
ATOM     26  C   UNL     1      -2.397   0.330  -0.990  0.00  0.00    +0.072 A 
ATOM     27  C   UNL     1      -2.294  -1.060  -1.087  0.00  0.00    +0.019 A 
ATOM     28  C   UNL     1      -3.428  -1.823  -1.255  0.00  0.00    +0.039 A 
ATOM     29  C   UNL     1      -4.673  -1.216  -1.327  0.00  0.00    +0.126 A 
ATOM     30  C   UNL     1      -4.785   0.162  -1.232  0.00  0.00    +0.077 A 
ATOM     31  C   UNL     1      -3.655   0.938  -1.059  0.00  0.00    +0.138 A 
ATOM     32  F   UNL     1      -3.764   2.281  -0.960  0.00  0.00    -0.205 F 
ATOM     33  F   UNL     1      -5.782  -1.970  -1.492  0.00  0.00    -0.205 F 
ENDBRANCH  23  26
ENDBRANCH  21  22
ENDBRANCH  20  21
ENDBRANCH   2  20
TORSDOF 8
