REMARK  Name = ZINC39707117
REMARK  10 active torsions:
REMARK  status: ('A' for Active; 'I' for Inactive)
REMARK    1  A    between atoms: C_1  and  O_2
REMARK    2  A    between atoms: O_2  and  C_3
REMARK    3  A    between atoms: C_3  and  C_5
REMARK    4  A    between atoms: C_5  and  C_7
REMARK    5  A    between atoms: C_5  and  N_17
REMARK    6  A    between atoms: C_7  and  C_8
REMARK    7  A    between atoms: C_18  and  C_20
REMARK    8  A    between atoms: C_20  and  C_22
REMARK    9  A    between atoms: N_25  and  C_32
REMARK   10  A    between atoms: C_32  and  C_33
REMARK                            x       y       z     vdW  Elec       q    Type
REMARK                         _______ _______ _______ _____ _____    ______ ____
ROOT
ATOM      1  C   UNL     1      -4.729  -3.121   1.193  0.00  0.00    +0.226 C 
ATOM      2  O   UNL     1      -5.289  -3.382   0.155  0.00  0.00    -0.286 OA
ENDROOT
BRANCH   1   3
ATOM      3  C   UNL     1      -5.470  -3.243   2.500  0.00  0.00    +0.114 C 
ATOM      4  C   UNL     1      -6.986  -3.135   2.269  0.00  0.00    +0.122 C 
ATOM      5  N   UNL     1      -7.537  -4.413   2.728  0.00  0.00    -0.320 N 
ATOM      6  C   UNL     1      -6.511  -5.237   3.193  0.00  0.00    +0.034 A 
ATOM      7  C   UNL     1      -5.271  -4.620   3.093  0.00  0.00    -0.014 A 
ATOM      8  C   UNL     1      -4.125  -5.272   3.504  0.00  0.00    +0.006 A 
ATOM      9  C   UNL     1      -4.203  -6.551   4.023  0.00  0.00    +0.000 A 
ATOM     10  C   UNL     1      -5.431  -7.177   4.129  0.00  0.00    +0.002 A 
ATOM     11  C   UNL     1      -6.584  -6.530   3.717  0.00  0.00    +0.023 A 
BRANCH   5  12
ATOM     12  C   UNL     1      -8.957  -4.773   2.702  0.00  0.00    +0.201 C 
BRANCH  12  13
ATOM     13  C   UNL     1      -9.283  -5.434   1.387  0.00  0.00    +0.233 C 
ATOM     14  O   UNL     1      -8.415  -5.589   0.554  0.00  0.00    -0.274 OA
ATOM     15  N   UNL     1     -10.540  -5.853   1.137  0.00  0.00    -0.300 N 
ATOM     16  C   UNL     1     -11.553  -5.648   2.148  0.00  0.00    +0.108 C 
ATOM     17  C   UNL     1     -11.586  -6.866   3.104  0.00  0.00    +0.019 C 
ATOM     18  C   UNL     1     -12.156  -8.037   2.420  0.00  0.00    +0.002 C 
ATOM     19  C   UNL     1     -11.345  -8.520   1.221  0.00  0.00    +0.002 C 
ATOM     20  C   UNL     1     -11.740  -7.729  -0.002  0.00  0.00    +0.019 C 
ATOM     21  C   UNL     1     -10.826  -6.496  -0.160  0.00  0.00    +0.108 C 
ENDBRANCH  12  13
ENDBRANCH   5  12
ENDBRANCH   1   3
BRANCH   1  23
ATOM     22  N   UNL     1      -2.643  -2.570   0.013  0.00  0.00    -0.296 N 
ATOM     23  C   UNL     1      -3.306  -2.679   1.182  0.00  0.00    +0.281 C 
ATOM     24  O   UNL     1      -2.743  -2.417   2.225  0.00  0.00    -0.267 OA
ATOM     25  H   UNL     1      -3.092  -2.779  -0.820  0.00  0.00    +0.150 HD
BRANCH  22  26
ATOM     26  C   UNL     1      -1.244  -2.135   0.003  0.00  0.00    +0.186 C 
BRANCH  26  27
ATOM     27  C   UNL     1      -1.185  -0.630   0.010  0.00  0.00    +0.328 C 
ATOM     28  O   UNL     1      -2.208   0.015   0.023  0.00  0.00    -0.249 OA
BRANCH  27  30
ATOM     29  C   UNL     1      -0.017   1.425   0.010  0.00  0.00    +0.280 C 
ATOM     30  O   UNL     1       0.002  -0.004   0.002  0.00  0.00    -0.467 OA
ENDBRANCH  27  30
ENDBRANCH  26  27
BRANCH  26  31
ATOM     31  C   UNL     1      -0.555  -2.666  -1.256  0.00  0.00    +0.071 C 
BRANCH  31  32
ATOM     32  C   UNL     1      -0.505  -4.172  -1.204  0.00  0.00    -0.020 A 
ATOM     33  C   UNL     1      -1.561  -5.094  -1.629  0.00  0.00    +0.003 A 
ATOM     34  C   UNL     1      -2.837  -4.925  -2.168  0.00  0.00    +0.010 A 
ATOM     35  C   UNL     1      -3.598  -6.021  -2.466  0.00  0.00    +0.001 A 
ATOM     36  C   UNL     1      -3.112  -7.300  -2.236  0.00  0.00    +0.002 A 
ATOM     37  C   UNL     1      -1.855  -7.490  -1.704  0.00  0.00    +0.026 A 
ATOM     38  C   UNL     1      -1.063  -6.389  -1.394  0.00  0.00    +0.047 A 
ATOM     39  N   UNL     1       0.201  -6.249  -0.866  0.00  0.00    -0.360 N 
ATOM     40  C   UNL     1       0.519  -4.922  -0.766  0.00  0.00    +0.087 A 
ATOM     41  H   UNL     1       0.781  -6.982  -0.608  0.00  0.00    +0.165 HD
ENDBRANCH  31  32
ENDBRANCH  26  31
ENDBRANCH  22  26
ENDBRANCH   1  23
TORSDOF 9
