REMARK  Name = ZINC08229575
REMARK  7 active torsions:
REMARK  status: ('A' for Active; 'I' for Inactive)
REMARK    1  A    between atoms: C_1  and  C_2
REMARK    2  A    between atoms: C_2  and  C_3
REMARK    3  A    between atoms: C_2  and  C_4
REMARK    4  A    between atoms: C_4  and  C_6
REMARK    5  A    between atoms: C_4  and  N_16
REMARK    6  A    between atoms: C_17  and  C_19
REMARK    7  A    between atoms: C_19  and  C_20
REMARK                            x       y       z     vdW  Elec       q    Type
REMARK                         _______ _______ _______ _____ _____    ______ ____
ROOT
ATOM      1  N   UNL     1       1.034   9.266   1.706  0.00  0.00    -0.305 N 
ATOM      2  C   UNL     1       1.050   7.942   1.453  0.00  0.00    +0.218 C 
ATOM      3  O   UNL     1       1.069   7.149   2.371  0.00  0.00    -0.275 OA
ATOM      4  H   UNL     1       1.019   9.900   0.972  0.00  0.00    +0.149 HD
ENDROOT
BRANCH   1   5
ATOM      5  C   UNL     1       1.041   9.747   3.090  0.00  0.00    +0.141 C 
BRANCH   5   6
ATOM      6  C   UNL     1       0.422  11.120   3.147  0.00  0.00    +0.129 A 
ATOM      7  N   UNL     1      -0.152  11.761   2.093  0.00  0.00    -0.340 N 
ATOM      8  H   UNL     1      -0.235  11.410   1.160  0.00  0.00    +0.167 HD
ATOM      9  C   UNL     1      -0.597  12.985   2.550  0.00  0.00    +0.066 A 
ATOM     10  C   UNL     1      -1.249  14.059   1.958  0.00  0.00    +0.028 A 
ATOM     11  C   UNL     1      -1.562  15.168   2.714  0.00  0.00    +0.002 A 
ATOM     12  C   UNL     1      -1.230  15.218   4.061  0.00  0.00    +0.002 A 
ATOM     13  C   UNL     1      -0.589  14.171   4.660  0.00  0.00    +0.030 A 
ATOM     14  C   UNL     1      -0.261  13.036   3.913  0.00  0.00    +0.089 A 
ATOM     15  N   UNL     1       0.354  11.863   4.213  0.00  0.00    -0.231 NA
ENDBRANCH   5   6
BRANCH   5  17
ATOM     16  C   UNL     1       3.256  10.867   2.802  0.00  0.00    +0.009 C 
ATOM     17  C   UNL     1       2.482   9.816   3.599  0.00  0.00    +0.011 C 
ATOM     18  C   UNL     1       2.481  10.198   5.081  0.00  0.00    +0.009 C 
ENDBRANCH   5  17
ENDBRANCH   1   5
BRANCH   2  19
ATOM     19  C   UNL     1       1.044   7.447   0.030  0.00  0.00    +0.131 C 
BRANCH  19  20
ATOM     20  C   UNL     1       1.064   5.940   0.022  0.00  0.00    -0.038 A 
ATOM     21  C   UNL     1       2.286   5.270   0.008  0.00  0.00    +0.005 A 
ATOM     22  C   UNL     1       2.340   3.910  -0.000  0.00  0.00    +0.009 A 
ATOM     23  C   UNL     1       1.147   3.167   0.008  0.00  0.00    -0.018 A 
ATOM     24  C   UNL     1       1.163   1.762   0.000  0.00  0.00    +0.008 A 
ATOM     25  C   UNL     1      -0.013   1.076   0.008  0.00  0.00    +0.001 A 
ATOM     26  C   UNL     1      -1.235   1.746   0.017  0.00  0.00    +0.001 A 
ATOM     27  C   UNL     1      -1.288   3.106   0.030  0.00  0.00    +0.008 A 
ATOM     28  C   UNL     1      -0.096   3.849   0.023  0.00  0.00    -0.018 A 
ATOM     29  C   UNL     1      -0.111   5.254   0.030  0.00  0.00    +0.012 A 
ENDBRANCH  19  20
ENDBRANCH   2  19
TORSDOF 5
