REMARK  Name = ZINC12117295
REMARK  4 active torsions:
REMARK  status: ('A' for Active; 'I' for Inactive)
REMARK    1  A    between atoms: C_1  and  O_2
REMARK    2  A    between atoms: O_2  and  C_3
REMARK    3  A    between atoms: C_15  and  C_16
REMARK    4  A    between atoms: C_15  and  N_58
REMARK                            x       y       z     vdW  Elec       q    Type
REMARK                         _______ _______ _______ _____ _____    ______ ____
ROOT
ATOM      1  C   UNL     1       0.684   0.971   1.033  0.00  0.00    +0.122 A 
ATOM      2  C   UNL     1       1.915   1.612   1.012  0.00  0.00    +0.048 A 
ATOM      3  C   UNL     1       3.070   0.889   0.773  0.00  0.00    +0.031 A 
ATOM      4  C   UNL     1       2.994  -0.473   0.552  0.00  0.00    +0.067 A 
ATOM      5  C   UNL     1       1.759  -1.128   0.587  0.00  0.00    +0.055 A 
ATOM      6  C   UNL     1       0.605  -0.398   0.824  0.00  0.00    +0.070 A 
ATOM      7  N   UNL     1       1.694  -2.515   0.404  0.00  0.00    -0.331 N 
ATOM      8  C   UNL     1       2.706  -3.204  -0.407  0.00  0.00    +0.069 C 
ATOM      9  C   UNL     1       2.340  -3.100  -1.887  0.00  0.00    +0.013 C 
ATOM     10  C   UNL     1       1.014  -3.824  -2.134  0.00  0.00    -0.076 C 
ATOM     11  C   UNL     1       1.438  -5.352  -0.301  0.00  0.00    -0.076 C 
ATOM     12  C   UNL     1       2.777  -4.676   0.002  0.00  0.00    +0.013 C 
ATOM     13  C   UNL     1       4.038  -2.542  -0.161  0.00  0.00    +0.047 A 
ATOM     14  N   UNL     1       4.138  -1.239   0.273  0.00  0.00    -0.316 N 
ATOM     15  C   UNL     1       5.449  -0.916   0.376  0.00  0.00    +0.092 A 
ATOM     16  C   UNL     1       6.179  -2.002   0.035  0.00  0.00    +0.020 A 
ATOM     17  C   UNL     1       5.274  -3.033  -0.301  0.00  0.00    +0.025 A 
ATOM     18  H   UNL     1       0.976  -3.023   0.815  0.00  0.00    +0.147 HD
ATOM     19  N   UNL     1       1.164  -5.244  -1.750  0.00  0.00    +0.382 N 
ATOM     20  H   UNL     1       1.953  -5.647  -2.269  0.00  0.00    -0.081 HD
ENDROOT
BRANCH   1  22
ATOM     21  C   UNL     1      -0.297   3.094   1.461  0.00  0.00    +0.277 C 
ATOM     22  O   UNL     1      -0.449   1.688   1.253  0.00  0.00    -0.495 OA
ENDBRANCH   1  22
BRANCH  19  23
ATOM     23  C   UNL     1      -0.065  -5.990  -2.088  0.00  0.00    -0.044 C 
BRANCH  23  24
ATOM     24  C   UNL     1      -0.123  -6.174  -3.583  0.00  0.00    -0.049 C 
ATOM     25  C   UNL     1      -0.844  -5.339  -4.325  0.00  0.00    +0.012 C 
ATOM     26  C   UNL     1      -0.903  -5.570  -5.784  0.00  0.00    +0.017 A 
ATOM     27  C   UNL     1      -1.367  -4.592  -6.656  0.00  0.00    +0.011 A 
ATOM     28  C   UNL     1      -1.376  -4.839  -8.015  0.00  0.00    +0.001 A 
ATOM     29  C   UNL     1      -0.927  -6.053  -8.507  0.00  0.00    +0.004 A 
ATOM     30  C   UNL     1      -0.470  -7.035  -7.646  0.00  0.00    +0.046 A 
ATOM     31  C   UNL     1      -0.462  -6.803  -6.283  0.00  0.00    +0.128 A 
ATOM     32  O   UNL     1      -0.036  -7.752  -5.409  0.00  0.00    -0.487 OA
ATOM     33  C   UNL     1       0.631  -7.305  -4.229  0.00  0.00    +0.258 C 
ENDBRANCH  23  24
ENDBRANCH  19  23
TORSDOF 3
