REMARK  Name = ZINC63385196
REMARK  11 active torsions:
REMARK  status: ('A' for Active; 'I' for Inactive)
REMARK    1  A    between atoms: C_1  and  C_2
REMARK    2  A    between atoms: C_2  and  N_3
REMARK    3  A    between atoms: C_5  and  C_17
REMARK    4  A    between atoms: N_19  and  C_20
REMARK    5  A    between atoms: C_20  and  C_21
REMARK    6  A    between atoms: C_21  and  C_22
REMARK    7  A    between atoms: N_24  and  C_25
REMARK    8  A    between atoms: C_25  and  C_26
REMARK    9  A    between atoms: C_26  and  C_27
REMARK   10  A    between atoms: C_30  and  O_36
REMARK   11  A    between atoms: O_36  and  C_37
REMARK                            x       y       z     vdW  Elec       q    Type
REMARK                         _______ _______ _______ _____ _____    ______ ____
ROOT
ATOM      1  C   UNL     1      -2.990  -2.842   2.382  0.00  0.00    +0.245 C 
ATOM      2  O   UNL     1      -3.573  -3.910   2.329  0.00  0.00    -0.270 OA
ATOM      3  N   UNL     1      -2.540  -2.378   3.565  0.00  0.00    -0.311 N 
ATOM      4  H   UNL     1      -2.076  -1.527   3.607  0.00  0.00    +0.149 HD
ENDROOT
BRANCH   1   7
ATOM      5  N   UNL     1      -1.372  -0.511   0.012  0.00  0.00    -0.325 N 
ATOM      6  C   UNL     1      -2.065  -0.771   1.280  0.00  0.00    +0.149 C 
ATOM      7  C   UNL     1      -2.787  -2.092   1.208  0.00  0.00    +0.078 C 
ATOM      8  C   UNL     1      -3.244  -2.567   0.013  0.00  0.00    +0.198 C 
ATOM      9  O   UNL     1      -3.911  -3.743  -0.044  0.00  0.00    -0.287 OA
ATOM     10  C   UNL     1      -3.006  -1.787  -1.211  0.00  0.00    +0.047 A 
ATOM     11  C   UNL     1      -2.050  -0.751  -1.181  0.00  0.00    +0.045 A 
ATOM     12  C   UNL     1      -1.802  -0.002  -2.316  0.00  0.00    +0.073 A 
ATOM     13  C   UNL     1      -2.502  -0.266  -3.485  0.00  0.00    +0.168 A 
ATOM     14  C   UNL     1      -3.456  -1.286  -3.520  0.00  0.00    +0.167 A 
ATOM     15  C   UNL     1      -3.706  -2.052  -2.389  0.00  0.00    +0.063 A 
ATOM     16  O   UNL     1      -3.995  -1.333  -4.775  0.00  0.00    -0.453 OA
ATOM     17  C   UNL     1      -3.656  -0.074  -5.386  0.00  0.00    +0.466 C 
ATOM     18  O   UNL     1      -2.444   0.317  -4.716  0.00  0.00    -0.453 OA
BRANCH   5  20
ATOM     19  C   UNL     1      -0.019   1.526   0.010  0.00  0.00    +0.024 C 
ATOM     20  C   UNL     1       0.002  -0.004   0.002  0.00  0.00    +0.102 C 
ENDBRANCH   5  20
ENDBRANCH   1   7
BRANCH   3  21
ATOM     21  C   UNL     1      -2.752  -3.158   4.787  0.00  0.00    +0.113 C 
BRANCH  21  22
ATOM     22  C   UNL     1      -2.149  -2.412   5.979  0.00  0.00    +0.114 C 
BRANCH  22  23
ATOM     23  C   UNL     1      -2.367  -3.215   7.236  0.00  0.00    +0.215 C 
ATOM     24  O   UNL     1      -2.947  -4.279   7.183  0.00  0.00    -0.276 OA
ATOM     25  N   UNL     1      -1.916  -2.751   8.418  0.00  0.00    -0.315 N 
ATOM     26  H   UNL     1      -1.452  -1.900   8.460  0.00  0.00    +0.149 HD
BRANCH  25  27
ATOM     27  C   UNL     1      -2.128  -3.531   9.640  0.00  0.00    +0.108 C 
BRANCH  27  28
ATOM     28  C   UNL     1      -1.525  -2.786  10.832  0.00  0.00    +0.052 C 
BRANCH  28  29
ATOM     29  C   UNL     1      -1.743  -3.588  12.089  0.00  0.00    -0.040 C 
ATOM     30  C   UNL     1      -0.876  -4.455  12.660  0.00  0.00    +0.002 A 
ATOM     31  C   UNL     1       0.476  -4.894  12.299  0.00  0.00    +0.055 A 
ATOM     32  C   UNL     1       1.115  -5.797  13.081  0.00  0.00    +0.121 A 
ATOM     33  C   UNL     1       0.528  -6.336  14.239  0.00  0.00    +0.047 A 
ATOM     34  C   UNL     1      -0.711  -5.994  14.653  0.00  0.00    +0.029 A 
ATOM     35  C   UNL     1      -1.494  -5.023  13.881  0.00  0.00    +0.043 A 
ATOM     36  N   UNL     1      -2.694  -4.528  14.056  0.00  0.00    -0.380 N 
ATOM     37  C   UNL     1      -2.973  -3.583  12.969  0.00  0.00    +0.144 C 
ATOM     38  H   UNL     1      -3.296  -4.747  14.785  0.00  0.00    +0.160 HD
BRANCH  32  39
ATOM     39  O   UNL     1       2.367  -6.195  12.734  0.00  0.00    -0.495 OA
ATOM     40  C   UNL     1       3.005  -7.149  13.587  0.00  0.00    +0.277 C 
ENDBRANCH  32  39
ENDBRANCH  28  29
ENDBRANCH  27  28
ENDBRANCH  25  27
ENDBRANCH  22  23
ENDBRANCH  21  22
ENDBRANCH   3  21
TORSDOF 9
