REMARK  Name = ZINC02126199
REMARK  11 active torsions:
REMARK  status: ('A' for Active; 'I' for Inactive)
REMARK    1  A    between atoms: C_1  and  C_2
REMARK    2  A    between atoms: C_12  and  C_13
REMARK    3  A    between atoms: C_13  and  C_14
REMARK    4  A    between atoms: C_14  and  C_15
REMARK    5  A    between atoms: N_17  and  C_18
REMARK    6  A    between atoms: C_18  and  C_20
REMARK    7  A    between atoms: C_18  and  C_23
REMARK    8  A    between atoms: C_20  and  S_21
REMARK    9  A    between atoms: S_21  and  C_22
REMARK   10  A    between atoms: C_26  and  C_34
REMARK   11  A    between atoms: C_27  and  C_28
REMARK                            x       y       z     vdW  Elec       q    Type
REMARK                         _______ _______ _______ _____ _____    ______ ____
ROOT
ATOM      1  C   UNK A   0       6.421   1.403  -0.053  0.00  0.00    +0.045 C 
ATOM      2  C   UNK A   0       5.428   2.538  -0.037  0.00  0.00    -0.030 A 
ATOM      3  C   UNK A   0       3.986   2.276  -0.024  0.00  0.00    +0.022 A 
ATOM      4  C   UNK A   0       3.497   0.969  -0.026  0.00  0.00    +0.024 A 
ATOM      5  C   UNK A   0       2.128   0.756  -0.014  0.00  0.00    +0.029 A 
ATOM      6  C   UNK A   0       1.235   1.845   0.000  0.00  0.00    +0.139 A 
ATOM      7  C   UNK A   0       1.727   3.142   0.003  0.00  0.00    +0.093 A 
ATOM      8  C   UNK A   0       3.093   3.367  -0.009  0.00  0.00    +0.143 A 
ATOM      9  O   UNK A   0       3.578   4.629  -0.008  0.00  0.00    -0.422 OA
ATOM     10  C   UNK A   0       4.897   4.873  -0.019  0.00  0.00    +0.341 A 
ATOM     11  O   UNK A   0       5.286   6.027  -0.017  0.00  0.00    -0.245 OA
ATOM     12  C   UNK A   0       5.846   3.829  -0.034  0.00  0.00    +0.041 A 
ATOM     13  O   UNK A   0      -0.016   1.339   0.009  0.00  0.00    -0.459 OA
ATOM     14  C   UNK A   0       0.002  -0.004   0.002  0.00  0.00    +0.111 A 
ATOM     15  C   UNK A   0       1.278  -0.450  -0.013  0.00  0.00    +0.031 A 
ATOM     16  C   UNK A   0      -1.221  -0.884   0.009  0.00  0.00    +0.087 C 
ENDROOT
BRANCH  15  17
ATOM     17  C   UNK A   0       1.730  -1.862  -0.024  0.00  0.00    -0.014 A 
ATOM     18  C   UNK A   0       2.444  -2.377   1.057  0.00  0.00    +0.008 A 
ATOM     19  C   UNK A   0       2.858  -3.694   1.042  0.00  0.00    +0.001 A 
ATOM     20  C   UNK A   0       2.576  -4.498  -0.047  0.00  0.00    +0.000 A 
ATOM     21  C   UNK A   0       1.872  -3.991  -1.125  0.00  0.00    +0.001 A 
ATOM     22  C   UNK A   0       1.449  -2.678  -1.119  0.00  0.00    +0.008 A 
ENDBRANCH  15  17
BRANCH  12  23
ATOM     23  C   UNK A   0       7.319   4.147  -0.046  0.00  0.00    +0.052 C 
BRANCH  23  24
ATOM     24  C   UNK A   0       7.804   4.262  -1.493  0.00  0.00    +0.100 C 
BRANCH  24  25
ATOM     25  C   UNK A   0       9.277   4.580  -1.505  0.00  0.00    +0.214 C 
ATOM     26  O   UNK A   0       9.880   4.702  -0.460  0.00  0.00    -0.276 OA
ATOM     27  N   UNK A   1       9.925   4.727  -2.678  0.00  0.00    -0.302 N 
ATOM     28  H   UNK A   1       9.443   4.629  -3.514  0.00  0.00    +0.150 HD
BRANCH  27  29
ATOM     29  C   UNK A   1      11.357   5.036  -2.690  0.00  0.00    +0.196 C 
BRANCH  29  30
ATOM     30  C   UNK A   1      11.550   6.525  -2.561  0.00  0.00    +0.377 C 
ATOM     31  O   UNK A   1      10.591   7.253  -2.468  0.00  0.00    -0.244 OA
ATOM     32  O   UNK A   1      12.789   7.042  -2.548  0.00  0.00    -0.244 OA
ENDBRANCH  29  30
BRANCH  29  33
ATOM     33  C   UNK A   1      11.971   4.554  -4.006  0.00  0.00    +0.102 C 
BRANCH  33  34
ATOM     34  S   UNK A   1      11.738   2.762  -4.162  0.00  0.00    -0.162 S 
ATOM     35  C   UNK A   1      12.512   2.356  -5.751  0.00  0.00    +0.084 C 
ENDBRANCH  33  34
ENDBRANCH  29  33
ENDBRANCH  27  29
ENDBRANCH  24  25
ENDBRANCH  23  24
ENDBRANCH  12  23
TORSDOF 8
