REMARK  Name = ZINC35002758
REMARK  7 active torsions:
REMARK  status: ('A' for Active; 'I' for Inactive)
REMARK    1  A    between atoms: C_6  and  C_7
REMARK    2  A    between atoms: C_7  and  N_8
REMARK    3  A    between atoms: N_8  and  C_9
REMARK    4  A    between atoms: C_9  and  C_10
REMARK    5  A    between atoms: C_10  and  N_11
REMARK    6  A    between atoms: N_19  and  C_20
REMARK    7  A    between atoms: N_32  and  C_33
REMARK                            x       y       z     vdW  Elec       q    Type
REMARK                         _______ _______ _______ _____ _____    ______ ____
ROOT
ATOM      1  C   UNL     1      -2.310  -3.341  -1.833  0.00  0.00    -0.059 C 
ENDROOT
BRANCH   1   2
ATOM      2  N   UNL     1      -1.877  -4.559  -2.532  0.00  0.00    +0.383 N 
ATOM      3  C   UNL     1      -1.887  -4.319  -3.981  0.00  0.00    -0.059 C 
ATOM      4  C   UNL     1      -1.327  -5.548  -4.705  0.00  0.00    +0.091 C 
ATOM      5  N   UNL     1      -2.093  -6.729  -4.280  0.00  0.00    -0.289 N 
ATOM      6  C   UNL     1      -2.273  -6.957  -2.838  0.00  0.00    +0.091 C 
ATOM      7  C   UNL     1      -2.788  -5.662  -2.202  0.00  0.00    -0.059 C 
ATOM      8  C   UNL     1      -2.616  -7.578  -5.186  0.00  0.00    +0.303 C 
ATOM      9  O   UNL     1      -2.540  -7.324  -6.373  0.00  0.00    -0.253 OA
ATOM     10  N   UNL     1      -3.224  -8.710  -4.777  0.00  0.00    -0.294 N 
ATOM     11  H   UNL     1      -3.349  -8.878  -3.830  0.00  0.00    +0.151 HD
ATOM     12  H   UNL     1      -0.942  -4.798  -2.240  0.00  0.00    -0.082 HD
BRANCH  10  13
ATOM     13  C   UNL     1      -3.697  -9.684  -5.763  0.00  0.00    +0.037 C 
ATOM     14  C   UNL     1      -4.727  -9.023  -6.681  0.00  0.00    +0.029 C 
ATOM     15  C   UNL     1      -5.221 -10.041  -7.711  0.00  0.00    -0.008 C 
ATOM     16  C   UNL     1      -5.868 -11.224  -6.988  0.00  0.00    +0.007 C 
ATOM     17  C   UNL     1      -4.838 -11.886  -6.070  0.00  0.00    -0.008 C 
ATOM     18  C   UNL     1      -4.345 -10.868  -5.040  0.00  0.00    +0.029 C 
ATOM     19  C   UNL     1      -3.656 -12.383  -6.904  0.00  0.00    +0.007 C 
ATOM     20  C   UNL     1      -3.009 -11.200  -7.627  0.00  0.00    -0.008 C 
ATOM     21  C   UNL     1      -4.038 -10.538  -8.545  0.00  0.00    +0.007 C 
ATOM     22  C   UNL     1      -2.515 -10.181  -6.597  0.00  0.00    +0.029 C 
ENDBRANCH  10  13
ENDBRANCH   1   2
BRANCH   1  23
ATOM     23  C   UNL     1      -1.294  -2.224  -2.076  0.00  0.00    +0.091 C 
BRANCH  23  24
ATOM     24  N   UNL     1      -1.726  -1.011  -1.379  0.00  0.00    -0.283 N 
ATOM     25  C   UNL     1      -2.517  -0.119  -2.007  0.00  0.00    +0.303 C 
ATOM     26  O   UNL     1      -2.873  -0.321  -3.152  0.00  0.00    -0.253 OA
ATOM     27  N   UNL     1      -2.915   0.998  -1.366  0.00  0.00    -0.296 N 
ATOM     28  H   UNL     1      -2.631   1.160  -0.453  0.00  0.00    +0.151 HD
BRANCH  27  29
ATOM     29  C   UNL     1      -3.775   1.968  -2.048  0.00  0.00    +0.074 C 
ATOM     30  C   UNL     1      -2.912   2.925  -2.872  0.00  0.00    +0.022 C 
ATOM     31  C   UNL     1      -3.810   3.937  -3.585  0.00  0.00    +0.002 C 
ATOM     32  C   UNL     1      -4.605   4.733  -2.548  0.00  0.00    +0.000 C 
ATOM     33  C   UNL     1      -5.469   3.776  -1.724  0.00  0.00    +0.002 C 
ATOM     34  C   UNL     1      -4.570   2.763  -1.011  0.00  0.00    +0.022 C 
ENDBRANCH  27  29
BRANCH  24  35
ATOM     35  C   UNL     1      -1.297  -0.766   0.000  0.00  0.00    +0.144 C 
BRANCH  35  41
ATOM     36  C   UNL     1      -0.016   1.384  -0.000  0.00  0.00    +0.008 A 
ATOM     37  C   UNL     1       1.172   2.089  -0.005  0.00  0.00    +0.038 A 
ATOM     38  C   UNL     1       2.379   1.411  -0.014  0.00  0.00    +0.123 A 
ATOM     39  C   UNL     1       2.394   0.026  -0.019  0.00  0.00    +0.038 A 
ATOM     40  C   UNL     1       1.204  -0.677  -0.014  0.00  0.00    +0.008 A 
ATOM     41  C   UNL     1      -0.001   0.002  -0.005  0.00  0.00    -0.030 A 
ATOM     42  F   UNL     1       3.542   2.099  -0.019  0.00  0.00    -0.205 F 
ENDBRANCH  35  41
ENDBRANCH  24  35
ENDBRANCH  23  24
ENDBRANCH   1  23
TORSDOF 7
