REMARK  Name = ZINC53438271
REMARK  11 active torsions:
REMARK  status: ('A' for Active; 'I' for Inactive)
REMARK    1  A    between atoms: C_1  and  C_2
REMARK    2  A    between atoms: C_7  and  C_8
REMARK    3  A    between atoms: N_9  and  C_12
REMARK    4  A    between atoms: C_12  and  C_13
REMARK    5  A    between atoms: C_13  and  C_15
REMARK    6  A    between atoms: C_13  and  O_29
REMARK    7  A    between atoms: C_15  and  S_16
REMARK    8  A    between atoms: S_16  and  C_17
REMARK    9  A    between atoms: C_20  and  C_23
REMARK   10  A    between atoms: N_21  and  N_22
REMARK   11  A    between atoms: C_27  and  C_28
REMARK                            x       y       z     vdW  Elec       q    Type
REMARK                         _______ _______ _______ _____ _____    ______ ____
ROOT
ATOM      1  C   UNL     1      -1.322  -6.666   2.116  0.00  0.00    +0.110 C 
ENDROOT
BRANCH   1   2
ATOM      2  C   UNL     1      -1.352  -5.573   1.046  0.00  0.00    +0.144 C 
BRANCH   2   3
ATOM      3  O   UNL     1      -2.094  -6.033  -0.085  0.00  0.00    -0.389 OA
ATOM      4  H   UNL     1      -1.729  -6.827  -0.498  0.00  0.00    +0.210 HD
ENDBRANCH   2   3
BRANCH   2   5
ATOM      5  C   UNL     1       0.078  -5.240   0.616  0.00  0.00    +0.155 C 
BRANCH   5  14
ATOM      6  C   UNL     1      -0.018   1.503   0.010  0.00  0.00    +0.044 C 
ATOM      7  C   UNL     1       0.002  -0.004   0.002  0.00  0.00    -0.045 A 
ATOM      8  C   UNL     1       0.006  -0.674  -1.189  0.00  0.00    +0.033 A 
ATOM      9  C   UNL     1       0.025  -2.071  -1.202  0.00  0.00    +0.089 A 
ATOM     10  C   UNL     1       0.041  -2.773   0.015  0.00  0.00    +0.069 A 
ATOM     11  C   UNL     1       0.037  -2.076   1.215  0.00  0.00    +0.031 A 
ATOM     12  C   UNL     1       0.023  -0.697   1.204  0.00  0.00    -0.045 A 
ATOM     13  C   UNL     1       0.024   0.062   2.506  0.00  0.00    +0.044 C 
ATOM     14  N   UNL     1       0.058  -4.113  -0.319  0.00  0.00    -0.328 N 
ATOM     15  C   UNL     1       0.052  -4.192  -1.677  0.00  0.00    +0.200 A 
ATOM     16  N   UNL     1       0.033  -2.998  -2.194  0.00  0.00    -0.236 NA
ENDBRANCH   5  14
ENDBRANCH   2   5
ENDBRANCH   1   2
BRANCH   1  17
ATOM     17  S   UNL     1      -3.018  -7.060   2.626  0.00  0.00    -0.082 S 
BRANCH  17  18
ATOM     18  C   UNL     1      -2.815  -8.318   3.843  0.00  0.00    +0.209 A 
ATOM     19  N   UNL     1      -1.677  -8.821   4.262  0.00  0.00    -0.121 NA
ATOM     20  N   UNL     1      -1.893  -9.718   5.156  0.00  0.00    -0.127 NA
ATOM     21  C   UNL     1      -3.183  -9.844   5.363  0.00  0.00    +0.185 A 
ATOM     22  N   UNL     1      -3.814  -8.947   4.533  0.00  0.00    -0.224 N 
BRANCH  21  23
ATOM     23  C   UNL     1      -3.835 -10.771   6.314  0.00  0.00    +0.061 A 
ATOM     24  C   UNL     1      -5.275 -10.928   6.553  0.00  0.00    +0.053 A 
ATOM     25  C   UNL     1      -5.393 -11.878   7.495  0.00  0.00    +0.196 A 
ATOM     26  O   UNL     1      -4.170 -12.304   7.843  0.00  0.00    -0.467 OA
ATOM     27  C   UNL     1      -3.224 -11.659   7.144  0.00  0.00    +0.112 A 
ATOM     28  C   UNL     1      -1.738 -11.877   7.262  0.00  0.00    +0.087 C 
ENDBRANCH  21  23
BRANCH  22  29
ATOM     29  N   UNL     1      -5.158  -8.732   4.420  0.00  0.00    -0.295 N 
ATOM     30  H   UNL     1      -5.563  -9.334   3.718  0.00  0.00    +0.163 HD
ATOM     31  H   UNL     1      -5.620  -8.851   5.309  0.00  0.00    +0.163 HD
ENDBRANCH  22  29
ENDBRANCH  17  18
ENDBRANCH   1  17
TORSDOF 8
