REMARK  Name = ZINC02093125
REMARK  10 active torsions:
REMARK  status: ('A' for Active; 'I' for Inactive)
REMARK    1  A    between atoms: C_1  and  C_2
REMARK    2  A    between atoms: C_5  and  N_8
REMARK    3  A    between atoms: C_9  and  N_14
REMARK    4  A    between atoms: C_11  and  C_13
REMARK    5  A    between atoms: C_15  and  C_17
REMARK    6  A    between atoms: C_17  and  C_18
REMARK    7  A    between atoms: C_18  and  C_19
REMARK    8  A    between atoms: C_20  and  C_35
REMARK    9  A    between atoms: C_24  and  C_34
REMARK   10  A    between atoms: C_25  and  C_33
REMARK                            x       y       z     vdW  Elec       q    Type
REMARK                         _______ _______ _______ _____ _____    ______ ____
ROOT
ATOM      1  C   UNL     1      -1.415   0.243   2.946  0.00  0.00    +0.101 C 
ENDROOT
BRANCH   1   3
ATOM      2  N   UNL     1      -2.576   1.275   4.871  0.00  0.00    -0.270 N 
ATOM      3  C   UNL     1      -1.411   0.967   4.268  0.00  0.00    +0.219 C 
ATOM      4  O   UNL     1      -0.359   1.272   4.790  0.00  0.00    -0.275 OA
ATOM      5  H   UNL     1      -3.417   1.031   4.453  0.00  0.00    +0.156 HD
BRANCH   2   7
ATOM      6  N   UNL     1      -3.668   2.322   6.808  0.00  0.00    -0.218 N 
ATOM      7  C   UNL     1      -2.573   1.945   6.094  0.00  0.00    +0.129 A 
ATOM      8  C   UNL     1      -1.474   2.346   6.789  0.00  0.00    +0.068 A 
ATOM      9  C   UNL     1      -1.912   2.977   7.957  0.00  0.00    +0.062 A 
ATOM     10  N   UNL     1      -3.220   2.961   7.972  0.00  0.00    -0.170 NA
ATOM     11  C   UNL     1      -1.026   3.576   9.019  0.00  0.00    +0.067 C 
BRANCH   6  16
ATOM     12  C   UNL     1      -9.082   1.453   5.343  0.00  0.00    +0.044 C 
ATOM     13  C   UNL     1      -7.644   1.683   5.732  0.00  0.00    -0.050 A 
ATOM     14  C   UNL     1      -7.273   1.633   7.063  0.00  0.00    +0.005 A 
ATOM     15  C   UNL     1      -5.956   1.844   7.423  0.00  0.00    +0.028 A 
ATOM     16  C   UNL     1      -5.005   2.107   6.446  0.00  0.00    +0.067 A 
ATOM     17  C   UNL     1      -5.382   2.163   5.111  0.00  0.00    +0.028 A 
ATOM     18  C   UNL     1      -6.699   1.946   4.757  0.00  0.00    +0.005 A 
ENDBRANCH   6  16
ENDBRANCH   2   7
ENDBRANCH   1   3
BRANCH   1  19
ATOM     19  C   UNL     1       0.026   0.017   2.485  0.00  0.00    +0.052 C 
BRANCH  19  20
ATOM     20  C   UNL     1       0.023  -0.707   1.163  0.00  0.00    +0.041 A 
ATOM     21  C   UNL     1       0.002  -0.004   0.002  0.00  0.00    -0.030 A 
ATOM     22  C   UNL     1      -0.006  -0.750  -1.260  0.00  0.00    +0.022 A 
ATOM     23  C   UNL     1      -0.032  -0.081  -2.484  0.00  0.00    +0.023 A 
ATOM     24  C   UNL     1      -0.039  -0.818  -3.660  0.00  0.00    +0.024 A 
ATOM     25  C   UNL     1      -0.064  -0.465  -5.087  0.00  0.00    -0.002 A 
ATOM     26  C   UNL     1      -0.058  -1.623  -5.758  0.00  0.00    +0.106 A 
ATOM     27  O   UNL     1      -0.032  -2.659  -4.900  0.00  0.00    -0.460 OA
ATOM     28  C   UNL     1      -0.020  -2.227  -3.622  0.00  0.00    +0.139 A 
ATOM     29  C   UNL     1       0.017  -2.884  -2.401  0.00  0.00    +0.093 A 
ATOM     30  C   UNL     1       0.019  -2.160  -1.222  0.00  0.00    +0.143 A 
ATOM     31  O   UNL     1       0.039  -2.796  -0.029  0.00  0.00    -0.422 OA
ATOM     32  C   UNL     1       0.041  -2.118   1.129  0.00  0.00    +0.341 A 
ATOM     33  O   UNL     1       0.059  -2.736   2.178  0.00  0.00    -0.245 OA
ATOM     34  C   UNL     1      -0.077  -1.749  -7.259  0.00  0.00    +0.086 C 
ATOM     35  C   UNL     1      -0.091   0.922  -5.676  0.00  0.00    +0.048 C 
ATOM     36  C   UNL     1      -0.018   1.503   0.010  0.00  0.00    +0.045 C 
ENDBRANCH  19  20
ENDBRANCH   1  19
TORSDOF 5
