REMARK  Name = ZINC36235276
REMARK  8 active torsions:
REMARK  status: ('A' for Active; 'I' for Inactive)
REMARK    1  A    between atoms: C_1  and  C_2
REMARK    2  A    between atoms: C_5  and  O_33
REMARK    3  A    between atoms: C_6  and  C_8
REMARK    4  A    between atoms: N_9  and  N_10
REMARK    5  A    between atoms: C_11  and  C_13
REMARK    6  A    between atoms: C_13  and  N_24
REMARK    7  A    between atoms: C_14  and  C_15
REMARK    8  A    between atoms: C_25  and  C_27
REMARK                            x       y       z     vdW  Elec       q    Type
REMARK                         _______ _______ _______ _____ _____    ______ ____
ROOT
ATOM      1  C   UNL     1      -0.174  -6.972   4.842  0.00  0.00    +0.098 C 
ATOM      2  C   UNL     1       0.075  -8.296   4.987  0.00  0.00    +0.036 C 
ENDROOT
BRANCH   2   3
ATOM      3  C   UNL     1       0.164  -9.160   3.801  0.00  0.00    -0.019 A 
ATOM      4  C   UNL     1       0.845  -8.720   2.661  0.00  0.00    +0.012 A 
ATOM      5  C   UNL     1       0.928  -9.532   1.552  0.00  0.00    +0.050 A 
ATOM      6  C   UNL     1       0.337 -10.789   1.560  0.00  0.00    +0.166 A 
ATOM      7  C   UNL     1      -0.343 -11.236   2.693  0.00  0.00    +0.167 A 
ATOM      8  C   UNL     1      -0.426 -10.429   3.811  0.00  0.00    +0.057 A 
ATOM      9  O   UNL     1      -0.826 -12.489   2.446  0.00  0.00    -0.453 OA
ATOM     10  C   UNL     1      -0.787 -12.639   1.015  0.00  0.00    +0.466 C 
ATOM     11  O   UNL     1       0.280 -11.764   0.606  0.00  0.00    -0.453 OA
ENDBRANCH   2   3
BRANCH   1  13
ATOM     12  N   UNL     1      -0.763  -5.122   3.366  0.00  0.00    -0.202 N 
ATOM     13  C   UNL     1      -0.655  -6.452   3.557  0.00  0.00    +0.277 C 
ATOM     14  O   UNL     1      -0.958  -7.221   2.663  0.00  0.00    -0.267 OA
ATOM     15  H   UNL     1      -0.523  -4.509   4.079  0.00  0.00    +0.178 HD
BRANCH  12  17
ATOM     16  C   UNL     1      -1.327  -3.344   1.956  0.00  0.00    +0.142 C 
ATOM     17  N   UNL     1      -1.223  -4.625   2.140  0.00  0.00    -0.187 NA
BRANCH  16  23
ATOM     18  C   UNL     1      -2.498   0.525  -0.963  0.00  0.00    +0.044 C 
ATOM     19  C   UNL     1      -2.376  -0.961  -0.746  0.00  0.00    -0.050 A 
ATOM     20  C   UNL     1      -2.719  -1.837  -1.762  0.00  0.00    +0.007 A 
ATOM     21  C   UNL     1      -2.612  -3.202  -1.575  0.00  0.00    +0.046 A 
ATOM     22  C   UNL     1      -2.159  -3.704  -0.366  0.00  0.00    +0.125 A 
ATOM     23  C   UNL     1      -1.810  -2.821   0.666  0.00  0.00    +0.036 A 
ATOM     24  C   UNL     1      -1.918  -1.444   0.462  0.00  0.00    +0.016 A 
BRANCH  22  25
ATOM     25  O   UNL     1      -2.053  -5.045  -0.181  0.00  0.00    -0.506 OA
ATOM     26  H   UNL     1      -1.192  -5.410  -0.429  0.00  0.00    +0.292 HD
ENDBRANCH  22  25
ENDBRANCH  16  23
ENDBRANCH  12  17
ENDBRANCH   1  13
BRANCH   1  27
ATOM     27  N   UNL     1       0.028  -6.101   5.918  0.00  0.00    -0.277 N 
ATOM     28  C   UNL     1      -0.998  -5.367   6.393  0.00  0.00    +0.248 C 
ATOM     29  O   UNL     1      -2.117  -5.524   5.943  0.00  0.00    -0.270 OA
ATOM     30  H   UNL     1       0.906  -6.026   6.323  0.00  0.00    +0.155 HD
BRANCH  28  31
ATOM     31  C   UNL     1      -0.763  -4.371   7.459  0.00  0.00    +0.037 A 
ATOM     32  C   UNL     1       0.521  -4.184   7.973  0.00  0.00    +0.013 A 
ATOM     33  C   UNL     1       0.734  -3.253   8.968  0.00  0.00    +0.001 A 
ATOM     34  C   UNL     1      -0.323  -2.505   9.457  0.00  0.00    +0.000 A 
ATOM     35  C   UNL     1      -1.599  -2.686   8.952  0.00  0.00    +0.001 A 
ATOM     36  C   UNL     1      -1.823  -3.609   7.952  0.00  0.00    +0.013 A 
ENDBRANCH  28  31
ENDBRANCH   1  27
TORSDOF 7
