REMARK  Name = ZINC60332265
REMARK  6 active torsions:
REMARK  status: ('A' for Active; 'I' for Inactive)
REMARK    1  A    between atoms: C_7  and  C_11
REMARK    2  A    between atoms: N_13  and  C_14
REMARK    3  A    between atoms: C_14  and  C_15
REMARK    4  A    between atoms: C_15  and  N_16
REMARK    5  A    between atoms: C_17  and  C_19
REMARK    6  A    between atoms: C_19  and  C_24
REMARK                            x       y       z     vdW  Elec       q    Type
REMARK                         _______ _______ _______ _____ _____    ______ ____
ROOT
ATOM      1  C   UNL     1      -7.486   4.954  -0.542  0.00  0.00    +0.123 C 
ENDROOT
BRANCH   1   2
ATOM      2  N   UNL     1      -8.261   6.186  -0.376  0.00  0.00    -0.313 N 
ATOM      3  C   UNL     1      -9.561   6.122  -0.025  0.00  0.00    +0.224 C 
ATOM      4  O   UNL     1     -10.112   5.046   0.066  0.00  0.00    -0.275 OA
ATOM      5  H   UNL     1      -7.839   7.048  -0.519  0.00  0.00    +0.149 HD
BRANCH   3   6
ATOM      6  C   UNL     1     -10.329   7.388   0.255  0.00  0.00    +0.072 C 
ATOM      7  C   UNL     1     -10.269   8.325  -0.970  0.00  0.00    +0.021 C 
ATOM      8  C   UNL     1     -11.576   8.023  -1.743  0.00  0.00    +0.001 C 
ATOM      9  C   UNL     1     -12.606   7.813  -0.605  0.00  0.00    +0.001 C 
ATOM     10  C   UNL     1     -11.815   7.063   0.487  0.00  0.00    +0.021 C 
BRANCH   6  11
ATOM     11  C   UNL     1      -9.757   8.082   1.465  0.00  0.00    -0.031 A 
ATOM     12  C   UNL     1     -10.235   9.324   1.840  0.00  0.00    +0.005 A 
ATOM     13  C   UNL     1      -9.711   9.960   2.949  0.00  0.00    +0.002 A 
ATOM     14  C   UNL     1      -8.709   9.356   3.684  0.00  0.00    +0.020 A 
ATOM     15  C   UNL     1      -8.231   8.113   3.310  0.00  0.00    +0.041 A 
ATOM     16  C   UNL     1      -8.760   7.473   2.203  0.00  0.00    +0.024 A 
ATOM     17 CL   UNL     1      -6.972   7.353   4.233  0.00  0.00    -0.084 Cl
ENDBRANCH   6  11
ENDBRANCH   3   6
ENDBRANCH   1   2
BRANCH   1  18
ATOM     18  C   UNL     1      -6.051   5.305  -0.940  0.00  0.00    +0.123 C 
BRANCH  18  21
ATOM     19  C   UNL     1      -3.976   4.137  -1.458  0.00  0.00    +0.265 C 
ATOM     20  O   UNL     1      -3.447   5.217  -1.636  0.00  0.00    -0.268 OA
ATOM     21  N   UNL     1      -5.276   4.073  -1.106  0.00  0.00    -0.309 N 
ATOM     22  H   UNL     1      -5.698   3.211  -0.964  0.00  0.00    +0.149 HD
BRANCH  19  29
ATOM     23  C   UNL     1       0.480   3.228  -2.625  0.00  0.00    +0.001 A 
ATOM     24  C   UNL     1       0.739   1.863  -2.648  0.00  0.00    +0.002 A 
ATOM     25  C   UNL     1      -0.252   0.954  -2.350  0.00  0.00    +0.028 A 
ATOM     26  C   UNL     1      -1.526   1.407  -2.023  0.00  0.00    +0.066 A 
ATOM     27  C   UNL     1      -1.780   2.792  -2.002  0.00  0.00    +0.032 A 
ATOM     28  C   UNL     1      -0.763   3.694  -2.301  0.00  0.00    +0.012 A 
ATOM     29  C   UNL     1      -3.196   2.897  -1.625  0.00  0.00    +0.154 A 
ATOM     30  N   UNL     1      -3.630   1.665  -1.466  0.00  0.00    -0.168 NA
ATOM     31  H   UNL     1      -2.830  -0.160  -1.619  0.00  0.00    +0.189 HD
ATOM     32  N   UNL     1      -2.707   0.799  -1.684  0.00  0.00    -0.276 N 
ENDBRANCH  19  29
ENDBRANCH  18  21
ENDBRANCH   1  18
TORSDOF 6
