REMARK  Name = ZINC39683346
REMARK  11 active torsions:
REMARK  status: ('A' for Active; 'I' for Inactive)
REMARK    1  A    between atoms: C_1  and  C_2
REMARK    2  A    between atoms: C_2  and  C_3
REMARK    3  A    between atoms: C_2  and  C_4
REMARK    4  A    between atoms: C_4  and  O_5
REMARK    5  A    between atoms: O_5  and  C_6
REMARK    6  A    between atoms: C_6  and  C_7
REMARK    7  A    between atoms: C_7  and  C_8
REMARK    8  A    between atoms: C_8  and  N_9
REMARK    9  A    between atoms: C_10  and  C_12
REMARK   10  A    between atoms: C_23  and  C_25
REMARK   11  A    between atoms: C_28  and  C_30
REMARK                            x       y       z     vdW  Elec       q    Type
REMARK                         _______ _______ _______ _____ _____    ______ ____
ROOT
ATOM      1  C   UNL     1      -7.931  -0.051  -5.615  0.00  0.00    +0.100 C 
ATOM      2  C   UNL     1      -7.095  -0.595  -6.796  0.00  0.00    +0.121 C 
ATOM      3  N   UNL     1      -7.785  -1.843  -7.199  0.00  0.00    -0.294 N 
ATOM      4  C   UNL     1      -9.228  -1.521  -7.082  0.00  0.00    +0.115 C 
ATOM      5  C   UNL     1      -9.330  -0.658  -5.809  0.00  0.00    -0.004 C 
ATOM      6  C   UNL     1      -9.699  -1.529  -4.612  0.00  0.00    -0.010 C 
ATOM      7  C   UNL     1     -11.117  -2.075  -4.801  0.00  0.00    -0.082 C 
ATOM      8  N   UNL     1     -12.061  -0.958  -4.929  0.00  0.00    +0.379 N 
ATOM      9  C   UNL     1     -11.755  -0.179  -6.135  0.00  0.00    -0.082 C 
ATOM     10  C   UNL     1     -10.364   0.447  -6.002  0.00  0.00    -0.010 C 
ATOM     11  C   UNL     1      -7.228  -3.008  -7.585  0.00  0.00    +0.282 C 
ATOM     12  O   UNL     1      -7.936  -3.950  -7.888  0.00  0.00    -0.267 OA
ATOM     13  H   UNL     1     -13.001  -1.319  -4.992  0.00  0.00    -0.086 HD
ATOM     14  H   UNL     1     -11.986  -0.362  -4.117  0.00  0.00    -0.086 HD
ENDROOT
BRANCH  11  15
ATOM     15  C   UNL     1      -5.770  -3.139  -7.638  0.00  0.00    +0.190 A 
ATOM     16  C   UNL     1      -5.073  -4.266  -8.018  0.00  0.00    +0.055 A 
ATOM     17  C   UNL     1      -3.714  -3.950  -7.922  0.00  0.00    +0.050 A 
ATOM     18  C   UNL     1      -3.631  -2.657  -7.492  0.00  0.00    +0.136 A 
ATOM     19  O   UNL     1      -4.875  -2.177  -7.330  0.00  0.00    -0.450 OA
BRANCH  18  20
ATOM     20  C   UNL     1      -2.381  -1.909  -7.251  0.00  0.00    +0.017 A 
ATOM     21  C   UNL     1      -1.145  -2.520  -7.468  0.00  0.00    +0.014 A 
ATOM     22  C   UNL     1       0.019  -1.816  -7.242  0.00  0.00    +0.039 A 
ATOM     23  C   UNL     1      -0.036  -0.504  -6.799  0.00  0.00    +0.123 A 
ATOM     24  C   UNL     1      -1.261   0.108  -6.580  0.00  0.00    +0.039 A 
ATOM     25  C   UNL     1      -2.431  -0.584  -6.809  0.00  0.00    +0.014 A 
ATOM     26  F   UNL     1       1.107   0.181  -6.578  0.00  0.00    -0.205 F 
ENDBRANCH  18  20
ENDBRANCH  11  15
BRANCH   1  28
ATOM     27  N   UNL     1      -7.505   0.252  -3.197  0.00  0.00    -0.315 N 
ATOM     28  C   UNL     1      -7.340  -0.501  -4.303  0.00  0.00    +0.218 C 
ATOM     29  O   UNL     1      -6.718  -1.540  -4.243  0.00  0.00    -0.275 OA
ATOM     30  H   UNL     1      -8.002   1.083  -3.246  0.00  0.00    +0.149 HD
BRANCH  27  31
ATOM     31  C   UNL     1      -6.931  -0.186  -1.922  0.00  0.00    +0.106 C 
BRANCH  31  32
ATOM     32  C   UNL     1      -7.260   0.840  -0.836  0.00  0.00    +0.047 C 
BRANCH  32  33
ATOM     33  C   UNL     1      -6.661   0.384   0.495  0.00  0.00    +0.161 C 
BRANCH  33  34
ATOM     34  O   UNL     1      -6.968   1.342   1.510  0.00  0.00    -0.379 OA
BRANCH  34  35
ATOM     35  C   UNL     1      -6.452   1.009   2.800  0.00  0.00    +0.162 C 
BRANCH  35  37
ATOM     36  C   UNL     1      -8.360   2.121   3.967  0.00  0.00    +0.009 C 
ATOM     37  C   UNL     1      -6.839   2.099   3.801  0.00  0.00    +0.009 C 
ATOM     38  C   UNL     1      -6.183   1.807   5.152  0.00  0.00    +0.009 C 
ENDBRANCH  35  37
ENDBRANCH  34  35
ENDBRANCH  33  34
ENDBRANCH  32  33
ENDBRANCH  31  32
ENDBRANCH  27  31
ENDBRANCH   1  28
TORSDOF 9
