REMARK  Name = ZINC09049094
REMARK  11 active torsions:
REMARK  status: ('A' for Active; 'I' for Inactive)
REMARK    1  A    between atoms: C_1  and  C_2
REMARK    2  A    between atoms: C_2  and  C_4
REMARK    3  A    between atoms: C_2  and  C_5
REMARK    4  A    between atoms: C_5  and  C_7
REMARK    5  A    between atoms: C_5  and  N_17
REMARK    6  A    between atoms: N_9  and  C_10
REMARK    7  A    between atoms: C_18  and  C_20
REMARK    8  A    between atoms: C_24  and  C_28
REMARK    9  A    between atoms: C_28  and  N_29
REMARK   10  A    between atoms: N_29  and  S_30
REMARK   11  A    between atoms: S_30  and  C_33
REMARK                            x       y       z     vdW  Elec       q    Type
REMARK                         _______ _______ _______ _____ _____    ______ ____
ROOT
ATOM      1  N   UNL     1      -3.559   0.442   3.263  0.00  0.00    -0.304 N 
ATOM      2  C   UNL     1      -4.620   0.883   3.967  0.00  0.00    +0.217 C 
ATOM      3  O   UNL     1      -4.671   2.039   4.328  0.00  0.00    -0.275 OA
ATOM      4  H   UNL     1      -3.519  -0.483   2.974  0.00  0.00    +0.149 HD
ENDROOT
BRANCH   2   5
ATOM      5  C   UNL     1      -5.745  -0.062   4.306  0.00  0.00    +0.075 C 
ATOM      6  C   UNL     1      -5.201  -1.222   5.143  0.00  0.00    +0.013 C 
ATOM      7  C   UNL     1      -6.343  -2.181   5.487  0.00  0.00    +0.005 C 
ATOM      8  C   UNL     1      -7.413  -1.434   6.285  0.00  0.00    +0.005 C 
ATOM      9  C   UNL     1      -7.957  -0.274   5.448  0.00  0.00    +0.005 C 
ATOM     10  C   UNL     1      -6.816   0.685   5.104  0.00  0.00    +0.013 C 
BRANCH   8  11
ATOM     11  C   UNL     1      -8.555  -2.393   6.629  0.00  0.00    +0.109 C 
BRANCH  11  12
ATOM     12  N   UNL     1      -8.060  -3.438   7.528  0.00  0.00    -0.190 NA
ATOM     13  H   UNL     1      -7.106  -3.572   7.637  0.00  0.00    +0.148 HD
BRANCH  12  14
ATOM     14  S   UNL     1      -9.130  -4.390   8.359  0.00  0.00    +0.058 S 
ATOM     15  O   UNL     1      -8.354  -5.311   9.113  0.00  0.00    -0.153 OA
ATOM     16  O   UNL     1     -10.071  -3.513   8.963  0.00  0.00    -0.153 OA
BRANCH  14  17
ATOM     17  C   UNL     1     -10.018  -5.338   7.168  0.00  0.00    +0.105 A 
ATOM     18  C   UNL     1     -11.195  -4.847   6.633  0.00  0.00    +0.028 A 
ATOM     19  C   UNL     1     -11.889  -5.588   5.695  0.00  0.00    +0.002 A 
ATOM     20  C   UNL     1     -11.412  -6.824   5.300  0.00  0.00    +0.000 A 
ATOM     21  C   UNL     1     -10.239  -7.317   5.839  0.00  0.00    +0.002 A 
ATOM     22  C   UNL     1      -9.542  -6.574   6.773  0.00  0.00    +0.028 A 
ENDBRANCH  14  17
ENDBRANCH  12  14
ENDBRANCH  11  12
ENDBRANCH   8  11
ENDBRANCH   2   5
BRANCH   1  23
ATOM     23  C   UNL     1      -2.466   1.361   2.934  0.00  0.00    +0.161 C 
BRANCH  23  24
ATOM     24  C   UNL     1      -1.753   0.871   1.700  0.00  0.00    +0.234 C 
ATOM     25  O   UNL     1      -2.121  -0.145   1.150  0.00  0.00    -0.274 OA
ATOM     26  N   UNL     1      -0.706   1.562   1.208  0.00  0.00    -0.311 N 
ATOM     27  H   UNL     1      -0.411   2.375   1.648  0.00  0.00    +0.149 HD
BRANCH  26  28
ATOM     28  C   UNL     1      -0.013   1.086   0.008  0.00  0.00    +0.073 C 
ATOM     29  C   UNL     1      -0.719   1.589  -1.222  0.00  0.00    +0.022 C 
ATOM     30  C   UNL     1      -0.658   0.584  -2.389  0.00  0.00    +0.002 C 
ATOM     31  C   UNL     1       0.725  -0.078  -2.535  0.00  0.00    +0.000 C 
ATOM     32  C   UNL     1       1.854   0.899  -2.349  0.00  0.00    +0.000 C 
ATOM     33  C   UNL     1       2.305   0.852  -0.875  0.00  0.00    +0.002 C 
ATOM     34  C   UNL     1       1.433   1.624  -0.003  0.00  0.00    +0.022 C 
ENDBRANCH  26  28
ENDBRANCH  23  24
BRANCH  23  36
ATOM     35  C   UNL     1      -2.204   1.918   5.355  0.00  0.00    +0.009 C 
ATOM     36  C   UNL     1      -1.480   1.420   4.103  0.00  0.00    +0.012 C 
ATOM     37  C   UNL     1      -0.912   0.024   4.362  0.00  0.00    +0.009 C 
ENDBRANCH  23  36
ENDBRANCH   1  23
TORSDOF 9
