REMARK  Name = ZINC03352049
REMARK  7 active torsions:
REMARK  status: ('A' for Active; 'I' for Inactive)
REMARK    1  A    between atoms: C_1  and  C_2
REMARK    2  A    between atoms: C_2  and  C_23
REMARK    3  A    between atoms: N_5  and  C_9
REMARK    4  A    between atoms: C_9  and  C_10
REMARK    5  A    between atoms: N_12  and  C_13
REMARK    6  A    between atoms: C_18  and  O_19
REMARK    7  A    between atoms: O_19  and  C_20
REMARK                            x       y       z     vdW  Elec       q    Type
REMARK                         _______ _______ _______ _____ _____    ______ ____
ROOT
ATOM      1  C   UNL     1       1.792  -1.222   1.246  0.00  0.00    +0.047 C 
ATOM      2  C   UNL     1       1.455  -0.411  -0.007  0.00  0.00    +0.136 C 
ATOM      3  C   UNL     1       2.194   0.912  -0.004  0.00  0.00    +0.251 C 
ATOM      4  O   UNL     1       3.394   1.081  -0.007  0.00  0.00    -0.272 OA
ATOM      5  N   UNL     1       1.239   1.863   0.002  0.00  0.00    -0.215 N 
ATOM      6  C   UNL     1       0.012   1.330   0.003  0.00  0.00    +0.310 C 
ATOM      7  O   UNL     1      -1.010   1.988   0.003  0.00  0.00    -0.252 OA
ATOM      8  N   UNL     1       0.036  -0.015  -0.002  0.00  0.00    -0.281 N 
ATOM      9  H   UNL     1      -0.732  -0.608  -0.002  0.00  0.00    +0.152 HD
ENDROOT
BRANCH   2  10
ATOM     10  C   UNL     1       1.781  -1.198  -1.250  0.00  0.00    +0.003 A 
ATOM     11  C   UNL     1       0.788  -1.481  -2.169  0.00  0.00    +0.009 A 
ATOM     12  C   UNL     1       1.088  -2.197  -3.312  0.00  0.00    +0.020 A 
ATOM     13  C   UNL     1       2.380  -2.642  -3.531  0.00  0.00    +0.042 A 
ATOM     14  C   UNL     1       3.373  -2.365  -2.609  0.00  0.00    +0.040 A 
ATOM     15  C   UNL     1       3.073  -1.642  -1.468  0.00  0.00    +0.048 A 
ATOM     16 CL   UNL     1       4.318  -1.294  -0.309  0.00  0.00    -0.083 Cl
ATOM     17 CL   UNL     1       2.755  -3.548  -4.964  0.00  0.00    -0.083 Cl
ENDBRANCH   2  10
BRANCH   5  18
ATOM     18  C   UNL     1       1.511   3.303   0.005  0.00  0.00    +0.214 C 
BRANCH  18  19
ATOM     19  C   UNL     1       1.608   3.792   1.427  0.00  0.00    +0.235 C 
ATOM     20  O   UNL     1       1.464   3.015   2.347  0.00  0.00    -0.274 OA
ATOM     21  N   UNL     1       1.854   5.094   1.677  0.00  0.00    -0.281 N 
ATOM     22  H   UNL     1       2.033   5.703   0.943  0.00  0.00    +0.155 HD
BRANCH  21  23
ATOM     23  C   UNL     1       1.852   5.567   2.996  0.00  0.00    +0.076 A 
ATOM     24  C   UNL     1       2.308   4.757   4.026  0.00  0.00    +0.027 A 
ATOM     25  C   UNL     1       2.304   5.226   5.326  0.00  0.00    +0.002 A 
ATOM     26  C   UNL     1       1.848   6.502   5.603  0.00  0.00    +0.004 A 
ATOM     27  C   UNL     1       1.392   7.314   4.582  0.00  0.00    +0.048 A 
ATOM     28  C   UNL     1       1.397   6.854   3.275  0.00  0.00    +0.148 A 
BRANCH  28  29
ATOM     29  O   UNL     1       0.955   7.654   2.268  0.00  0.00    -0.432 OA
BRANCH  29  30
ATOM     30  C   UNL     1       0.503   8.961   2.630  0.00  0.00    +0.541 C 
ATOM     31  F   UNL     1      -0.568   8.854   3.523  0.00  0.00    -0.166 F 
ATOM     32  F   UNL     1       1.549   9.664   3.237  0.00  0.00    -0.166 F 
ENDBRANCH  29  30
ENDBRANCH  28  29
ENDBRANCH  21  23
ENDBRANCH  18  19
ENDBRANCH   5  18
TORSDOF 6
