REMARK  Name = ZINC00710630
REMARK  6 active torsions:
REMARK  status: ('A' for Active; 'I' for Inactive)
REMARK    1  A    between atoms: C_1  and  O_2
REMARK    2  A    between atoms: O_2  and  C_3
REMARK    3  A    between atoms: C_5  and  C_12
REMARK    4  A    between atoms: C_8  and  O_9
REMARK    5  A    between atoms: O_9  and  C_10
REMARK    6  A    between atoms: C_17  and  C_22
REMARK                            x       y       z     vdW  Elec       q    Type
REMARK                         _______ _______ _______ _____ _____    ______ ____
ROOT
ATOM      1  C   UNL     1      -0.710   3.271  -1.805  0.00  0.00    +0.136 C 
ATOM      2  C   UNL     1      -1.699   2.652  -0.846  0.00  0.00    +0.036 C 
ATOM      3  C   UNL     1      -1.448   1.642  -0.004  0.00  0.00    +0.017 C 
ATOM      4  C   UNL     1      -2.530   1.149   0.950  0.00  0.00    +0.059 C 
ATOM      5  C   UNL     1      -3.899   1.276   0.284  0.00  0.00    +0.032 C 
ATOM      6  C   UNL     1      -4.123   2.756  -0.046  0.00  0.00    +0.088 C 
ATOM      7  C   UNL     1      -2.988   3.233  -0.901  0.00  0.00    +0.163 C 
ATOM      8  O   UNL     1      -3.182   4.153  -1.672  0.00  0.00    -0.292 OA
ATOM      9  N   UNL     1      -0.262   0.990   0.114  0.00  0.00    -0.316 N 
ATOM     10  C   UNL     1       0.979   1.612   0.207  0.00  0.00    +0.052 A 
ATOM     11  C   UNL     1       1.782   1.500   1.328  0.00  0.00    +0.025 A 
ATOM     12  C   UNL     1       3.027   2.106   1.333  0.00  0.00    +0.002 A 
ATOM     13  C   UNL     1       3.463   2.813   0.227  0.00  0.00    +0.002 A 
ATOM     14  C   UNL     1       2.652   2.941  -0.887  0.00  0.00    +0.025 A 
ATOM     15  C   UNL     1       1.396   2.354  -0.888  0.00  0.00    +0.049 A 
ATOM     16  N   UNL     1       0.520   2.523  -1.957  0.00  0.00    -0.331 N 
ATOM     17  H   UNL     1      -0.282   0.020   0.131  0.00  0.00    +0.152 HD
ATOM     18  H   UNL     1       0.737   2.132  -2.818  0.00  0.00    +0.147 HD
ENDROOT
BRANCH   1  21
ATOM     19  C   UNL     1      -0.423   7.034  -1.615  0.00  0.00    +0.163 A 
ATOM     20  C   UNL     1      -0.734   5.760  -2.064  0.00  0.00    +0.055 A 
ATOM     21  C   UNL     1      -0.371   4.656  -1.316  0.00  0.00    -0.018 A 
ATOM     22  C   UNL     1       0.298   4.819  -0.117  0.00  0.00    +0.025 A 
ATOM     23  C   UNL     1       0.616   6.087   0.334  0.00  0.00    +0.063 A 
ATOM     24  C   UNL     1       0.255   7.198  -0.412  0.00  0.00    +0.175 A 
ATOM     25 BR   UNL     1       1.538   6.305   1.970  0.00  0.00    -0.046 Br
BRANCH  19  27
ATOM     26  C   UNL     1      -1.473   7.876  -3.576  0.00  0.00    +0.277 C 
ATOM     27  O   UNL     1      -0.780   8.121  -2.351  0.00  0.00    -0.491 OA
ENDBRANCH  19  27
BRANCH  24  28
ATOM     28  O   UNL     1       0.563   8.447   0.032  0.00  0.00    -0.490 OA
ATOM     29  C   UNL     1      -0.402   9.096   0.863  0.00  0.00    +0.277 C 
ENDBRANCH  24  28
ENDBRANCH   1  21
BRANCH   5  30
ATOM     30  C   UNL     1      -4.972   0.795   1.227  0.00  0.00    -0.044 A 
ATOM     31  C   UNL     1      -5.117   1.386   2.469  0.00  0.00    +0.004 A 
ATOM     32  C   UNL     1      -6.104   0.948   3.332  0.00  0.00    +0.000 A 
ATOM     33  C   UNL     1      -6.940  -0.087   2.957  0.00  0.00    +0.000 A 
ATOM     34  C   UNL     1      -6.792  -0.682   1.718  0.00  0.00    +0.000 A 
ATOM     35  C   UNL     1      -5.808  -0.240   0.853  0.00  0.00    +0.004 A 
ENDBRANCH   5  30
TORSDOF 4
