REMARK  Name = ZINC16009815
REMARK  3 active torsions:
REMARK  status: ('A' for Active; 'I' for Inactive)
REMARK    1  A    between atoms: C_7  and  C_11
REMARK    2  A    between atoms: C_11  and  C_12
REMARK    3  A    between atoms: N_20  and  C_23
REMARK                            x       y       z     vdW  Elec       q    Type
REMARK                         _______ _______ _______ _____ _____    ______ ____
ROOT
ATOM      1  C   UNL     1       0.236  -3.589  -1.455  0.00  0.00    +0.072 C 
ATOM      2  C   UNL     1      -0.682  -4.807  -1.498  0.00  0.00    +0.108 C 
ATOM      3  C   UNL     1      -1.236  -4.596  -2.956  0.00  0.00    +0.123 C 
ATOM      4  C   UNL     1      -1.817  -5.884  -3.247  0.00  0.00    +0.233 C 
ATOM      5  O   UNL     1      -2.789  -6.117  -3.932  0.00  0.00    -0.274 OA
ATOM      6  N   UNL     1      -1.026  -6.788  -2.580  0.00  0.00    -0.207 N 
ATOM      7  C   UNL     1      -0.140  -6.186  -1.704  0.00  0.00    +0.232 C 
ATOM      8  O   UNL     1       0.860  -6.662  -1.213  0.00  0.00    -0.274 OA
ATOM      9  C   UNL     1      -1.477  -3.162  -3.085  0.00  0.00    +0.136 C 
ATOM     10  N   UNL     1      -0.670  -2.514  -1.996  0.00  0.00    -0.295 NA
ATOM     11  C   UNL     1      -1.056  -2.569  -4.406  0.00  0.00    +0.003 A 
ATOM     12  C   UNL     1       0.131  -2.578  -5.105  0.00  0.00    +0.008 A 
ATOM     13  C   UNL     1       0.220  -1.927  -6.323  0.00  0.00    +0.000 A 
ATOM     14  C   UNL     1      -0.885  -1.271  -6.835  0.00  0.00    +0.002 A 
ATOM     15  C   UNL     1      -2.075  -1.261  -6.138  0.00  0.00    +0.023 A 
ATOM     16  C   UNL     1      -2.173  -1.914  -4.911  0.00  0.00    +0.039 A 
ATOM     17  N   UNL     1      -3.248  -2.045  -4.031  0.00  0.00    -0.283 N 
ATOM     18  C   UNL     1      -2.927  -2.760  -2.939  0.00  0.00    +0.243 C 
ATOM     19  O   UNL     1      -3.661  -3.032  -2.012  0.00  0.00    -0.273 OA
ATOM     20  H   UNL     1      -1.274  -2.154  -1.272  0.00  0.00    +0.124 HD
ATOM     21  H   UNL     1      -4.126  -1.664  -4.189  0.00  0.00    +0.155 HD
ENDROOT
BRANCH   6  22
ATOM     22  C   UNL     1      -1.113  -8.177  -2.756  0.00  0.00    +0.079 A 
ATOM     23  C   UNL     1      -0.339  -8.806  -3.721  0.00  0.00    +0.027 A 
ATOM     24  C   UNL     1      -0.426 -10.174  -3.891  0.00  0.00    +0.002 A 
ATOM     25  C   UNL     1      -1.284 -10.918  -3.103  0.00  0.00    +0.003 A 
ATOM     26  C   UNL     1      -2.057 -10.296  -2.140  0.00  0.00    +0.040 A 
ATOM     27  C   UNL     1      -1.970  -8.927  -1.960  0.00  0.00    +0.145 A 
ATOM     28  F   UNL     1      -2.722  -8.320  -1.015  0.00  0.00    -0.204 F 
ENDBRANCH   6  22
BRANCH   1  29
ATOM     29  C   UNL     1       0.666  -3.275  -0.021  0.00  0.00    +0.056 C 
BRANCH  29  36
ATOM     30  C   UNL     1      -0.017   1.362   0.009  0.00  0.00    +0.001 A 
ATOM     31  C   UNL     1       1.170   2.083   0.002  0.00  0.00    +0.002 A 
ATOM     32  C   UNL     1       2.386   1.436  -0.013  0.00  0.00    +0.026 A 
ATOM     33  C   UNL     1       2.428   0.046  -0.021  0.00  0.00    +0.047 A 
ATOM     34  C   UNL     1       1.223  -0.681  -0.013  0.00  0.00    +0.003 A 
ATOM     35  C   UNL     1       0.002  -0.004   0.002  0.00  0.00    +0.010 A 
ATOM     36  C   UNL     1       1.604  -2.095  -0.025  0.00  0.00    -0.021 A 
ATOM     37  C   UNL     1       2.945  -2.141  -0.038  0.00  0.00    +0.087 A 
ATOM     38  N   UNL     1       3.455  -0.871  -0.036  0.00  0.00    -0.360 N 
ATOM     39  H   UNL     1       4.399  -0.650  -0.044  0.00  0.00    +0.165 HD
ENDBRANCH  29  36
ENDBRANCH   1  29
TORSDOF 3
