REMARK  Name = ZINC63271450
REMARK  5 active torsions:
REMARK  status: ('A' for Active; 'I' for Inactive)
REMARK    1  A    between atoms: C_6  and  C_11
REMARK    2  A    between atoms: C_11  and  C_12
REMARK    3  A    between atoms: C_12  and  N_13
REMARK    4  A    between atoms: C_14  and  C_16
REMARK    5  A    between atoms: C_16  and  N_17
REMARK                            x       y       z     vdW  Elec       q    Type
REMARK                         _______ _______ _______ _____ _____    ______ ____
ROOT
ATOM      1  C   UNL     1       5.815  -5.608  -2.687  0.00  0.00    +0.201 C 
ENDROOT
BRANCH   1   2
ATOM      2  N   UNL     1       6.078  -6.019  -4.069  0.00  0.00    -0.291 N 
ATOM      3  C   UNL     1       6.546  -7.256  -4.326  0.00  0.00    +0.303 C 
ATOM      4  O   UNL     1       6.836  -8.000  -3.408  0.00  0.00    -0.253 OA
ATOM      5  N   UNL     1       6.693  -7.670  -5.600  0.00  0.00    -0.284 N 
ATOM      6  C   UNL     1       7.085  -9.047  -5.879  0.00  0.00    +0.110 C 
ATOM      7  C   UNL     1       8.296  -9.086  -6.783  0.00  0.00    +0.025 C 
ATOM      8  C   UNL     1       8.241  -8.164  -7.976  0.00  0.00    +0.029 C 
ATOM      9  C   UNL     1       7.330  -6.963  -7.877  0.00  0.00    +0.127 C 
ATOM     10  C   UNL     1       6.456  -6.745  -6.697  0.00  0.00    +0.136 C 
ATOM     11  N   UNL     1       8.048  -5.793  -8.357  0.00  0.00    -0.282 NA
ATOM     12  C   UNL     1       9.286  -6.063  -8.586  0.00  0.00    +0.043 C 
ATOM     13  C   UNL     1       9.621  -7.485  -8.123  0.00  0.00    +0.065 C 
ATOM     14  C   UNL     1      10.491  -8.142  -9.149  0.00  0.00    -0.017 C 
ATOM     15  C   UNL     1      11.257  -7.399  -9.948  0.00  0.00    -0.004 C 
ATOM     16  C   UNL     1      11.285  -5.939  -9.870  0.00  0.00    +0.001 C 
ATOM     17  C   UNL     1      10.292  -5.241  -9.173  0.00  0.00    +0.023 C 
ATOM     18  H   UNL     1       5.915  -5.401  -4.798  0.00  0.00    +0.151 HD
ENDBRANCH   1   2
BRANCH   1  20
ATOM     19  N   UNL     1       4.991  -3.598  -1.505  0.00  0.00    -0.314 N 
ATOM     20  C   UNL     1       5.302  -4.191  -2.674  0.00  0.00    +0.230 C 
ATOM     21  O   UNL     1       5.169  -3.584  -3.716  0.00  0.00    -0.274 OA
ATOM     22  H   UNL     1       5.098  -4.083  -0.671  0.00  0.00    +0.149 HD
BRANCH  19  23
ATOM     23  C   UNL     1       4.492  -2.220  -1.492  0.00  0.00    +0.108 C 
BRANCH  23  24
ATOM     24  C   UNL     1       4.218  -1.791  -0.049  0.00  0.00    +0.052 C 
BRANCH  24  30
ATOM     25  C   UNL     1      -0.044   1.375   0.017  0.00  0.00    +0.040 A 
ATOM     26  C   UNL     1       1.078   2.124   0.007  0.00  0.00    +0.029 A 
ATOM     27  C   UNL     1       2.358   1.502  -0.011  0.00  0.00    +0.043 A 
ATOM     28  N   UNL     1       3.570   2.001  -0.024  0.00  0.00    -0.380 N 
ATOM     29  C   UNL     1       4.531   0.893  -0.041  0.00  0.00    +0.144 C 
ATOM     30  C   UNL     1       3.705  -0.374  -0.036  0.00  0.00    -0.040 C 
ATOM     31  C   UNL     1       2.412   0.023  -0.018  0.00  0.00    +0.002 A 
ATOM     32  C   UNL     1       1.145  -0.719  -0.007  0.00  0.00    +0.048 A 
ATOM     33  C   UNL     1      -0.019  -0.028   0.010  0.00  0.00    +0.124 A 
ATOM     34  F   UNL     1      -1.187  -0.708   0.021  0.00  0.00    -0.205 F 
ATOM     35  H   UNL     1       3.794   2.945  -0.022  0.00  0.00    +0.160 HD
ENDBRANCH  24  30
ENDBRANCH  23  24
ENDBRANCH  19  23
ENDBRANCH   1  20
TORSDOF 5
