REMARK  Name = ZINC03561206
REMARK  7 active torsions:
REMARK  status: ('A' for Active; 'I' for Inactive)
REMARK    1  A    between atoms: C_1  and  C_2
REMARK    2  A    between atoms: C_2  and  C_3
REMARK    3  A    between atoms: C_2  and  C_4
REMARK    4  A    between atoms: C_9  and  N_10
REMARK    5  A    between atoms: C_11  and  C_13
REMARK    6  A    between atoms: C_14  and  C_15
REMARK    7  A    between atoms: C_18  and  N_21
REMARK                            x       y       z     vdW  Elec       q    Type
REMARK                         _______ _______ _______ _____ _____    ______ ____
ROOT
ATOM      1  N   UNL     1       1.223   3.441   0.009  0.00  0.00    -0.282 N 
ATOM      2  C   UNL     1       1.242   2.093  -0.002  0.00  0.00    +0.241 C 
ATOM      3  O   UNL     1       2.304   1.499  -0.010  0.00  0.00    -0.270 OA
ATOM      4  H   UNL     1       0.379   3.914  -0.051  0.00  0.00    +0.155 HD
ENDROOT
BRANCH   1  10
ATOM      5  C   UNL     1       2.462   5.350   0.814  0.00  0.00    -0.024 A 
ATOM      6  C   UNL     1       3.647   6.054   0.909  0.00  0.00    +0.006 A 
ATOM      7  C   UNL     1       4.791   5.570   0.302  0.00  0.00    +0.000 A 
ATOM      8  C   UNL     1       4.753   4.380  -0.403  0.00  0.00    +0.002 A 
ATOM      9  C   UNL     1       3.573   3.670  -0.498  0.00  0.00    +0.023 A 
ATOM     10  C   UNL     1       2.421   4.156   0.107  0.00  0.00    +0.037 A 
BRANCH   5  12
ATOM     11  C   UNL     1       1.492   6.118   2.963  0.00  0.00    +0.012 C 
ATOM     12  C   UNL     1       1.216   5.878   1.477  0.00  0.00    +0.015 C 
ATOM     13  C   UNL     1       0.805   7.195   0.816  0.00  0.00    +0.012 C 
ENDBRANCH   5  12
ENDBRANCH   1  10
BRANCH   2  14
ATOM     14  C   UNL     1      -0.015   1.343  -0.003  0.00  0.00    +0.068 C 
ATOM     15  C   UNL     1       0.003  -0.005  -0.014  0.00  0.00    +0.013 C 
BRANCH  15  16
ATOM     16  C   UNL     1      -1.261  -0.758  -0.016  0.00  0.00    -0.025 A 
ATOM     17  C   UNL     1      -2.484  -0.080  -0.000  0.00  0.00    +0.010 A 
ATOM     18  C   UNL     1      -3.664  -0.793  -0.007  0.00  0.00    +0.033 A 
ATOM     19  C   UNL     1      -3.641  -2.176  -0.019  0.00  0.00    +0.126 A 
ATOM     20  C   UNL     1      -2.435  -2.855  -0.029  0.00  0.00    +0.033 A 
ATOM     21  C   UNL     1      -1.246  -2.156  -0.027  0.00  0.00    +0.010 A 
BRANCH  19  22
ATOM     22  N   UNL     1      -4.912  -2.934  -0.021  0.00  0.00    +0.056 N 
ATOM     23  O   UNL     1      -4.895  -4.152  -0.030  0.00  0.00    -0.126 OA
ATOM     24  O   UNL     1      -5.975  -2.340  -0.012  0.00  0.00    -0.126 OA
ENDBRANCH  19  22
ENDBRANCH  15  16
ENDBRANCH   2  14
TORSDOF 5
